#------------------------------------------------------------------------------
#$Date: 2019-11-24 10:52:58 +0200 (Sun, 24 Nov 2019) $
#$Revision: 237695 $
#$URL: file:///home/coder/svn-repositories/cod/cif/7/23/74/7237479.cif $
#------------------------------------------------------------------------------
#
# This file is available in the Crystallography Open Database (COD),
# http://www.crystallography.net/
#
# All data on this site have been placed in the public domain by the
# contributors.
#
data_7237479
loop_
_publ_author_name
'Han, Shiguo'
'Liu, Xitao'
'Zhang, Jing'
'Ji, Chengmin'
'Wu, Zhenyue'
'Tao, Kewen'
'Wang, Yuyin'
'Sun, Zhihua'
'Luo, Junhua'
_publ_section_title
;
 Dielectric phase transition triggered by the order--disorder
 transformation of cyclopropylamine in a layered organic--inorganic halide
 perovskite
;
_journal_issue                   38
_journal_name_full               'Journal of Materials Chemistry C'
_journal_page_first              10327
_journal_paper_doi               10.1039/C8TC03517B
_journal_volume                  6
_journal_year                    2018
_chemical_formula_sum            'C6 H16 Cd Cl4 N2'
_chemical_formula_weight         370.41
_space_group_crystal_system      monoclinic
_space_group_IT_number           14
_space_group_name_Hall           '-P 2ybc'
_space_group_name_H-M_alt        'P 1 21/c 1'
_atom_sites_solution_hydrogens   geom
_audit_creation_method           SHELXL-2013
_audit_update_record
;
2018-03-03 deposited with the CCDC.
2018-09-04 downloaded from the CCDC.
;
_cell_angle_alpha                90
_cell_angle_beta                 108.539(2)
_cell_angle_gamma                90
_cell_formula_units_Z            2
_cell_length_a                   11.9475(7)
_cell_length_b                   7.2805(4)
_cell_length_c                   7.6597(5)
_cell_measurement_reflns_used    6156
_cell_measurement_temperature    100(2)
_cell_measurement_theta_max      27.59
_cell_measurement_theta_min      3.60
_cell_volume                     631.70(7)
_computing_structure_refinement  'SHELXL-2013 (Sheldrick, 2013)'
_diffrn_ambient_temperature      100(2)
_diffrn_measured_fraction_theta_full 0.998
_diffrn_measured_fraction_theta_max 0.993
_diffrn_measurement_device_type  'Bruker APEX-II CCD'
_diffrn_radiation_type           MoK\a
_diffrn_radiation_wavelength     0.71073
_diffrn_reflns_av_R_equivalents  0.0457
_diffrn_reflns_av_unetI/netI     0.0321
_diffrn_reflns_Laue_measured_fraction_full 0.998
_diffrn_reflns_Laue_measured_fraction_max 0.993
_diffrn_reflns_limit_h_max       14
_diffrn_reflns_limit_h_min       -15
_diffrn_reflns_limit_k_max       9
_diffrn_reflns_limit_k_min       -9
_diffrn_reflns_limit_l_max       9
_diffrn_reflns_limit_l_min       -9
_diffrn_reflns_number            7996
_diffrn_reflns_point_group_measured_fraction_full 0.998
_diffrn_reflns_point_group_measured_fraction_max 0.993
_diffrn_reflns_theta_full        25.242
_diffrn_reflns_theta_max         27.595
_diffrn_reflns_theta_min         2.798
_exptl_absorpt_coefficient_mu    2.536
_exptl_crystal_density_diffrn    1.947
_exptl_crystal_description       block
_exptl_crystal_F_000             364
_refine_diff_density_max         1.418
_refine_diff_density_min         -1.005
_refine_diff_density_rms         0.161
_refine_ls_extinction_method     none
_refine_ls_goodness_of_fit_ref   1.197
_refine_ls_hydrogen_treatment    constr
_refine_ls_matrix_type           full
_refine_ls_number_parameters     63
_refine_ls_number_reflns         1446
_refine_ls_number_restraints     0
_refine_ls_restrained_S_all      1.197
_refine_ls_R_factor_all          0.0383
_refine_ls_R_factor_gt           0.0370
_refine_ls_shift/su_max          0.000
_refine_ls_shift/su_mean         0.000
_refine_ls_structure_factor_coef Fsqd
_refine_ls_weighting_details
;
 w=1/[\s^2^(Fo^2^)+(0.0518P)^2^+2.0320P]
 where P=(Fo^2^+2Fc^2^)/3
;
_refine_ls_weighting_scheme      calc
_refine_ls_wR_factor_gt          0.0971
_refine_ls_wR_factor_ref         0.1074
_reflns_Friedel_coverage         0.000
_reflns_number_gt                1425
_reflns_number_total             1446
_reflns_threshold_expression     'I > 2\s(I)'
_cod_data_source_file            c8tc03517b2.cif
_cod_data_source_block           100k
_cod_original_cell_volume        631.69(7)
_cod_original_sg_symbol_H-M      'P 21/c'
_cod_database_code               7237479
_shelx_space_group_comment
;
The symmetry employed for this shelxl refinement is uniquely defined
by the following loop, which should always be used as a source of
symmetry information in preference to the above space-group names.
They are only intended as comments.
;
_shelxl_version_number           2013-2
_shelx_res_file
;
REM DFIX 1.5 0.02 C1 C2 C2 C3 C3 C1
REM DFIX 1.5 0.02 C1 N1
REM  mo_cd10001_0ma in P2(1)/c
REM R1 =  0.0366 for    1425 Fo > 4sig(Fo)  and  0.0378 for all    1446 data
REM     64 parameters refined using      0 restraints
REM Instructions for potential hydrogen bonds
REM Highest difference peak  1.427,  deepest hole -0.989,  1-sigma level  0.161
TITL mo_cd10001_0ma in P2(1)/c
CELL 0.71073 11.9475 7.2805 7.6597 90.000 108.539 90.000
ZERR 2.0000 0.0007 0.0004 0.0005 0.000 0.002 0.000
LATT 1
SYMM -X, 0.5+Y, 0.5-Z
SFAC C H N CL CD
UNIT 12 32 4 8 2
MERG 2
FMAP 2
GRID
PLAN 20
TEMP -173
TWIN 1 0 0.992 0 -1 0 0 0 -1
HTAB
BOND $h
EQIV $1 -x+1, y+1/2, -z+3/2
HTAB N1 Cl2_$1
EQIV $4 x, -y+1/2, z-1/2
HTAB N1 Cl1_$4
EQIV $5 -x+1, -y+1, -z+1
HTAB N1 Cl2_$5
HTAB N1 Cl1
EQIV $6 x, y+1, z
HTAB C1 Cl1_$6
EQIV $7 x, -y+1/2, z+1/2
HTAB C3 Cl1_$7
HTAB N1 Cl2_$1
HTAB N1 Cl1_$4
HTAB N1 Cl2_$5
HTAB N1 Cl1
HTAB C1 Cl1_$6
HTAB C3 Cl1_$7
L.S. 20
ACTA
WGHT    0.051800    2.032000
BASF   0.31972
FVAR       0.17924
CD1   5    0.500000    0.000000    0.500000    10.50000    0.02405    0.02001 =
         0.02436    0.00032    0.00869    0.00033
CL1   4    0.280239    0.064179    0.420510    11.00000    0.02397    0.02317 =
         0.02602    0.00018    0.00656    0.00040
CL2   4    0.534052    0.213734    0.801105    11.00000    0.02819    0.02213 =
         0.02522   -0.00294    0.00872   -0.00058
N1    3    0.298405    0.494913    0.350053    11.00000    0.02990    0.03307 =
         0.01952   -0.00351    0.01610   -0.00287
AFIX 137
H1A   2    0.353695    0.544525    0.449619    11.00000   -1.50000
H1B   2    0.321638    0.509045    0.248644    11.00000   -1.50000
H1C   2    0.290170    0.373215    0.370166    11.00000   -1.50000
AFIX   0
C1    1    0.186751    0.586977    0.321032    11.00000    0.03665    0.02629 =
         0.04124    0.00057   -0.00460    0.00716
AFIX  13
H1    2    0.182978    0.718145    0.280829    11.00000   -1.20000
AFIX   0
C2    1    0.076108    0.480637    0.249930    11.00000    0.03331    0.04541 =
         0.01550    0.00369    0.01516    0.00627
AFIX  23
H2A   2    0.005908    0.543858    0.166985    11.00000   -1.20000
H2B   2    0.082204    0.348456    0.223989    11.00000   -1.20000
AFIX   0
C3    1    0.121172    0.541731    0.442677    11.00000    0.05237    0.16144 =
         0.02044   -0.00036    0.01912    0.04731
AFIX  23
H3A   2    0.078420    0.642330    0.481181    11.00000   -1.20000
H3B   2    0.154561    0.447324    0.538069    11.00000   -1.20000
AFIX   0
HKLF 4

REM  mo_cd10001_0ma in P2(1)/c
REM R1 =  0.0370 for    1425 Fo > 4sig(Fo)  and  0.0383 for all    1446 data
REM     63 parameters refined using      0 restraints

END

WGHT      0.0518      2.0320

REM Instructions for potential hydrogen bonds
HTAB N1 Cl2_$1
HTAB N1 Cl1_$4
HTAB N1 Cl2_$5
HTAB N1 Cl1
HTAB C1 Cl1_$6
HTAB C3 Cl1_$7

REM Highest difference peak  1.418,  deepest hole -1.005,  1-sigma level  0.161
Q1    1   0.4196  0.0005  0.4578  11.00000  0.05    1.42
Q2    1   0.5148  0.0796  0.5883  11.00000  0.05    1.39
Q3    1   0.4777  0.0781  0.4098  11.00000  0.05    1.26
Q4    1   0.5390  0.1387  0.7105  11.00000  0.05    0.73
Q5    1   0.2802 -0.0044  0.3385  11.00000  0.05    0.73
Q6    1   0.6205  0.2221  0.8144  11.00000  0.05    0.66
Q7    1   0.4508  0.2451  0.7447  11.00000  0.05    0.65
Q8    1   0.2570  0.1427  0.3242  11.00000  0.05    0.64
Q9    1   0.3425  0.0740  0.5011  11.00000  0.05    0.57
Q10   1   0.2995  0.4934  0.2661  11.00000  0.05    0.54
Q11   1   0.2012  0.0516  0.3783  11.00000  0.05    0.46
Q12   1   0.5980  0.1832  0.8953  11.00000  0.05    0.43
Q13   1   0.1028  0.5220  0.4993  11.00000  0.05    0.41
Q14   1   0.0807  0.4865  0.1587  11.00000  0.05    0.38
Q15   1   0.2999  0.4383  0.0993  11.00000  0.05    0.37
Q16   1   0.2627  0.0975  0.2162  11.00000  0.05    0.37
Q17   1   0.4076  0.1776  0.7110  11.00000  0.05    0.36
Q18   1   0.3651 -0.0517  0.5546  11.00000  0.05    0.35
Q19   1   0.2952 -0.1450  0.3660  11.00000  0.05    0.34
Q20   1   0.4409  0.2033  0.6200  11.00000  0.05    0.34
;
_shelx_res_checksum              48936
_shelx_hkl_file
;
   0   0   1    0.12    0.05
   0   0  -1    0.00    0.03
   0   0  -2   43.07    2.51
   0   0   3    0.60    0.20
   0   0  -3    0.51    0.20
   0   0   3    0.46    0.12
   0   0  -4   87.58    4.86
   0   0   4   76.83    4.61
   0   0   4   85.09    4.80
   0   0   5    0.46    0.20
   0   0   5    0.42    0.14
   0   0  -5    0.40    0.22
   0   0   6   32.59    2.11
   0   0   6   28.15    1.85
   0   0   7    0.35    0.16
   0   0   7    0.14    0.18
   0   0   8   13.56    1.54
   0   0   9    0.52    0.29
   0   0   9    0.26    0.25
   0   1   0    0.00    0.03
   0   1   0    0.05    0.03
   0  -1   0   -0.03    0.02
   0  -1   0   -0.02    0.02
   0  -1   0   -0.01    0.01
   0   1   1  254.19   14.06
   0   1  -1  286.01   14.07
   0  -1   1  234.35   14.03
   0  -1   1  282.55   14.08
   0  -1  -1  255.00   14.06
   0   1  -2   34.07    2.05
   0   1   2   35.94    2.06
   0  -1   2   32.88    2.05
   0  -1   2   35.27    2.02
   0  -1  -2   33.52    2.04
   0   1   3  204.96   10.94
   0   1  -3  202.10   10.94
   0  -1   3  196.15   10.94
   0  -1   3  188.43   10.82
   0  -1  -3  207.61   10.95
   0   1  -4    7.69    0.72
   0   1   4    6.58    0.52
   0   1   4    7.77    0.70
   0  -1   4    7.25    0.59
   0  -1   4    6.06    0.76
   0  -1  -4    7.31    0.70
   0   1  -5   20.56    1.52
   0   1   5   24.06    1.54
   0   1   5   16.78    1.24
   0  -1   5   19.01    1.33
   0  -1   5   21.72    1.52
   0  -1  -5   20.36    1.53
   0   1  -6    9.31    0.97
   0   1   6   10.67    0.95
   0   1   6    9.61    0.74
   0  -1  -6   10.71    1.01
   0  -1   6   10.61    0.82
   0  -1   6    9.78    0.94
   0   1   7   32.10    2.13
   0   1   7   28.66    1.86
   0  -1   7   30.66    1.94
   0   1   8    5.65    0.69
   0   1   8    6.17    0.57
   0  -1   8    4.88    0.65
   0   1   9   15.79    1.30
   0  -1   9   13.42    1.28
   0  -2   0  561.38   32.93
   0  -2   0  676.64   33.02
   0   2  -1   46.31    2.63
   0   2   1   47.51    2.64
   0  -2   1   45.80    2.62
   0  -2  -1   49.61    2.68
   0  -2   1   43.81    2.63
   0  -2   1   46.38    2.66
   0   2   2  413.62   22.41
   0   2  -2  436.95   22.41
   0  -2   2  445.47   22.45
   0  -2   2  391.03   22.35
   0  -2  -2  400.05   22.40
   0   2   3   41.48    2.39
   0   2  -3   38.64    2.39
   0  -2   3   38.80    2.32
   0  -2  -3   37.60    2.38
   0  -2   3   37.17    2.39
   0   2   4   29.15    1.92
   0   2   4   25.90    1.64
   0   2  -4   30.57    1.94
   0  -2   4   31.22    1.84
   0  -2   4   28.01    1.93
   0  -2  -4   28.68    1.91
   0   2   5    4.65    0.56
   0   2   5    4.10    0.37
   0   2  -5    4.71    0.59
   0  -2   5    4.24    0.57
   0  -2   5    4.91    0.50
   0  -2  -5    4.96    0.58
   0   2  -6   49.26    3.22
   0  -2   6   51.78    3.24
   0   2   7    1.06    0.29
   0   2   7    0.91    0.23
   0  -2  -7    1.37    0.43
   0  -2   7    0.98    0.28
   0   2   8   22.27    1.40
   0   2   8   20.90    1.63
   0  -2   8   21.33    1.69
   0   2   9    2.06    0.33
   0   2   9    1.62    0.35
   0   3   0    0.04    0.04
   0   3   0    0.15    0.09
   0  -3   0    0.00    0.06
   0  -3   0    0.10    0.07
   0  -3   0    0.12    0.06
   0   3   1  178.80    9.92
   0   3   1  181.18    9.82
   0   3   1  163.96    9.70
   0   3  -1  182.99    9.82
   0  -3   1  184.63    9.86
   0  -3  -1  181.84    9.73
   0  -3  -1  187.59    9.92
   0  -3   1  183.47    9.83
   0  -3   1  188.03    9.87
   0   3  -2   16.33    1.10
   0   3   2   15.91    1.10
   0  -3  -2   17.44    1.17
   0  -3   2   15.32    1.10
   0  -3   2   16.92    1.17
   0   3   3   65.30    3.85
   0   3  -3   72.28    3.88
   0  -3  -3   61.63    3.87
   0  -3   3   66.35    3.83
   0   3  -4   52.45    3.15
   0   3   4   51.39    3.22
   0  -3   4   51.14    3.08
   0  -3   4   53.35    3.22
   0  -3  -4   50.10    3.16
   0   3  -5   78.31    4.44
   0   3   5   68.74    4.02
   0   3   5   79.33    4.41
   0  -3   5   74.17    4.30
   0  -3  -5   67.90    4.37
   0  -3   5   75.33    4.46
   0   3   6    6.97    0.74
   0   3  -6    7.46    0.82
   0   3   6    6.93    0.50
   0  -3  -6    7.18    0.76
   0  -3   6    5.09    0.64
   0  -3   6    6.72    0.78
   0   3   7   12.35    0.79
   0   3  -7   11.50    1.15
   0   3   7   11.15    1.04
   0  -3   7   12.26    1.13
   0  -3   7   12.02    0.98
   0  -3  -7   10.27    1.09
   0   3   8    0.26    0.22
   0   3   8    0.44    0.18
   0  -3   8    0.53    0.28
   0   4   0  319.70   17.15
   0  -4   0  330.83   17.15
   0  -4   0  298.63   17.00
   0  -4   0  318.97   17.07
   0   4  -1   50.80    2.92
   0   4   1   48.66    3.04
   0   4  -1   50.66    2.96
   0  -4  -1   47.96    3.03
   0  -4   1   52.99    3.00
   0  -4   1   52.57    2.99
   0  -4  -1   54.43    2.97
   0  -4   1   49.74    2.94
   0  -4  -1   50.17    2.85
   0   4  -2   42.91    2.39
   0   4   2   40.37    2.38
   0   4   2   37.59    2.52
   0  -4   2   40.30    2.40
   0  -4   2   41.16    2.53
   0  -4   2   37.88    2.40
   0  -4  -2   39.54    2.48
   0   4  -3   27.11    1.75
   0   4   3   25.10    1.73
   0  -4   3   27.38    1.79
   0  -4   3   30.45    1.73
   0  -4  -3   25.30    1.98
   0  -4   3   28.96    1.88
   0   4  -4  102.31    5.62
   0   4   4  101.40    5.63
   0  -4   4  102.56    5.74
   0  -4  -4   88.40    5.62
   0  -4   4   96.67    5.59
   0   4   5   19.80    1.37
   0   4  -5   16.78    1.34
   0  -4  -5   16.59    1.38
   0   4   6   32.48    2.12
   0  -4   6   32.64    2.24
   0  -4  -6   27.99    2.35
   0   4   7    0.67    0.28
   0   4  -7    0.97    0.38
   0  -4   7    1.64    0.40
   0   4   8   10.67    1.12
   0  -4   8   12.57    1.17
   0   5   0    0.20    0.12
   0  -5   0    0.18    0.11
   0  -5   0    0.00    0.11
   0   5   1   27.56    1.85
   0  -5   1   27.12    1.73
   0  -5  -1   27.03    1.88
   0  -5   1   27.71    1.83
   0  -5   1   26.96    1.79
   0  -5  -1   27.77    1.66
   0  -5   1   28.65    1.80
   0  -5  -1   28.05    1.91
   0   5  -2   18.94    1.24
   0   5   2   17.31    1.36
   0  -5   2   18.28    1.28
   0  -5   2   19.42    1.37
   0  -5  -2   17.92    1.37
   0  -5   2   18.98    1.29
   0   5   3  114.79    6.78
   0   5  -3  121.48    6.59
   0   5   3  111.36    6.72
   0  -5   3  125.39    6.66
   0  -5   3  121.58    6.58
   0  -5   3  119.93    6.76
   0  -5  -3  110.93    6.69
   0   5   4    2.73    0.39
   0   5  -4    2.66    0.40
   0  -5   4    3.39    0.40
   0  -5  -4    2.28    0.48
   0  -5   4    3.11    0.46
   0  -5   4    3.40    0.50
   0   5   5   18.24    1.34
   0   5  -5   19.69    1.39
   0  -5   5   21.06    1.53
   0  -5  -5   15.58    1.39
   0  -5   5   18.54    1.29
   0   5   6    2.35    0.46
   0  -5  -6    2.26    0.48
   0  -5   6    3.00    0.53
   0   5   7   38.17    2.49
   0  -5   7   38.47    2.69
   0  -5   8    4.27    0.72
   0   6   0   17.85    1.32
   0  -6   0   17.26    1.35
   0  -6   0   16.68    1.17
   0  -6   0   18.98    1.29
   0   6   1   17.94    1.36
   0  -6   1   17.79    1.34
   0  -6   1   17.93    1.24
   0  -6   1   17.75    1.30
   0  -6  -1   18.85    1.41
   0  -6  -1   18.08    1.28
   0  -6  -1   17.84    1.17
   0   6   2   44.42    3.00
   0  -6   2   49.15    2.91
   0  -6  -2   49.30    3.05
   0  -6  -2   46.96    2.70
   0  -6   2   48.30    2.90
   0  -6   2   50.82    3.02
   0  -6  -2   46.90    2.89
   0   6  -3   21.88    1.38
   0   6   3   20.82    1.56
   0  -6   3   20.53    1.40
   0  -6  -3   16.90    1.44
   0  -6   3   20.13    1.45
   0  -6   3   19.87    1.53
   0   6   4   50.82    2.91
   0   6   4   43.92    3.12
   0   6  -4   52.80    2.97
   0  -6   4   50.80    3.17
   0  -6   4   46.07    2.97
   0  -6  -4   46.95    3.10
   0  -6   4   51.61    3.53
   0   6  -5    1.73    0.35
   0   6   5    1.53    0.32
   0  -6   5    1.52    0.44
   0  -6   5    1.66    0.32
   0  -6  -5    1.67    0.40
   0  -6   5    1.91    0.43
   0   6   6   31.20    2.38
   0   6   6   30.97    2.11
   0   6  -6   35.39    2.23
   0  -6   6   35.05    2.11
   0  -6   6   33.62    2.39
   0   6   7    3.26    0.48
   0  -6   7    3.82    0.66
   0  -6   7    3.94    0.56
   0   7   0    0.10    0.15
   0  -7   0    0.21    0.13
   0  -7   0    0.31    0.18
   0  -7   0   -0.24    0.17
   0   7   1   15.56    1.28
   0  -7  -1   15.48    1.20
   0  -7  -1   15.51    1.10
   0  -7   1   17.49    1.32
   0  -7   1   16.40    1.26
   0  -7  -1   15.67    1.33
   0  -7   1   16.72    1.17
   0   7   2    2.02    0.46
   0  -7  -2    1.85    0.43
   0  -7  -2    2.36    0.39
   0  -7   2    2.58    0.39
   0  -7   2    1.80    0.41
   0  -7   2    2.14    0.44
   0   7   3   15.46    1.37
   0   7  -3   18.35    1.22
   0  -7  -3   17.03    1.45
   0  -7   3   15.62    1.42
   0  -7   3   16.11    1.23
   0  -7   3   19.44    1.46
   0  -7  -3   16.57    1.27
   0   7  -4    0.45    0.21
   0   7   4    0.66    0.26
   0  -7   4    0.44    0.24
   0  -7  -4    1.28    0.36
   0  -7   4    0.15    0.22
   0  -7   4    0.10    0.22
   0   7   5   67.41    4.37
   0  -7   5   73.80    4.09
   0  -7   5   68.98    4.37
   0   7   6    0.24    0.26
   0  -7   6    1.74    0.47
   0  -7   6    0.70    0.30
   0   8   0    5.03    0.59
   0  -8   0    5.22    0.56
   0  -8   0    4.99    0.63
   0  -8   0    5.41    0.77
   0   8   1    4.41    0.65
   0  -8  -1    5.83    0.57
   0  -8   1    6.26    0.69
   0  -8  -1    6.37    0.79
   0  -8   1    7.41    0.66
   0  -8   1    6.31    0.78
   0  -8  -1    5.71    0.64
   0   8   2   20.12    1.54
   0  -8  -2   19.89    1.61
   0  -8   2   19.90    1.54
   0  -8   2   19.84    1.64
   0  -8  -2   18.59    1.43
   0   8   3    3.13    0.62
   0  -8   3    2.65    0.46
   0  -8   3    3.13    0.60
   0  -8  -3    3.49    0.47
   0   8   4   26.84    2.05
   0   8  -4   29.76    1.83
   0  -8   4   27.08    1.84
   0  -8  -4   25.94    1.90
   0  -8   4   30.58    2.12
   0   8  -5    0.70    0.29
   0   8   5    0.69    0.38
   0  -8   5    0.61    0.33
   0  -8   5    0.91    0.38
   0  -9   0    0.17    0.21
   0  -9   0    0.05    0.18
   0   9   1    2.05    0.56
   0  -9   1    1.85    0.45
   0  -9  -1    1.96    0.38
   0  -9   1    2.77    0.53
   0  -9  -1    2.51    0.49
   0   9   2    0.62    0.29
   0  -9   2    0.85    0.35
   0  -9  -2    0.40    0.22
  -1   0   9    0.07    0.22
  -1   0   9   -0.05    0.24
  -1   0   7    0.11    0.14
  -1   0   7    0.38    0.26
  -1   0   6   50.41    2.88
  -1   0   6   45.40    3.07
   1   0  -6   51.48    3.18
  -1   0   5    0.92    0.29
   1   0  -5    0.72    0.27
  -1   0   4  247.26   13.55
   1   0  -4  248.42   13.58
   1   0  -3    0.32    0.14
  -1   0   3    0.18    0.09
  -1   0   2  594.98   32.33
   1   0  -2  615.70   32.35
  -1   0   1    0.04    0.04
   1   0  -1   -0.02    0.01
   1   0   1    0.13    0.06
   1   0   1    0.36    0.09
  -1   0  -1    0.33    0.09
  -1   0  -1    0.10    0.05
   1   0   2   23.25    1.37
  -1   0  -2   19.86    1.26
   1   0   2   20.92    1.27
  -1   0  -2   21.55    1.41
   1   0   3    0.88    0.23
  -1   0  -3    1.14    0.27
  -1   0  -4  101.20    5.70
   1   0   4   97.12    5.91
   1   0   5    0.18    0.11
  -1   0  -5    0.29    0.18
   1   0   5    0.14    0.13
   1   0   6   46.28    3.00
   1   0   6   49.29    2.84
   1   0   7    0.49    0.22
   1   0   7    0.81    0.23
   1   0   8    5.10    0.58
   1   0   9    0.07    0.18
  -1   1   9    8.48    0.92
  -1   1   8    3.37    0.41
  -1   1   8    2.98    0.56
  -1  -1   8    2.64    0.65
  -1   1   7   16.34    1.16
  -1   1   7   18.22    1.42
  -1  -1   7   18.79    1.44
  -1  -1   7   17.22    1.23
  -1   1   6   30.35    2.08
   1   1  -6   30.11    2.11
  -1   1   6   28.77    1.82
  -1  -1   6   31.60    1.91
   1  -1  -6   30.50    2.15
  -1  -1   6   30.14    2.10
  -1   1   5   74.17    4.51
   1   1  -5   79.73    4.56
   1  -1  -5   76.34    4.56
  -1  -1   5   75.76    4.52
  -1  -1   5   76.40    4.47
   1   1  -4   20.23    1.47
  -1   1   4   22.16    1.50
  -1  -1   4   21.43    1.50
   1  -1  -4   20.87    1.50
   1   1  -3  359.49   19.41
  -1   1   3  366.01   19.43
   1  -1  -3  355.80   19.44
  -1  -1   3  358.39   19.42
  -1   1   2   13.04    0.86
   1   1  -2   10.72    0.80
  -1  -1   2   11.22    0.81
   1  -1  -2   12.34    0.85
   1   1  -1  266.03   13.27
  -1   1   1  254.35   13.35
  -1   1   1  239.29   13.27
  -1  -1   1  266.22   13.29
   1  -1  -1  239.02   13.34
   1  -1  -1  225.06   13.26
  -1   1   0    0.03    0.04
   1   1   0    0.17    0.07
  -1   1   0    0.16    0.05
  -1   1   0    0.13    0.05
   1  -1   0    0.27    0.08
   1  -1   0    0.10    0.04
   1  -1   0    0.12    0.05
  -1  -1   0    0.14    0.07
  -1   1  -1  407.18   22.79
   1   1   1  409.32   22.77
  -1   1  -1  453.06   22.85
   1  -1   1  456.67   22.85
   1  -1   1  425.33   22.81
  -1  -1  -1  411.18   22.78
   1   1   2   67.61    3.74
   1   1   2   64.41    3.61
  -1   1  -2   67.84    3.71
  -1   1  -2   65.29    3.77
   1  -1   2   69.59    3.72
   1  -1   2   63.86    3.78
  -1  -1  -2   65.85    3.75
   1   1   3   62.70    3.93
  -1   1  -3   73.66    4.17
   1   1   3   76.49    4.13
   1  -1   3   73.22    4.17
   1  -1   3   71.53    4.05
  -1  -1  -3   73.94    4.15
  -1   1  -4   25.96    1.74
   1   1   4   22.90    1.49
   1   1   4   25.15    1.68
  -1  -1  -4   25.51    1.73
   1  -1   4   24.61    1.71
   1  -1   4   26.29    1.61
  -1   1  -5   47.49    3.17
   1   1   5   54.34    3.16
  -1  -1  -5   51.30    3.20
   1  -1   5   51.17    3.18
   1   1   6    2.81    0.46
   1   1   6    3.80    0.39
   1  -1   6    2.37    0.38
  -1  -1  -6    3.68    0.55
   1  -1   6    2.65    0.47
   1   1   7   47.75    2.98
   1   1   7   43.60    2.74
   1  -1   7   47.89    2.84
   1  -1   7   47.15    3.01
  -1  -1  -7   47.27    3.08
   1   1   8    2.58    0.42
   1   1   8    2.43    0.47
   1  -1   8    1.18    0.33
   1  -1   8    1.58    0.37
   1   1   9   18.46    1.50
   1  -1   9   19.13    1.54
  -1   2   9    2.12    0.36
  -1   2   9    1.69    0.39
  -1  -2   9    1.33    0.40
  -1   2   8   29.56    1.79
  -1   2   8   27.45    2.06
  -1  -2   8   30.37    1.94
  -1  -2   8   28.67    2.12
  -1   2   7    4.87    0.62
  -1   2   7    3.55    0.54
  -1  -2   7    4.67    0.62
  -1   2   6   42.65    2.72
  -1   2   6   50.37    3.07
   1   2  -6   50.22    3.10
   1  -2  -6   46.69    3.08
  -1  -2   6   49.09    2.90
  -1  -2   6   49.84    3.10
  -1   2   5    6.05    0.68
   1   2  -5    6.68    0.71
   1  -2  -5    5.74    0.69
  -1  -2   5    7.53    0.74
  -1  -2   5    5.80    0.57
   1   2  -4   57.76    3.38
   1  -2  -4   56.55    3.40
  -1  -2   4   56.27    3.40
  -1  -2   4   54.20    3.27
   1   2  -3    7.56    0.66
  -1   2   3    7.91    0.69
   1  -2  -3    7.58    0.69
  -1  -2   3    7.57    0.68
  -1   2   2  998.95   53.17
   1  -2  -2 1000.00   53.33
   1   2  -1  115.56    5.95
  -1   2   1  110.86    6.05
  -1   2   1  104.28    5.93
  -1  -2   1  114.12    5.99
  -1  -2   1  112.20    6.04
   1  -2  -1  107.02    6.07
   1  -2  -1  105.72    5.97
  -1   2   0   12.97    0.88
  -1   2   0   14.58    0.89
  -1   2   0   13.97    0.90
   1   2   0   15.64    0.98
   1  -2   0   15.69    0.96
   1  -2   0   12.80    0.88
  -1  -2   0   14.71    0.98
   1  -2   0   14.22    0.91
  -1   2  -1   28.05    2.13
   1   2   1   34.72    1.92
   1   2   1   32.37    2.06
  -1   2  -1   33.70    1.99
   1  -2   1   34.03    1.92
   1  -2   1   33.94    2.03
   1  -2   1   37.79    2.05
  -1  -2  -1   38.31    2.00
  -1   2  -2  145.50    8.27
  -1   2  -2  154.13    8.34
   1   2   2  157.59    8.28
   1  -2   2  143.73    8.28
   1  -2   2  155.63    8.36
  -1  -2  -2  152.76    8.29
  -1   2  -3   18.90    1.34
   1   2   3   19.80    1.29
  -1  -2  -3   18.28    1.29
   1  -2   3   18.60    1.34
   1   2   4   23.64    1.53
   1   2   4   20.84    1.28
  -1   2  -4   21.49    1.55
   1  -2   4   21.70    1.48
   1  -2   4   20.81    1.55
  -1  -2  -4   22.42    1.54
   1   2   5    0.69    0.16
   1   2   5    1.01    0.27
  -1   2  -5    0.46    0.23
   1  -2   5    0.49    0.21
   1  -2   5    0.60    0.21
  -1  -2  -5    0.41    0.19
   1   2   6   38.68    2.42
  -1   2  -6   36.08    2.70
   1   2   6   47.49    2.74
  -1  -2  -6   43.29    2.79
   1  -2   6   40.63    2.58
   1  -2   6   46.50    2.81
   1   2   7   10.77    0.89
   1   2   7   10.78    0.99
  -1   2  -7   11.83    1.11
   1  -2   7   10.38    1.01
  -1  -2  -7   10.53    1.08
   1   2   8   28.64    2.02
   1   2   8   29.59    1.79
   1  -2   8   27.88    2.07
   1   2   9    0.74    0.30
   1  -2   9    0.58    0.30
  -1   3   9   15.22    0.99
  -1   3   9   13.33    1.24
  -1  -3   9   14.88    1.35
  -1   3   8    5.42    0.74
  -1   3   8    5.31    0.67
  -1  -3   8    5.76    0.76
  -1   3   7    6.35    0.73
  -1   3   7    6.03    0.48
  -1  -3   7    5.27    0.62
   1  -3  -7    6.01    0.76
  -1  -3   7    6.02    0.74
   1   3  -6    0.94    0.33
  -1   3   6    1.13    0.18
  -1   3   6    1.69    0.38
  -1  -3   6    1.49    0.39
   1  -3  -6    1.24    0.38
  -1  -3   6    0.67    0.24
  -1   3   5  106.62    6.32
   1   3  -5  117.84    6.33
   1  -3  -5  103.35    6.32
  -1  -3   5  110.12    6.37
  -1  -3   5  111.80    6.21
  -1   3   4   25.06    1.63
   1   3  -4   30.73    1.87
  -1   3   4   29.87    1.92
   1  -3  -4   24.61    1.85
  -1  -3   4   29.66    1.82
  -1  -3   4   29.03    1.92
  -1   3   3   89.87    5.30
  -1   3   3   96.15    5.56
   1  -3  -3   97.77    5.58
  -1  -3   3   95.92    5.48
  -1  -3   3  109.43    5.60
  -1   3   2   14.93    1.09
   1   3  -2   17.27    1.03
  -1   3   2   15.30    0.93
  -1  -3   2   16.27    1.07
  -1  -3   2   15.96    1.10
   1  -3  -2   14.68    0.94
  -1  -3   2   15.33    1.05
   1  -3  -2   14.76    1.12
   1   3  -1  166.93    8.86
  -1   3   1  149.56    8.83
  -1   3   1  169.87    8.97
  -1  -3   1  166.93    9.00
   1  -3  -1  168.29    8.94
  -1  -3   1  165.57    8.91
   1  -3  -1  171.44    9.05
  -1  -3   1  152.70    8.88
   1  -3  -1  165.91    8.87
  -1   3   0   47.39    2.68
  -1   3   0   45.28    2.64
  -1   3   0   48.28    2.69
   1   3   0   47.39    2.77
   1  -3   0   51.07    2.76
   1  -3   0   42.07    2.74
  -1  -3   0   47.07    2.78
  -1  -3   0   47.94    2.67
   1  -3   0   44.74    2.68
  -1  -3   0   43.63    2.59
  -1  -3   0   47.63    2.63
   1   3   1  240.15   12.99
  -1   3  -1  228.75   12.88
  -1   3  -1  229.53   12.89
   1  -3   1  249.04   12.95
   1  -3   1  250.38   12.84
   1  -3   1  244.58   12.90
  -1  -3  -1  227.63   12.92
  -1   3  -2    1.51    0.25
   1   3   2    1.49    0.21
  -1   3  -2    1.26    0.25
   1  -3   2    1.47    0.21
   1  -3   2    1.82    0.32
   1  -3   2    1.39    0.33
  -1  -3  -2    1.49    0.23
   1   3   3   46.03    2.65
  -1   3  -3   44.18    2.71
   1  -3   3   45.68    2.76
   1  -3   3   42.04    2.71
  -1  -3  -3   43.62    2.68
  -1   3  -4    9.82    0.88
   1   3   4   10.27    0.86
  -1  -3  -4   10.24    0.87
   1  -3   4    9.35    0.83
   1  -3   4   10.88    0.93
  -1   3  -5   78.99    4.68
   1   3   5   82.78    4.60
  -1  -3  -5   74.54    4.61
   1  -3   5   76.80    4.54
   1  -3   5   78.11    4.70
   1   3   6   22.18    1.26
   1   3   6   21.51    1.54
   1  -3   6   19.61    1.61
  -1  -3  -6   19.91    1.58
   1   3   7   18.20    1.37
  -1   3  -7   15.93    1.59
   1   3   7   17.55    1.10
   1  -3   7   16.85    1.79
   1  -3   7   18.01    1.33
  -1  -3  -7   18.43    1.49
   1   3   8    0.56    0.24
   1   3   8    0.49    0.18
   1  -3   8    0.52    0.26
  -1   4   8   14.67    1.41
  -1  -4   8   18.28    1.49
  -1   4   7    8.28    0.84
   1   4  -7    7.87    0.92
  -1  -4   7    5.68    0.91
   1   4  -6   38.20    2.39
  -1   4   6   35.43    2.38
   1  -4  -6   31.24    2.45
  -1  -4   6   36.46    2.47
  -1   4   5   10.39    0.98
   1   4  -5   13.05    1.00
   1  -4  -5   10.98    1.02
  -1  -4   5   10.60    1.01
   1   4  -4   99.67    5.54
  -1   4   4   97.38    5.55
  -1  -4   4   94.46    5.46
   1  -4  -4   86.24    5.53
  -1  -4   4  102.67    5.61
   1   4  -3   32.04    1.90
   1  -4  -3   29.18    2.02
  -1  -4   3   31.96    2.04
  -1  -4   3   30.62    1.92
  -1  -4   3   29.76    1.94
  -1   4   2   68.17    3.84
  -1   4   2   63.33    3.64
   1   4  -2   70.26    3.76
  -1  -4   2   66.91    3.86
  -1  -4   2   67.76    3.85
   1  -4  -2   65.68    3.93
   1  -4  -2   64.18    3.68
  -1  -4   2   64.86    3.80
  -1   4   1   20.93    1.44
   1   4  -1   21.36    1.43
  -1   4   1   20.90    1.30
   1  -4  -1   19.81    1.38
  -1  -4   1   22.38    1.39
  -1  -4   1   22.61    1.48
  -1  -4   1   20.93    1.35
   1  -4  -1   23.87    1.54
   1   4   0  204.35   10.98
  -1   4   0  199.70   10.89
  -1   4   0  193.35   10.81
   1  -4   0  205.38   10.97
  -1  -4   0  182.03   10.78
   1  -4   0  190.91   10.82
  -1  -4   0  205.92   11.00
  -1  -4   0  205.80   10.90
   1  -4   0  200.62   10.89
  -1  -4   0  210.87   10.84
  -1   4  -1   79.83    4.44
  -1   4  -1   80.61    4.44
   1   4   1   79.04    4.57
  -1  -4  -1   76.32    4.48
   1  -4   1   82.67    4.51
   1  -4   1   78.23    4.41
   1  -4   1   77.18    4.44
  -1  -4  -1   75.62    4.28
  -1   4  -2   49.09    2.90
   1   4   2   47.20    3.01
   1   4   2   44.65    2.77
  -1  -4  -2   47.42    2.92
   1  -4   2   49.80    2.92
   1  -4   2   53.88    3.03
   1  -4   2   50.91    2.83
   1   4   3    1.44    0.25
  -1   4  -3    2.01    0.33
   1  -4   3    1.46    0.31
   1  -4   3    2.21    0.28
   1  -4   3    1.73    0.41
  -1  -4  -3    1.14    0.27
   1   4   4   63.58    4.21
  -1   4  -4   70.57    4.01
  -1  -4  -4   63.67    3.98
   1  -4   4   68.93    4.09
   1  -4   4   69.38    3.98
   1   4   5   14.16    1.08
  -1   4  -5   14.53    1.17
  -1  -4  -5   12.98    1.12
   1  -4   5   13.56    1.20
   1   4   6   41.08    2.43
   1  -4   6   40.30    2.60
   1  -4   6   28.40    2.62
   1   4   7    8.90    0.84
   1  -4   7    8.14    0.93
   1   4   8    8.60    0.87
   1  -4   8    9.82    1.03
  -1   5   8    0.20    0.22
  -1  -5   8    0.11    0.26
  -1   5   7   46.15    3.05
   1   5  -7   49.11    3.08
  -1  -5   7   48.89    3.22
  -1   5   6   15.63    1.23
   1   5  -6   17.11    1.22
   1  -5  -6   11.37    1.21
  -1  -5   6   14.64    1.24
  -1  -5   6   14.44    1.30
   1   5  -5   11.61    0.91
  -1   5   5    9.97    0.93
   1  -5  -5    9.10    0.96
  -1  -5   5   10.02    0.84
  -1  -5   5   11.68    1.04
  -1  -5   5    9.96    0.92
   1   5  -4    6.84    0.64
  -1   5   4    6.49    0.67
  -1  -5   4    8.03    0.78
  -1  -5   4    6.92    0.68
  -1  -5   4    7.62    0.99
   1  -5  -4    6.00    0.72
  -1   5   3   88.98    4.97
   1   5  -3   90.51    4.89
   1  -5  -3   77.65    5.04
  -1  -5   3   87.24    5.08
  -1  -5   3   87.67    4.98
  -1  -5   3   89.02    4.98
  -1   5   2    0.87    0.23
   1   5  -2    0.72    0.18
  -1   5   2    0.71    0.14
  -1   5   2    1.00    0.27
   1  -5  -2    0.76    0.28
   1  -5  -2    1.09    0.21
  -1  -5   2    0.84    0.26
  -1  -5   2    0.80    0.26
   1  -5  -2    1.36    0.24
  -1  -5   2    0.94    0.25
  -1   5   1   31.54    1.88
   1  -5  -1   32.55    2.01
   1  -5  -1   32.68    1.94
  -1  -5   1   32.74    2.09
  -1  -5   1   32.92    2.01
   1  -5  -1   29.76    2.12
  -1  -5   1   31.75    1.95
   1   5   0   12.88    1.06
  -1   5   0   13.42    1.01
  -1   5   0   13.57    0.95
   1  -5   0   13.96    1.02
  -1  -5   0   13.41    0.97
  -1  -5   0   13.64    1.03
  -1  -5   0   13.55    0.91
   1  -5   0   14.00    0.96
   1  -5   0   14.06    1.09
  -1   5  -1   73.36    4.01
   1   5   1   65.85    4.12
  -1  -5  -1   75.21    4.01
  -1  -5  -1   66.94    3.85
   1  -5   1   71.04    4.08
  -1  -5  -1   68.19    4.08
   1  -5   1   71.35    4.11
   1  -5   1   66.33    3.99
   1   5   2   12.18    1.06
  -1   5  -2   13.10    0.99
   1  -5   2   13.58    1.06
  -1  -5  -2    9.76    1.20
   1  -5   2   13.02    0.91
   1  -5   2   13.03    0.99
  -1   5  -3  160.11    8.48
   1   5   3  147.76    8.63
   1   5   3  147.17    8.33
   1  -5   3  157.71    8.52
   1  -5   3  157.34    8.63
  -1  -5  -3  137.32    8.48
   1  -5   3  160.73    8.37
  -1   5  -4    7.47    0.70
   1   5   4    6.19    0.59
   1   5   4    4.94    0.72
   1  -5   4    6.45    0.69
  -1  -5  -4    6.02    0.65
   1  -5   4    7.09    0.58
   1  -5   4    6.69    0.75
   1   5   5   16.04    1.14
   1  -5   5   16.54    1.35
   1  -5   5   15.05    1.08
  -1  -5  -5   15.85    1.29
  -1   5  -6    1.77    0.44
   1   5   6    1.61    0.33
  -1  -5  -6    1.78    0.42
   1   5   7   24.82    1.76
   1  -5   7   28.48    2.05
  -1   6   7    1.53    0.37
  -1  -6   7    2.21    0.51
  -1   6   6   32.70    2.25
  -1  -6   6   37.39    2.50
  -1  -6   6   34.30    2.20
  -1   6   5    3.93    0.52
   1   6  -5    5.43    0.56
   1  -6  -5    3.08    0.58
  -1  -6   5    5.14    0.60
   1   6  -4   23.60    1.51
  -1   6   4   19.84    1.67
  -1   6   4   22.86    1.55
  -1  -6   4   23.09    1.59
   1  -6  -4   22.43    1.70
  -1  -6   4   22.85    1.57
  -1  -6   4   22.56    1.70
  -1   6   3    4.80    0.63
   1   6  -3    5.36    0.60
   1  -6  -3    4.20    0.62
  -1  -6   3    5.98    0.59
  -1  -6   3    4.41    0.58
  -1  -6   3    4.98    0.63
  -1   6   2   30.61    2.10
  -1  -6   2   30.66    2.05
   1  -6  -2   29.94    1.88
  -1  -6   2   31.01    2.04
   1  -6  -2   32.34    2.03
  -1  -6   2   31.66    1.98
   1  -6  -2   30.75    2.15
  -1   6   1   27.28    1.90
  -1  -6   1   28.45    1.86
  -1  -6   1   28.20    1.93
   1  -6  -1   29.70    1.79
   1  -6  -1   26.25    1.97
   1  -6  -1   30.34    1.89
  -1  -6   1   27.46    2.09
  -1  -6   1   29.65    1.91
   1   6   0   33.61    2.30
  -1   6   0   35.00    2.24
   1  -6   0   35.85    2.36
  -1  -6   0   34.12    2.10
  -1  -6   0   37.16    2.31
   1  -6   0   35.81    2.17
  -1  -6   0   36.02    2.21
   1  -6   0   36.57    2.27
   1   6   1   10.42    0.98
  -1  -6  -1   10.78    0.87
   1  -6   1   11.68    0.99
   1  -6   1   10.69    0.88
  -1  -6  -1   11.28    0.77
   1  -6   1   12.21    0.96
  -1  -6  -1   11.22    0.99
  -1   6  -2  103.48    5.53
   1   6   2   94.27    5.68
   1  -6   2   94.57    5.62
   1  -6   2   99.64    5.67
   1  -6   2   97.73    5.48
   1  -6   2   94.46    5.54
  -1  -6  -2   98.36    5.65
  -1   6  -3   10.59    0.87
   1   6   3    8.48    0.93
   1  -6   3    9.92    0.91
   1  -6   3   11.77    0.83
   1  -6   3   10.98    1.01
  -1  -6  -3   10.67    0.95
   1   6   4   39.22    2.75
  -1   6  -4   42.60    2.59
   1  -6   4   42.31    2.47
   1  -6   4   42.01    2.75
  -1  -6  -4   38.11    2.63
   1  -6   4   43.45    2.66
   1   6   5    0.88    0.21
  -1  -6  -5    1.18    0.34
   1  -6   5    0.97    0.25
   1  -6   5    1.32    0.44
   1   6   6   24.32    1.95
   1   6   6   23.27    1.60
   1  -6   6   24.39    1.91
   1  -6   6   27.59    1.62
   1   6   7    7.97    0.70
   1   6   7    8.23    0.98
   1  -6   7    7.23    0.89
   1  -6   7    7.52    0.70
  -1   7   6    0.52    0.31
  -1   7   6    0.32    0.21
   1   7  -6    1.24    0.31
  -1  -7   6    0.88    0.37
  -1  -7   6    0.61    0.29
   1   7  -5   52.05    2.95
  -1   7   5   42.86    3.16
  -1   7   5   47.38    2.94
  -1  -7   5   49.73    3.24
  -1  -7   5   51.63    3.01
  -1   7   4    0.50    0.33
   1   7  -4    0.93    0.24
  -1  -7   4    1.04    0.31
   1  -7  -4    0.73    0.26
   1  -7  -4    1.21    0.35
  -1  -7   4    0.66    0.26
  -1  -7   4    1.79    0.41
  -1   7   3    1.55    0.41
   1  -7  -3    2.52    0.41
  -1  -7   3    2.41    0.52
   1  -7  -3    1.66    0.48
  -1  -7   3    2.81    0.45
  -1  -7   3    1.78    0.38
  -1   7   2    0.35    0.21
  -1  -7   2    0.32    0.19
  -1  -7   2    0.39    0.20
   1  -7  -2    0.14    0.23
  -1  -7   2    0.34    0.20
  -1  -7   2    0.21    0.18
   1  -7  -2    0.16    0.19
   1  -7  -2    0.44    0.18
  -1   7   1   14.96    1.20
   1  -7  -1   15.70    1.17
  -1  -7   1   14.56    1.07
  -1  -7   1   14.35    1.17
   1  -7  -1   14.25    1.30
   1  -7  -1   15.36    1.09
  -1  -7   1   15.34    1.17
   1   7   0    3.14    0.47
  -1   7   0    3.49    0.44
  -1  -7   0    2.95    0.55
   1  -7   0    3.37    0.43
  -1  -7   0    2.60    0.41
   1  -7   0    3.51    0.57
   1  -7   0    2.92    0.45
  -1  -7   0    3.22    0.39
   1   7   1   65.09    4.10
   1  -7   1   67.66    4.13
   1  -7   1   66.56    4.07
  -1  -7  -1   70.82    4.00
   1  -7   1   67.17    3.96
  -1  -7  -1   68.88    3.84
  -1  -7  -1   69.91    4.14
   1   7   2    0.34    0.18
   1  -7   2    0.38    0.21
  -1  -7  -2    0.95    0.31
   1  -7   2    0.23    0.19
  -1  -7  -2    0.38    0.21
   1  -7   2    0.42    0.22
  -1   7  -3   38.70    2.24
   1   7   3   31.65    2.38
   1  -7   3   35.17    2.34
  -1  -7  -3   32.66    2.31
   1  -7   3   35.57    2.29
   1  -7   3   37.62    2.46
  -1   7  -4    0.24    0.25
   1   7   4    0.59    0.33
   1  -7   4    0.51    0.25
   1  -7   4   -0.18    0.38
  -1  -7  -4    0.23    0.25
   1   7   5   50.88    3.40
  -1   7  -5   53.75    3.19
   1  -7   5   52.29    3.04
   1  -7   5   50.70    3.38
   1   7   6    0.38    0.31
   1  -7   6    1.20    0.30
  -1   8   5    1.21    0.42
   1   8  -5    1.18    0.29
  -1  -8   5    2.30    0.51
  -1  -8   5    1.63    0.39
   1  -8  -5    1.16    0.31
  -1   8   4   11.25    1.13
  -1  -8   4   12.94    1.19
   1  -8  -4   10.90    1.00
  -1  -8   4   11.47    1.01
  -1   8   3    7.06    0.79
   1  -8  -3    5.89    0.78
  -1  -8   3    6.29    0.78
  -1  -8   3    5.61    0.69
  -1  -8   3    7.19    0.74
  -1   8   2   10.81    1.02
   1  -8  -2   11.08    0.99
   1  -8  -2    9.87    1.63
  -1  -8   2   11.79    0.94
  -1  -8   2   10.77    1.03
  -1  -8   2   11.47    1.05
   1  -8  -2   11.99    0.85
  -1   8   1   11.15    1.00
   1  -8  -1   10.15    0.89
   1  -8  -1   12.52    1.02
  -1  -8   1   10.49    1.03
  -1  -8   1   12.34    0.91
   1  -8  -1   10.60    1.10
  -1  -8   1   11.52    1.00
   1   8   0   13.23    1.13
  -1   8   0   12.06    1.06
  -1  -8   0   13.78    1.12
   1  -8   0   13.17    1.27
   1  -8   0   13.45    1.13
  -1  -8   0   14.54    1.23
   1  -8   0   13.89    1.05
  -1  -8   0   13.45    0.99
   1   8   1    6.48    0.74
  -1  -8  -1    6.15    0.65
  -1  -8  -1    5.20    0.75
   1  -8   1    4.09    1.03
  -1  -8  -1    6.12    0.54
   1  -8   1    6.23    0.63
   1  -8   1    6.09    0.74
   1   8   2   41.98    2.95
  -1  -8  -2   47.80    2.99
   1  -8   2   47.26    2.84
  -1  -8  -2   48.87    2.87
   1  -8   2   41.92    3.41
   1   8   3    3.22    0.62
   1  -8   3    3.39    0.60
  -1  -8  -3    2.62    0.46
  -1   8  -4   29.13    1.87
   1   8   4   27.58    2.08
   1  -8   4   26.66    2.06
  -1  -8  -4   28.44    2.03
  -1   9   3   13.04    1.13
   1  -9  -3   10.77    1.01
  -1  -9   3   10.25    1.09
  -1  -9   2    0.36    0.24
   1  -9  -2    0.22    0.19
   1  -9  -2   -0.07    0.16
  -1  -9   2    0.29    0.28
  -1   9   1    3.54    0.61
  -1  -9   1    3.85    0.59
  -1  -9   1    3.67    0.52
   1  -9  -1    3.59    0.53
   1  -9  -1    3.14    0.58
   1  -9   0    0.04    0.24
  -1  -9   0    0.47    0.20
  -1  -9   0   -0.19    0.26
   1  -9   0    0.41    0.25
   1   9   1   19.52    1.55
  -1  -9  -1   20.08    1.32
   1  -9   1   19.90    1.58
  -1  -9  -1   18.93    1.69
   1  -9   1   22.14    1.49
   1   9   2    3.13    0.62
  -1  -9  -2    3.67    0.52
   1  -9   2    2.26    0.50
  -2   0   9    0.53    0.29
  -2   0   8   20.05    1.61
   2   0  -8   20.95    1.73
  -2   0   8   21.00    1.41
  -2   0   7    1.29    0.36
   2   0  -7    0.29    0.30
  -2   0   7    0.79    0.23
   2   0  -6   52.07    3.19
  -2   0   6   46.16    3.08
   2   0  -5    0.36    0.17
  -2   0   5    0.77    0.24
  -2   0   4  468.93   25.40
   2   0  -4  473.51   25.44
   2   0  -3    0.10    0.09
  -2   0   3    0.27    0.14
  -2   0   2   26.77    1.65
   2   0  -2   28.08    1.67
  -2   0   1    0.52    0.11
   2   0  -1    0.52    0.11
  -2   0   0  139.12    6.90
  -2   0   0  134.88    6.88
  -2   0   0  121.83    6.87
   2   0   0  129.82    6.94
  -2   0   0  135.52    6.94
   2   0   0  127.19    6.89
   2   0   0  116.66    6.87
   2   0   0  119.50    6.85
   2   0   1   -0.01    0.06
  -2   0  -1    0.09    0.08
   2   0   1    0.05    0.05
  -2   0  -1    0.06    0.06
  -2   0  -2    8.60    0.67
  -2   0  -2    7.82    0.59
   2   0   2    9.12    0.66
   2   0   2    8.29    0.60
   2   0   3    0.19    0.12
  -2   0  -3    0.20    0.12
  -2   0  -3    0.23    0.09
   2   0   3    0.10    0.11
  -2   0  -4  177.62   10.77
   2   0   4  183.26   10.35
   2   0   4  209.81   10.56
   2   0   5    0.64    0.17
  -2   0  -5    0.82    0.28
   2   0   5    0.75    0.25
  -2   0  -6   95.81    5.49
   2   0   6   95.99    5.23
   2   0   6   85.34    5.35
   2   0   7   -0.01    0.19
   2   0   7   -0.34    0.15
  -2   0  -7    0.17    0.25
   2   0   8   16.05    1.31
  -2   1   9    9.64    1.00
  -2  -1   9    9.11    0.98
   2   1  -8    0.95    0.37
  -2   1   8    1.69    0.42
  -2   1   8    2.28    0.37
  -2  -1   8    1.40    0.47
   2   1  -7   55.43    3.93
  -2   1   7   64.23    3.96
  -2  -1   7   70.28    3.77
  -2  -1   7   66.10    3.99
   2   1  -6   17.23    1.36
  -2   1   6   16.31    1.31
   2  -1  -6   15.93    1.36
  -2  -1   6   16.03    1.32
   2   1  -5  171.07    9.27
  -2   1   5  161.98    9.24
  -2  -1   5  164.43    9.24
   2  -1  -5  163.24    9.28
  -2   1   4   47.98    2.88
   2   1  -4   47.40    2.86
   2  -1  -4   45.97    2.89
  -2  -1   4   45.45    2.85
  -2   1   3  252.97   13.23
   2   1  -3  229.49   13.16
   2  -1  -3  245.93   13.23
  -2   1   2   20.32    1.23
   2   1  -2   16.89    1.12
   2  -1  -2   17.14    1.32
  -2  -1   2   18.41    1.15
  -2   1   1  345.37   17.52
  -2   1   1  340.97   17.49
   2  -1  -1  291.92   17.43
  -2  -1   1  320.26   17.38
   2  -1  -1  339.79   17.51
   2  -1  -1  318.63   17.46
  -2   1   0    0.45    0.11
  -2   1   0    0.47    0.16
   2   1   0    0.39    0.12
  -2   1   0    0.41    0.12
  -2  -1   0    0.44    0.15
   2  -1   0    0.53    0.12
   2  -1   0    0.39    0.11
   2  -1   0    0.33    0.12
   2   1   1   18.60    0.98
  -2   1  -1   16.06    1.06
   2   1   1   15.64    1.00
  -2   1  -1   16.30    1.09
   2   1   1   15.68    1.09
   2  -1   1   19.90    1.12
  -2  -1  -1   17.24    1.02
  -2  -1  -1   16.27    0.99
   2  -1   1   16.38    1.06
  -2   1  -2   22.11    1.33
   2   1   2   20.54    1.23
   2   1   2   21.90    1.32
  -2   1  -2   19.98    1.38
   2  -1   2   20.61    1.38
   2  -1   2   22.17    1.34
  -2  -1  -2   20.59    1.23
  -2   1  -3  116.11    6.58
   2   1   3  108.56    6.36
  -2   1  -3  112.79    6.46
  -2  -1  -3  125.70    6.57
   2  -1   3  126.00    6.60
   2  -1   3  113.64    6.47
   2   1   4   42.44    2.47
  -2   1  -4   42.25    2.69
   2   1   4   39.82    2.60
   2  -1   4   41.61    2.67
  -2  -1  -4   46.32    2.71
   2  -1   4   44.01    2.58
  -2   1  -5   80.43    4.75
   2   1   5   74.26    4.45
   2   1   5   84.55    4.66
   2  -1   5   81.47    4.71
  -2  -1  -5   81.50    4.74
   2  -1   5   75.74    4.54
   2   1   6    3.71    0.48
   2   1   6    2.10    0.54
   2  -1   6    3.35    0.44
  -2  -1  -6    3.28    0.56
   2  -1   6    3.06    0.48
   2   1   7   44.29    2.92
   2   1   7   49.90    2.77
   2  -1   7   44.50    2.82
   2  -1   7   44.31    2.96
  -2  -1  -7   49.61    3.09
   2   1   8    0.16    0.22
   2   1   8   -0.13    0.23
   2  -1   8   -0.26    0.26
   2  -1   8    0.45    0.23
  -2   2   9    3.33    0.58
  -2   2   9    4.21    0.47
  -2  -2   9    2.57    0.55
  -2   2   8   33.33    2.45
   2   2  -8   38.68    2.57
  -2   2   8   34.16    2.14
  -2  -2   8   35.70    2.49
  -2  -2   8   38.04    2.30
  -2   2   7    0.91    0.32
   2   2  -7    0.53    0.29
  -2  -2   7    1.15    0.33
  -2  -2   7    0.15    0.15
  -2   2   6   64.10    3.78
   2   2  -6   61.77    3.74
  -2  -2   6   55.69    3.55
  -2  -2   6   61.53    3.76
   2   2  -5    7.95    0.78
  -2   2   5    8.97    0.84
  -2  -2   5    8.83    0.84
   2  -2  -5    8.68    0.84
   2   2  -4  108.60    6.09
  -2   2   4  121.23    6.22
  -2  -2   4   98.04    6.25
   2  -2  -4  103.41    6.15
   2   2  -3    7.82    0.62
  -2   2   3    7.47    0.68
  -2   2   3    6.52    0.53
   2  -2  -3    6.27    0.64
  -2  -2   3    7.30    0.63
  -2   2   2  412.62   23.06
   2   2  -2  445.78   23.03
  -2   2   2  422.07   23.18
   2  -2  -2  406.70   23.16
  -2  -2   2  467.04   23.10
  -2   2   1   60.29    3.49
  -2   2   1   60.69    3.41
  -2  -2   1   66.49    3.36
   2  -2  -1   59.47    3.50
  -2  -2   1   58.36    3.68
   2  -2  -1   61.67    3.44
   2  -2  -1   60.05    3.45
  -2   2   0    2.41    0.27
  -2   2   0    2.36    0.27
   2   2   0    2.67    0.32
  -2   2   0    2.31    0.21
  -2  -2   0    2.03    0.32
   2  -2   0    3.31    0.31
   2  -2   0    2.56    0.32
   2  -2   0    2.51    0.27
  -2   2  -1   32.62    1.99
  -2   2  -1   33.25    1.96
   2  -2   1   33.52    1.97
  -2  -2  -1   33.45    1.89
   2  -2   1   32.42    2.00
  -2   2  -2  132.68    7.74
  -2   2  -2  138.36    7.82
   2   2   2  142.08    7.68
   2  -2   2  141.97    7.77
   2  -2   2  151.39    7.85
  -2  -2  -2  141.25    7.73
   2   2   3   19.73    1.18
   2   2   3   14.40    0.98
  -2   2  -3   15.95    1.23
  -2  -2  -3   18.69    1.21
   2  -2   3   15.71    1.17
   2  -2   3   18.07    1.47
   2   2   4  110.63    5.93
  -2   2  -4  106.62    6.04
   2   2   4  100.71    5.69
   2  -2   4  102.00    6.01
  -2  -2  -4  100.38    6.23
   2  -2   4  107.33    5.92
   2   2   5   11.97    0.85
  -2   2  -5   12.15    1.10
   2   2   5   15.16    1.08
   2  -2   5   10.32    0.95
  -2  -2  -5   14.11    1.11
   2  -2   5   13.50    1.12
   2   2   6   43.14    2.56
   2   2   6   48.55    2.82
   2  -2   6   44.43    2.87
   2  -2   6   39.79    2.70
  -2  -2  -6   45.42    2.89
   2   2   7    0.83    0.34
   2   2   7    0.92    0.25
   2  -2   7    0.95    0.29
  -2  -2  -7    0.69    0.37
   2  -2   7    0.63    0.39
   2   2   8   33.55    2.33
   2   2   8   38.42    2.15
   2  -2   8   33.34    2.41
  -2   3   9   18.90    1.21
  -2   3   9   17.88    1.50
  -2  -3   9   18.74    1.58
  -2   3   8   19.51    1.25
  -2  -3   8   20.37    1.63
  -2   3   7   15.09    1.26
  -2   3   7   13.89    0.93
  -2  -3   7   12.38    1.37
  -2  -3   7   15.69    1.31
   2   3  -6   10.98    0.96
  -2   3   6    8.99    0.93
  -2  -3   6   10.76    0.98
  -2  -3   6    7.84    0.78
   2   3  -5  171.41    8.84
  -2   3   5  159.30    8.91
  -2   3   5  159.35    8.60
  -2  -3   5  153.57    8.73
   2  -3  -5  140.66    8.85
  -2  -3   5  162.01    8.90
  -2   3   4    0.15    0.11
  -2   3   4    0.35    0.17
   2   3  -4    0.22    0.15
  -2  -3   4    0.26    0.18
   2  -3  -4    0.59    0.24
  -2   3   3   74.04    4.41
  -2   3   3   72.23    4.21
   2   3  -3   82.05    4.27
  -2  -3   3   79.21    4.37
   2  -3  -3   70.85    4.40
  -2   3   2   33.87    2.20
  -2   3   2   36.28    2.06
   2   3  -2   36.97    2.04
   2  -3  -2   33.04    2.22
  -2  -3   2   36.49    2.15
  -2  -3   2   37.17    2.18
   2  -3  -2   34.78    2.07
  -2   3   1  163.39    9.44
   2   3  -1  179.43    9.58
  -2   3   1  175.56    9.57
  -2  -3   1  174.97    9.61
   2  -3  -1  170.61    9.52
   2  -3  -1  184.63    9.65
  -2   3   0   47.72    2.76
  -2   3   0   47.81    2.71
  -2   3   0   46.34    2.78
   2   3   0   48.49    2.87
   2  -3   0   48.50    2.81
   2  -3   0   49.72    2.86
  -2  -3   0   48.65    2.91
   2  -3   0   46.57    2.76
   2   3   1  146.39    7.94
  -2   3  -1  136.38    7.84
  -2   3  -1  141.89    7.83
   2  -3   1  151.17    7.90
  -2  -3  -1  139.43    7.77
   2  -3   1  140.78    7.83
  -2   3  -2   40.92    2.46
   2   3   2   37.87    2.26
   2   3   2   41.19    2.71
  -2   3  -2   40.55    2.44
  -2  -3  -2   40.41    2.39
   2  -3   2   39.23    2.56
   2  -3   2   40.35    2.26
   2  -3   2   42.47    2.46
  -2   3  -3   66.70    4.12
  -2   3  -3   67.64    4.05
   2   3   3   74.25    3.98
   2  -3   3   73.17    4.17
   2  -3   3   68.53    4.08
  -2  -3  -3   70.97    4.06
   2   3   4    3.13    0.39
  -2   3  -4    2.71    0.43
  -2  -3  -4    2.31    0.39
   2  -3   4    3.25    0.47
   2  -3   4    2.45    0.40
   2   3   5   78.45    4.29
  -2   3  -5   71.45    4.41
   2  -3   5   72.36    4.29
   2  -3   5   71.14    4.41
  -2  -3  -5   71.41    4.35
   2   3   6    7.40    0.53
   2   3   6    7.51    0.74
  -2  -3  -6    6.68    0.77
   2  -3   6    7.82    0.83
   2   3   7   24.42    1.42
   2   3   7   23.62    1.66
   2  -3   7   22.07    1.75
   2   3   8    0.71    0.21
   2   3   8    0.58    0.25
   2  -3   8    0.39    0.28
  -2   4   8   16.52    1.03
  -2   4   8   16.81    1.11
  -2   4   8   14.69    1.37
  -2  -4   8   18.90    1.51
  -2   4   7    3.69    0.32
  -2   4   7    3.02    0.56
  -2   4   7    3.23    0.39
  -2  -4   7    4.77    0.65
  -2   4   6   25.73    1.83
  -2   4   6   23.92    1.51
   2   4  -6   24.88    1.74
  -2  -4   6   24.58    1.84
   2  -4  -6   23.67    1.91
   2   4  -5    1.42    0.31
  -2   4   5    1.99    0.27
  -2   4   5    2.18    0.48
   2  -4  -5    1.69    0.40
  -2  -4   5    2.21    0.43
  -2   4   4  107.67    6.29
  -2   4   4  102.61    5.96
   2   4  -4  124.20    6.15
  -2  -4   4  119.21    6.31
   2  -4  -4   99.21    6.28
  -2  -4   4  104.18    6.15
  -2   4   3   59.66    3.55
   2   4  -3   66.32    3.40
  -2   4   3   56.91    3.29
  -2  -4   3   58.26    3.65
  -2  -4   3   60.54    3.48
   2  -4  -3   54.20    3.56
  -2  -4   3   57.93    3.45
  -2   4   2   49.09    2.76
   2   4  -2   50.82    2.85
  -2   4   2   43.87    3.11
   2  -4  -2   47.24    2.83
  -2  -4   2   49.79    2.86
  -2  -4   2   49.05    2.89
   2  -4  -2   47.08    3.02
   2  -4  -2   52.16    2.93
  -2  -4   2   49.21    2.95
  -2   4   1   33.34    2.05
   2   4  -1   32.62    2.07
  -2   4   1   30.21    2.00
  -2   4   1   32.15    1.93
  -2  -4   1   32.52    1.94
   2  -4  -1   31.49    2.01
  -2  -4   1   32.56    2.11
   2  -4  -1   34.96    1.99
   2  -4  -1   35.50    2.17
  -2  -4   1   31.02    1.93
   2   4   0  192.29   10.53
  -2   4   0  185.42   10.36
  -2   4   0  188.58   10.37
  -2   4   0  196.31   10.43
   2  -4   0  185.21   10.38
  -2  -4   0  176.56   10.30
  -2  -4   0  196.99   10.38
   2  -4   0  192.71   10.47
   2  -4   0  196.17   10.53
  -2  -4   0  195.46   10.58
  -2  -4   0  193.97   10.32
  -2   4  -1   20.47    1.34
   2   4   1   18.18    1.41
  -2   4  -1   18.80    1.33
   2  -4   1   21.25    1.36
  -2  -4  -1   21.92    1.34
   2  -4   1   19.56    1.39
  -2  -4  -1   18.80    1.14
   2  -4   1   21.73    1.41
  -2   4  -2   34.24    2.09
   2   4   2   32.98    2.19
   2  -4   2   35.00    1.94
   2  -4   2   31.96    2.09
  -2  -4  -2   31.89    2.05
   2  -4   2   34.25    2.18
   2   4   3   12.00    0.80
  -2   4  -3   12.32    0.97
   2   4   3   12.68    1.06
   2  -4   3   11.65    0.81
   2  -4   3   11.31    1.00
  -2  -4  -3   11.00    0.92
   2  -4   3   11.77    0.96
   2   4   4   70.46    4.03
   2   4   4   69.36    4.31
  -2   4  -4   74.52    4.23
   2  -4   4   70.95    4.28
  -2  -4  -4   68.64    4.17
   2   4   5   14.94    1.07
  -2  -4  -5   13.62    1.14
   2  -4   5   14.02    1.22
   2   4   6   28.13    1.84
  -2   4  -6   29.35    2.03
  -2  -4  -6   25.91    1.93
   2  -4   6   28.45    1.91
   2  -4   6   26.40    2.02
   2   4   7    4.87    0.59
   2  -4   7    5.67    0.70
   2   4   8    9.58    0.85
   2  -4   8    8.17    0.98
  -2   5   8    0.96    0.35
  -2  -5   8    0.60    0.36
  -2   5   7   39.09    2.73
  -2  -5   7   44.58    2.90
  -2   5   6    2.19    0.49
   2   5  -6    2.79    0.47
  -2  -5   6    3.19    0.50
  -2  -5   6    2.99    0.53
   2   5  -5    9.15    0.75
  -2   5   5    8.03    0.81
  -2  -5   5    7.96    0.85
  -2  -5   5    8.25    0.76
  -2  -5   5    7.57    0.72
   2  -5  -5    7.18    0.81
   2   5  -4   13.66    0.93
  -2   5   4   12.91    1.05
  -2   5   4   11.22    0.76
  -2  -5   4   12.33    1.00
  -2  -5   4   12.46    0.98
  -2  -5   4   12.81    1.07
   2  -5  -4   11.30    1.05
  -2   5   3   78.03    4.38
  -2   5   3   82.70    4.66
   2   5  -3   84.24    4.48
  -2  -5   3   77.97    4.57
  -2  -5   3   82.00    4.69
   2  -5  -3   73.06    4.71
  -2  -5   3   80.42    4.66
  -2   5   2   16.69    1.04
  -2   5   2   16.26    1.23
  -2   5   2   17.18    1.20
  -2  -5   2   14.33    1.40
  -2  -5   2   14.42    1.38
   2  -5  -2   16.81    1.32
  -2  -5   2   14.69    1.42
   2  -5  -2   16.64    1.18
   2  -5  -2   16.38    1.12
   2   5  -1   86.62    5.17
  -2   5   1   89.19    5.13
  -2   5   1   94.26    5.02
   2  -5  -1   90.60    5.13
   2  -5  -1   88.35    5.27
  -2  -5   1   87.46    5.01
  -2  -5   1   94.79    5.07
   2  -5  -1   87.86    5.05
  -2   5   0    1.55    0.31
  -2   5   0    2.00    0.34
   2   5   0    1.71    0.38
  -2  -5   0    1.66    0.25
   2  -5   0    1.55    0.30
   2  -5   0    1.61    0.36
  -2  -5   0    1.97    0.24
   2  -5   0    1.63    0.30
  -2  -5   0    1.73    0.34
   2   5   1   86.85    5.30
  -2   5  -1   96.93    5.18
  -2   5  -1   95.20    5.19
   2  -5   1   90.36    5.27
  -2  -5  -1   86.09    4.96
   2  -5   1   87.54    5.16
   2  -5   1   95.99    5.27
  -2  -5  -1   92.02    5.20
  -2   5  -2    3.30    0.41
  -2   5  -2    3.00    0.40
   2   5   2    3.05    0.59
   2  -5   2    2.52    0.33
  -2  -5  -2    3.41    0.44
   2  -5   2    3.00    0.43
   2  -5   2    3.79    0.50
  -2   5  -3  115.71    6.38
   2   5   3  111.88    6.51
   2  -5   3  115.72    6.16
  -2  -5  -3  105.36    6.33
   2  -5   3  116.53    6.51
   2  -5   3  108.66    6.36
   2   5   4   18.95    1.25
  -2   5  -4   20.25    1.48
   2   5   4   20.39    1.60
   2  -5   4   17.29    1.43
   2  -5   4   23.14    1.61
  -2  -5  -4   17.66    1.43
   2  -5   4   22.96    1.29
   2   5   5    6.43    0.84
   2   5   5    7.45    0.63
   2  -5   5    8.40    0.87
  -2  -5  -5    8.69    0.81
   2   5   6    0.94    0.34
   2   5   6    1.20    0.26
   2  -5   6    0.53    0.27
  -2  -5  -6    1.49    0.37
   2   5   7   23.67    1.57
   2   5   7   21.79    1.83
   2  -5   7   24.58    1.87
  -2   6   7    0.72    0.35
   2   6  -7    1.17    0.39
  -2  -6   7    1.28    0.41
   2   6  -6   23.69    1.57
  -2   6   6   20.31    1.60
  -2  -6   6   26.69    1.89
  -2  -6   6   20.09    1.54
   2   6  -5    8.81    0.72
  -2   6   5    7.60    0.80
  -2  -6   5    9.67    0.95
  -2  -6   5    8.82    0.79
   2  -6  -5    7.61    0.88
  -2  -6   5    7.91    0.81
   2   6  -4   13.48    1.04
  -2   6   4   13.03    1.04
  -2  -6   4   12.12    1.05
  -2  -6   4   13.13    1.13
   2  -6  -4   10.91    1.10
  -2  -6   4   12.26    1.02
  -2   6   3    3.11    0.45
   2   6  -3    3.98    0.40
  -2   6   3    3.63    0.31
  -2   6   3    3.82    0.53
  -2  -6   3    3.26    0.50
  -2  -6   3    3.63    0.51
   2  -6  -3    2.67    0.44
  -2  -6   3    3.28    0.47
   2  -6  -3    3.50    0.55
  -2   6   2   70.67    3.84
  -2   6   2   67.65    4.08
   2  -6  -2   71.65    4.05
   2  -6  -2   66.68    3.94
   2  -6  -2   64.24    4.18
  -2  -6   2   69.58    4.05
  -2  -6   2   66.65    3.94
  -2  -6   2   69.89    4.11
  -2   6   1   26.73    1.72
  -2   6   1   26.71    1.80
   2  -6  -1   26.96    1.73
  -2  -6   1   28.71    1.76
  -2  -6   1   25.71    1.77
   2  -6  -1   24.23    1.89
  -2  -6   1   26.92    1.68
   2  -6  -1   28.01    1.80
  -2  -6   1   26.57    1.88
  -2   6   0   93.38    4.94
   2   6   0   87.77    5.11
  -2   6   0   82.11    4.94
  -2  -6   0   84.83    5.01
  -2  -6   0   89.74    4.94
   2  -6   0   84.63    5.12
   2  -6   0   85.83    4.94
  -2  -6   0   87.68    4.84
   2  -6   0   87.72    5.04
  -2   6  -1   11.14    0.86
   2   6   1   10.36    0.96
  -2  -6  -1   11.01    0.83
  -2  -6  -1   10.29    0.90
   2  -6   1   11.02    0.93
   2  -6   1   10.24    0.86
  -2  -6  -1    9.31    0.72
   2  -6   1   10.37    0.93
   2   6   2   51.82    3.50
  -2   6  -2   59.47    3.40
  -2  -6  -2   55.59    3.42
   2  -6   2   58.25    3.42
   2  -6   2   56.55    3.48
   2  -6   2   59.33    3.54
   2   6   3    9.79    1.01
  -2   6  -3   10.17    0.92
   2  -6   3   12.01    0.99
   2  -6   3   13.81    1.12
  -2  -6  -3   11.55    0.97
   2   6   4   27.73    2.04
  -2  -6  -4   23.88    1.86
   2  -6   4   30.59    1.72
   2  -6   4   29.10    1.94
   2  -6   4   28.75    2.04
  -2   6  -5    7.14    0.76
   2   6   5    5.41    0.76
  -2  -6  -5    5.58    0.74
   2  -6   5    6.37    0.77
   2   6   6   11.43    0.80
   2   6   6   10.50    1.15
   2  -6   6   11.35    1.13
  -2   7   6   -0.01    0.26
   2   7  -6    0.52    0.27
  -2   7   6    0.29    0.20
  -2  -7   6    0.23    0.26
  -2   7   5   34.86    2.25
  -2   7   5   33.73    2.44
   2   7  -5   36.03    2.12
  -2  -7   5   35.29    2.28
  -2  -7   5   31.42    2.95
  -2   7   4   -0.18    0.16
   2   7  -4    0.00    0.15
  -2  -7   4   -0.06    0.26
   2  -7  -4   -0.20    0.15
  -2  -7   4   -0.01    0.16
   2  -7  -4    0.63    0.33
  -2  -7   4    0.11    0.18
  -2   7   3    3.63    0.57
  -2  -7   3    4.24    0.65
   2  -7  -3    5.09    0.59
  -2  -7   3    3.70    0.51
   2  -7  -3    4.65    0.69
  -2  -7   3    4.08    0.58
  -2   7   2    2.30    0.46
  -2  -7   2    2.17    0.40
  -2  -7   2    2.81    0.41
   2  -7  -2    2.21    0.76
  -2  -7   2    2.51    0.49
   2  -7  -2    2.46    0.39
   2  -7  -2    2.77    0.40
  -2  -7   2    2.40    0.46
  -2   7   1   59.07    3.54
   2  -7  -1   61.38    3.49
  -2  -7   1   56.31    3.53
  -2  -7   1   59.54    3.41
   2  -7  -1   58.62    3.73
  -2  -7   1   58.84    3.51
   2  -7  -1   56.79    3.54
   2   7   0   -0.06    0.17
  -2   7   0    0.09    0.12
   2  -7   0    0.17    0.14
  -2  -7   0    0.05    0.13
  -2  -7   0    0.04    0.13
  -2  -7   0    0.22    0.21
   2  -7   0    0.09    0.17
   2  -7   0    0.44    0.28
   2   7   1  106.29    6.54
  -2  -7  -1  115.68    6.52
   2  -7   1  118.53    6.56
   2  -7   1  112.45    6.67
  -2  -7  -1  119.49    6.40
  -2  -7  -1  111.11    6.20
   2  -7   1  111.27    6.40
  -2   7  -2    0.30    0.20
   2   7   2    0.13    0.19
   2  -7   2    0.66    0.26
  -2  -7  -2    0.72    0.27
   2  -7   2    0.43    0.23
  -2  -7  -2    0.62    0.19
   2  -7   2    0.30    0.21
   2   7   3   14.68    1.27
  -2  -7  -3   14.62    1.16
   2  -7   3   14.81    1.27
   2  -7   3   13.03    1.16
  -2   7  -4    0.36    0.23
   2   7   4    0.13    0.25
  -2  -7  -4    0.45    0.25
   2  -7   4    0.05    0.20
   2   7   5   14.83    1.39
   2  -7   5   15.55    1.39
   2  -7   5   16.77    1.06
  -2   8   5    0.70    0.35
  -2  -8   5    1.35    0.41
   2  -8  -5    1.22    0.34
  -2   8   4    4.85    0.74
   2  -8  -4    5.95    0.70
  -2  -8   4    5.68    0.75
  -2   8   3    4.88    0.68
   2  -8  -3    5.08    0.64
  -2  -8   3    4.98    0.59
  -2  -8   3    5.02    0.67
  -2   8   2   34.56    2.18
  -2  -8   2   29.02    2.11
   2  -8  -2   30.11    2.04
  -2  -8   2   31.10    2.00
   2  -8  -2   31.76    2.14
  -2  -8   2   31.55    2.15
  -2   8   1    8.76    0.80
  -2  -8   1    9.07    0.84
   2  -8  -1    7.30    0.81
   2  -8  -1    8.05    0.77
  -2  -8   1    8.69    0.73
  -2  -8   1    7.78    1.05
  -2   8   0   40.25    2.49
   2   8   0   40.32    2.64
  -2  -8   0   40.81    2.56
   2  -8   0   40.12    2.62
   2  -8   0   42.27    2.54
  -2  -8   0   40.51    2.78
  -2  -8   0   38.48    2.54
   2   8   1    5.18    0.69
  -2  -8  -1    4.74    0.46
  -2  -8  -1    4.96    0.59
   2  -8   1    6.86    0.64
  -2  -8  -1    5.78    1.05
   2   8   2   35.03    2.44
  -2  -8  -2   36.07    2.29
  -2  -8  -2   36.60    2.41
   2  -8   2   35.11    2.29
   2  -8   2   34.96    2.44
   2   8   3    1.33    0.44
  -2   8  -3    1.36    0.34
   2  -8   3    1.95    0.48
  -2  -8  -3    1.79    0.38
  -2  -8  -3    2.04    0.39
   2   8   4   14.22    1.29
   2  -8   4   12.49    1.23
  -2   9   3   11.12    1.08
  -2  -9   3   11.22    1.13
   2  -9  -3   11.78    1.07
  -2   9   2    0.76    0.27
   2  -9  -2    0.62    0.29
  -2  -9   2    0.52    0.29
  -2  -9   2    0.06    0.23
   2  -9  -2    0.58    0.27
  -2   9   1   26.10    1.80
   2  -9  -1   28.13    1.80
  -2  -9   1   25.68    1.69
  -2  -9   1   25.61    1.91
   2  -9  -1   24.86    1.87
   2  -9   0    0.28    0.28
   2  -9   0   -0.01    0.22
  -2  -9   0    0.30    0.23
  -2  -9   0    0.81    0.25
   2   9   1   24.21    1.85
   2  -9   1   26.23    1.90
   2  -9   1   26.69    1.78
  -2  -9  -1   25.24    1.79
   2   9   2    0.64    0.30
   2  -9   2    0.21    0.30
  -2  -9  -2    0.51    0.28
  -3   0   9    0.46    0.24
  -3   0   9    1.29    0.31
  -3   0   8   22.50    1.77
  -3   0   8   23.02    1.55
   3   0  -8   24.82    1.87
  -3   0   7    1.19    0.37
   3   0  -7    0.59    0.31
  -3   0   6   78.41    4.71
   3   0  -6   78.75    4.74
   3   0  -5    0.19    0.19
  -3   0   5    0.15    0.14
  -3   0   4  272.92   15.04
   3   0  -4  279.51   15.09
  -3   0   3    0.57    0.16
   3   0  -3    0.21    0.12
   3   0  -2   23.99    1.48
  -3   0   2   24.09    1.48
  -3   0   1    0.11    0.06
   3   0  -1    0.07    0.04
  -3   0   1    0.04    0.07
  -3   0   1   -0.01    0.03
   3   0  -1    0.04    0.04
  -3   0   0  337.93   17.02
   3   0   0  312.04   16.95
  -3   0   0  330.67   16.98
   3   0   0  310.10   16.99
   3   0   0  322.68   17.07
  -3   0   0  342.43   17.07
  -3   0   0  300.40   16.96
   3   0   0  285.33   16.93
   3   0   1    0.49    0.15
   3   0   1    0.51    0.13
  -3   0  -1    0.57    0.15
   3   0   1    0.49    0.13
   3   0   1    0.47    0.10
  -3   0  -1    0.67    0.15
  -3   0  -2  174.00    9.56
   3   0   2  168.61    9.48
  -3   0  -2  179.67    9.50
   3   0   2  177.67    9.54
  -3   0  -3    0.74    0.23
   3   0   3    0.93    0.22
  -3   0  -3    0.64    0.17
   3   0   3    0.48    0.15
   3   0   4  128.37    7.41
  -3   0  -4  136.12    7.60
   3   0   4  139.64    7.54
   3   0   5    0.47    0.20
  -3   0  -5    0.17    0.19
   3   0   5    0.65    0.22
  -3   0  -6   65.26    4.01
   3   0   6   71.33    3.81
   3   0   6   58.73    3.87
   3   0   7    0.08    0.15
   3   0   7    0.25    0.19
  -3   1   9   20.54    1.64
  -3  -1   9   19.87    1.64
   3   1  -8    9.57    1.04
  -3   1   8    9.15    0.93
  -3  -1   8    9.33    0.95
   3  -1  -8    8.58    1.06
  -3   1   7   86.35    5.27
   3   1  -7   94.33    5.35
  -3  -1   7   86.18    5.27
  -3   1   6    6.13    0.68
   3   1  -6    6.46    0.71
   3  -1  -6    4.63    0.66
  -3  -1   6    5.51    0.64
   3   1  -5   78.54    5.22
  -3   1   5   95.01    5.26
   3  -1  -5   89.09    5.27
  -3  -1   5   96.58    5.26
   3   1  -4   25.03    1.69
  -3   1   4   24.31    1.71
   3  -1  -4   26.00    1.74
  -3  -1   4   25.85    1.70
  -3   1   3  144.36    7.40
   3   1  -3  122.24    7.25
  -3  -1   3  132.43    7.29
   3  -1  -3  128.97    7.34
  -3   1   2   33.37    2.01
   3   1  -2   29.56    1.92
  -3   1   2   36.82    2.08
   3  -1  -2   35.17    2.08
  -3  -1   2   35.21    1.99
  -3   1   1   19.16    1.26
  -3   1   1   23.31    1.35
  -3   1   1   22.77    1.37
   3  -1  -1   22.11    1.34
   3  -1  -1   19.30    1.26
   3  -1  -1   20.50    1.33
   3   1   0   65.24    3.67
  -3   1   0   57.97    3.60
  -3   1   0   71.22    3.66
  -3   1   0   70.15    3.67
   3  -1   0   63.72    3.67
  -3  -1   0   66.69    3.61
  -3  -1   0   60.53    3.67
   3  -1   0   68.98    3.65
   3  -1   0   59.76    3.60
  -3   1  -1  223.34   12.31
   3   1   1  234.04   12.25
   3   1   1  219.00   12.31
  -3   1  -1  231.16   12.29
   3  -1   1  220.68   12.27
   3  -1   1  216.02   12.28
   3  -1   1  227.18   12.15
  -3  -1  -1  236.50   12.23
  -3  -1  -1  238.64   12.21
  -3   1  -2    2.17    0.32
  -3   1  -2    2.18    0.30
   3   1   2    2.41    0.33
   3   1   2    2.45    0.26
   3   1   2    2.80    0.28
   3  -1   2    2.73    0.33
   3  -1   2    2.69    0.31
  -3  -1  -2    2.51    0.30
  -3  -1  -2    2.48    0.26
   3   1   3  197.68    9.96
  -3   1  -3  175.52   10.04
  -3   1  -3  180.35    9.93
   3   1   3  179.62    9.84
  -3  -1  -3  185.30   10.01
   3  -1   3  181.51    9.94
  -3  -1  -3  173.11    9.82
   3  -1   3  182.17   10.03
   3   1   4   10.61    0.88
  -3   1  -4   11.93    0.98
   3   1   4   11.52    0.81
  -3   1  -4   11.10    0.86
   3  -1   4   10.58    0.93
  -3  -1  -4   11.50    0.96
   3   1   5   88.34    5.28
  -3   1  -5   93.06    5.42
   3   1   5   95.44    5.17
   3  -1   5   86.66    5.33
   3  -1   5   97.67    5.26
  -3  -1  -5   92.29    5.40
   3   1   6    3.55    0.51
   3   1   6    5.02    0.49
   3  -1   6    4.72    0.54
  -3  -1  -6    4.48    0.64
   3  -1   6    4.31    0.56
   3   1   7   22.31    1.65
   3   1   7   24.83    1.54
   3  -1   7   22.68    1.70
   3   1   8    0.98    0.29
   3   1   8    0.66    0.46
   3  -1   8    0.68    0.27
  -3   2   9    1.03    0.34
  -3   2   9    1.14    0.31
  -3  -2   9    1.12    0.37
   3   2  -8   31.72    2.23
  -3   2   8   29.29    2.23
  -3  -2   8   26.64    2.33
  -3  -2   8   32.18    2.00
   3   2  -7    1.95    0.46
  -3   2   7    2.35    0.47
  -3  -2   7    2.28    0.47
  -3   2   6   96.15    5.60
   3   2  -6   96.72    5.54
   3  -2  -6   84.22    5.55
  -3  -2   6  101.68    5.60
  -3   2   5   14.27    1.19
   3   2  -5   14.82    1.13
  -3  -2   5   14.61    1.17
   3  -2  -5   13.84    1.19
   3   2  -4   48.36    3.04
  -3   2   4   52.29    3.17
   3  -2  -4   51.82    3.19
  -3  -2   4   53.74    3.12
   3   2  -3   20.39    1.47
  -3   2   3   18.44    1.28
  -3   2   3   21.13    1.42
  -3  -2   3   20.18    1.33
   3  -2  -3   19.51    1.40
  -3   2   2  201.31   10.86
   3   2  -2  209.66   10.69
  -3   2   2  201.06   10.94
   3  -2  -2  186.18   10.91
   3  -2  -2  178.38   10.92
  -3  -2   2  219.87   10.79
  -3   2   1   16.66    1.13
  -3   2   1   17.30    1.17
  -3  -2   1   18.60    1.28
   3  -2  -1   17.61    1.19
   3  -2  -1   16.07    1.15
  -3   2   0    6.43    0.56
   3   2   0    6.65    0.61
  -3   2   0    7.30    0.61
  -3   2   0    7.06    0.58
   3  -2   0    8.74    0.64
  -3  -2   0    7.08    0.65
   3  -2   0    8.27    0.61
   3  -2   0    6.76    0.57
  -3   2  -1   13.34    0.94
  -3   2  -1   11.95    0.94
   3   2   1   14.10    1.00
   3  -2   1   13.76    0.95
  -3  -2  -1   13.79    0.83
   3  -2   1   13.69    0.95
  -3  -2  -1   13.32    0.83
   3  -2   1   13.43    0.97
  -3   2  -2  312.33   15.76
   3   2   2  285.18   15.51
   3   2   2  281.76   15.75
   3   2   2  288.30   15.50
  -3  -2  -2  295.85   15.61
   3  -2   2  291.82   15.68
  -3  -2  -2  264.35   15.47
   3  -2   2  299.98   15.74
  -3   2  -3    2.18    0.60
   3   2   3    3.29    0.35
   3   2   3    3.00    0.29
  -3   2  -3    3.41    0.40
   3  -2   3    3.04    0.42
  -3  -2  -3    3.74    0.41
   3  -2   3    3.33    0.42
  -3   2  -4  102.22    5.92
  -3   2  -4  108.10    5.78
   3   2   4  107.23    5.75
   3   2   4   98.60    5.58
  -3  -2  -4  100.21    5.82
   3  -2   4  101.60    5.77
   3  -2   4   95.86    5.85
   3   2   5    6.34    0.61
   3   2   5    5.43    0.48
  -3  -2  -5    5.09    0.64
   3  -2   5    6.14    0.66
   3  -2   5    5.40    0.60
   3   2   6   26.50    1.75
   3   2   6   26.25    1.57
   3  -2   6   24.07    1.81
  -3  -2  -6   24.50    1.84
   3   2   7    2.62    0.37
   3   2   7    2.96    0.45
   3  -2   7    2.13    0.40
   3  -2   7    3.31    0.80
   3   2   8   18.07    1.21
   3   2   8   18.16    1.35
   3  -2   8   16.51    1.40
  -3   3   9   22.43    1.78
  -3   3   9   24.74    1.48
  -3  -3   9   21.60    1.79
   3   3  -8    1.96    0.46
  -3   3   8    2.03    0.44
  -3  -3   8    1.91    0.40
   3   3  -7   24.96    1.78
  -3   3   7   22.50    1.75
  -3  -3   7   22.43    1.75
   3   3  -6   46.47    2.89
  -3   3   6   42.84    2.94
  -3   3   6   45.84    2.70
  -3  -3   6   46.75    2.96
   3   3  -5   94.06    6.29
  -3   3   5  114.54    6.44
  -3   3   5  116.12    6.17
  -3  -3   5  123.52    6.43
   3  -3  -5  106.50    6.42
  -3   3   4   13.83    1.03
   3   3  -4   16.32    1.07
   3  -3  -4   14.49    1.19
   3   3  -3   55.09    3.15
  -3   3   3   48.06    3.30
  -3   3   3   54.33    3.13
  -3  -3   3   59.24    3.20
   3  -3  -3   51.98    3.27
  -3   3   2    1.37    0.26
  -3   3   2    1.38    0.31
   3  -3  -2    1.01    0.24
  -3  -3   2    1.36    0.22
  -3  -3   2    1.30    0.29
   3  -3  -2    0.87    0.21
   3  -3  -2    1.03    0.28
  -3   3   1   98.56    5.48
  -3   3   1   98.02    5.57
   3   3  -1  101.92    5.59
   3  -3  -1   99.56    5.53
   3  -3  -1   95.06    5.51
  -3  -3   1   95.50    5.60
  -3  -3   1   97.26    5.36
   3  -3  -1  104.37    5.65
  -3   3   0    3.98    0.32
  -3   3   0    3.56    0.40
  -3   3   0    3.77    0.40
   3   3   0    4.29    0.48
  -3  -3   0    4.37    0.50
   3  -3   0    3.84    0.41
   3  -3   0    3.93    0.46
   3  -3   0    4.36    0.44
  -3   3  -1  210.86   11.33
  -3   3  -1  204.01   11.37
   3   3   1  211.09   11.44
  -3  -3  -1  206.14   11.15
   3  -3   1  198.66   11.38
   3  -3   1  209.97   11.34
  -3  -3  -1  209.47   11.21
   3  -3   1  214.56   11.39
  -3   3  -2  108.50    5.99
   3   3   2  109.52    6.10
  -3   3  -2  102.14    6.02
   3  -3   2  108.12    6.01
   3  -3   2  104.46    6.06
  -3  -3  -2  108.17    5.92
  -3   3  -3   52.90    3.14
   3   3   3   46.25    3.12
  -3   3  -3   49.25    3.03
   3   3   3   51.35    2.87
   3  -3   3   53.09    3.15
  -3  -3  -3   54.72    3.04
   3  -3   3   48.11    3.04
  -3   3  -4   12.99    1.10
   3   3   4   13.21    0.94
   3  -3   4   13.68    1.13
   3  -3   4   12.41    1.03
  -3  -3  -4   13.23    1.04
   3   3   5   83.59    4.59
  -3  -3  -5   76.27    4.69
   3  -3   5   79.49    4.65
   3  -3   5   79.56    4.78
   3   3   6    0.41    0.20
   3   3   6    0.46    0.14
  -3   3  -6   -0.42    0.33
   3  -3   6    0.33    0.20
   3  -3   6    0.12    0.22
  -3  -3  -6    0.18    0.40
   3   3   7   16.04    1.19
   3   3   7   14.83    0.98
   3  -3   7   15.51    1.32
   3   3   8    2.50    0.36
   3   3   8    2.60    0.45
   3  -3   8    2.15    0.46
  -3   4   8   15.03    1.11
  -3   4   8   15.26    1.04
   3   4  -8   17.30    1.37
  -3   4   8   15.20    1.35
  -3  -4   8   16.93    1.42
  -3   4   7    3.71    0.63
  -3   4   7    4.99    0.48
   3   4  -7    3.59    0.58
  -3  -4   7    4.92    0.68
   3   4  -6   28.82    1.84
  -3   4   6   25.20    1.92
  -3   4   6   26.13    1.68
  -3  -4   6   25.99    1.93
  -3   4   5    3.77    0.56
  -3   4   5    4.76    0.46
   3   4  -5    4.38    0.61
  -3  -4   5    4.64    0.59
   3  -4  -5    3.00    0.53
  -3  -4   5    4.81    0.53
   3   4  -4  141.91    6.98
  -3   4   4  119.09    7.20
  -3   4   4  121.12    6.93
   3  -4  -4  112.98    7.20
  -3  -4   4  136.07    7.17
   3   4  -3   38.05    2.13
  -3   4   3   37.43    2.16
  -3   4   3   37.27    2.37
  -3  -4   3   35.31    2.28
  -3  -4   3   38.14    2.33
   3  -4  -3   32.52    2.35
  -3   4   2   53.07    3.06
  -3   4   2   53.98    3.23
   3  -4  -2   53.61    3.37
   3  -4  -2   52.76    3.14
  -3  -4   2   54.04    3.25
   3  -4  -2   53.75    3.18
  -3  -4   2   53.38    3.11
  -3   4   1   46.31    2.74
   3   4  -1   50.83    3.03
  -3   4   1   47.58    2.86
   3  -4  -1   45.06    2.79
   3  -4  -1   43.84    2.78
  -3  -4   1   50.01    2.69
  -3  -4   1   47.44    2.93
   3  -4  -1   44.89    2.92
  -3   4   0  103.13    5.96
  -3   4   0  111.35    6.10
   3   4   0  112.61    6.21
  -3   4   0  110.40    6.07
  -3  -4   0  104.41    5.98
  -3  -4   0  110.77    6.28
   3  -4   0  105.58    6.07
   3  -4   0  110.06    6.13
   3  -4   0  112.99    6.27
   3   4   1   20.20    1.53
  -3   4  -1   21.41    1.45
   3  -4   1   20.72    1.50
   3  -4   1   21.47    1.47
  -3  -4  -1   23.79    1.40
   3  -4   1   23.30    1.53
   3   4   2   60.01    3.73
  -3   4  -2   62.26    3.62
  -3   4  -2   61.84    3.67
   3  -4   2   62.24    3.65
  -3  -4  -2   58.33    3.54
   3  -4   2   66.89    3.76
  -3   4  -3   15.42    1.21
  -3   4  -3   14.86    1.17
   3   4   3   14.71    1.26
  -3  -4  -3   16.38    1.15
   3  -4   3   17.04    1.24
   3  -4   3   17.59    1.30
  -3   4  -4   54.78    3.33
   3   4   4   54.02    3.41
   3   4   4   51.94    3.02
  -3  -4  -4   53.85    3.24
   3  -4   4   53.43    3.36
   3   4   5    0.67    0.20
   3   4   5    0.59    0.31
  -3  -4  -5    0.76    0.25
   3  -4   5    0.42    0.21
   3   4   6   20.63    2.17
   3   4   6   21.36    1.39
  -3  -4  -6   18.98    1.52
   3  -4   6   20.33    1.62
   3   4   7   12.90    1.03
   3   4   7   15.21    1.32
   3  -4   7   13.66    1.23
   3   5  -8    2.74    0.60
  -3   5   8    2.40    0.57
  -3  -5   8    2.42    0.53
  -3   5   7   47.55    2.82
  -3   5   7   48.42    3.24
   3   5  -7   49.93    3.08
  -3  -5   7   56.99    3.38
  -3   5   6    1.58    0.43
   3   5  -6    1.80    0.32
  -3   5   6    1.25    0.20
  -3  -5   6    1.29    0.33
   3  -5  -6    1.49    0.37
  -3  -5   6    1.06    0.31
   3   5  -5   10.56    0.76
  -3   5   5    8.87    0.89
  -3   5   5    8.16    0.62
  -3  -5   5    9.23    0.83
  -3  -5   5    9.39    0.83
  -3  -5   5    9.25    0.92
   3  -5  -5    7.07    0.84
  -3   5   4   12.02    1.05
  -3   5   4   11.22    0.81
   3   5  -4   13.19    0.87
   3  -5  -4   10.55    1.05
  -3  -5   4   12.82    1.03
  -3  -5   4   13.47    1.06
  -3  -5   4   12.02    0.96
  -3   5   3  106.60    5.77
  -3   5   3  105.87    6.02
   3   5  -3  113.30    5.75
   3  -5  -3   99.80    5.80
  -3  -5   3  103.02    5.89
   3  -5  -3   95.57    6.08
  -3  -5   3  111.06    6.00
   3  -5  -3  106.62    5.98
  -3  -5   3  100.23    5.99
  -3   5   2    5.81    0.63
  -3   5   2    5.57    0.51
   3  -5  -2    6.37    0.60
   3  -5  -2    5.92    0.71
   3  -5  -2    5.21    0.56
  -3  -5   2    6.23    0.67
  -3  -5   2    6.03    0.57
  -3  -5   2    5.58    0.61
  -3   5   1  122.96    6.90
  -3   5   1  126.26    6.85
   3   5  -1  121.99    7.01
  -3  -5   1  120.41    6.80
   3  -5  -1  120.55    6.91
   3  -5  -1  121.21    7.10
  -3  -5   1  128.24    7.10
   3  -5  -1  123.68    6.95
  -3  -5   1  129.18    6.84
  -3   5   0   21.36    1.38
   3   5   0   20.25    1.50
  -3   5   0   19.91    1.30
  -3  -5   0   20.88    1.58
   3  -5   0   17.51    1.51
  -3  -5   0   20.00    1.34
  -3  -5   0   21.83    1.30
   3  -5   0   21.87    1.46
   3  -5   0   20.79    1.52
  -3  -5   0   19.70    1.25
  -3   5  -1   67.41    3.86
  -3   5  -1   66.76    3.83
   3   5   1   62.00    3.95
  -3  -5  -1   62.42    3.59
  -3  -5  -1   69.23    3.82
   3  -5   1   70.38    3.95
   3  -5   1   64.64    3.92
   3  -5   1   64.57    3.84
   3   5   2    6.24    0.72
  -3   5  -2    7.14    0.68
  -3   5  -2    7.56    0.68
   3  -5   2    7.17    0.74
  -3  -5  -2    6.88    0.64
   3  -5   2    6.74    0.69
   3  -5   2    7.68    0.70
  -3   5  -3   37.93    2.35
   3   5   3   34.03    2.45
  -3   5  -3   38.10    2.40
   3  -5   3   37.79    2.39
  -3  -5  -3   36.15    2.31
   3  -5   3   37.49    2.47
   3   5   4    2.31    0.51
   3  -5   4    3.01    0.52
  -3  -5  -4    3.23    0.46
   3   5   5   12.48    1.25
  -3   5  -5   14.74    1.18
   3  -5   5   12.32    1.29
   3  -5   5   13.23    0.86
  -3  -5  -5   13.45    1.11
   3   5   6    3.22    0.64
   3   5   6    3.13    0.40
   3  -5   6    2.01    0.49
  -3  -5  -6    1.78    0.67
   3  -5   6    3.06    0.36
   3   5   7   17.36    1.51
   3   5   7   17.05    1.15
   3  -5   7   18.30    1.52
  -3   6   7    1.17    0.36
  -3  -6   7    1.18    0.38
  -3  -6   7    0.94    0.39
   3   6  -6   16.71    1.16
  -3   6   6   15.04    1.29
  -3  -6   6   15.71    1.39
  -3   6   5   13.43    1.14
   3   6  -5   15.22    1.00
  -3  -6   5   13.61    1.21
  -3  -6   5   12.89    1.11
  -3  -6   5   12.85    1.09
   3   6  -4   43.83    2.45
  -3   6   4   41.88    2.39
  -3   6   4   42.01    2.68
  -3  -6   4   42.37    2.61
   3  -6  -4   45.43    2.70
  -3  -6   4   39.36    2.66
  -3  -6   4   38.65    2.68
  -3   6   3   11.99    1.00
  -3   6   3   11.99    0.80
  -3   6   3   11.08    1.01
  -3  -6   3   10.82    0.99
   3  -6  -3   10.28    1.06
   3  -6  -3   11.18    0.83
   3  -6  -3   10.48    0.95
  -3  -6   3   14.06    1.06
  -3  -6   3   10.83    0.91
  -3   6   2  110.45    6.46
  -3   6   2  118.28    6.31
   3  -6  -2  114.76    6.46
  -3  -6   2  113.03    6.56
  -3  -6   2  116.00    6.35
   3  -6  -2  109.07    6.64
   3  -6  -2  110.62    6.40
  -3  -6   2  116.74    6.44
  -3   6   1    8.48    0.69
  -3   6   1    8.98    1.07
  -3  -6   1    8.18    0.66
   3  -6  -1    7.78    0.75
  -3  -6   1    8.65    0.89
   3  -6  -1    8.49    0.90
  -3  -6   1    7.78    0.79
   3  -6  -1    7.73    0.86
  -3  -6   1    8.47    0.73
  -3   6   0   34.97    2.13
  -3   6   0   37.78    2.20
   3   6   0   34.80    2.35
  -3  -6   0   35.64    2.07
   3  -6   0   34.99    2.36
  -3  -6   0   35.32    2.15
  -3  -6   0   30.81    2.47
   3  -6   0   36.61    2.29
   3  -6   0   35.85    2.22
  -3   6  -1   15.26    1.10
  -3   6  -1   15.08    1.07
   3   6   1   13.35    1.17
   3  -6   1   12.92    1.16
   3  -6   1   12.81    1.06
  -3  -6  -1   14.05    1.08
   3  -6   1   14.54    1.15
   3   6   2   33.70    2.25
  -3   6  -2   33.42    2.12
  -3   6  -2   35.21    2.13
   3  -6   2   29.99    2.11
   3  -6   2   32.61    2.22
  -3  -6  -2   31.08    2.08
   3   6   3    1.73    0.39
   3  -6   3    2.96    0.48
  -3  -6  -3    3.03    0.43
   3  -6   3    2.25    0.57
  -3   6  -4   15.66    1.22
   3   6   4   12.84    1.42
   3  -6   4   14.25    1.44
   3  -6   4   13.60    1.31
  -3  -6  -4   14.45    1.15
   3   6   5    7.38    0.89
  -3  -6  -5    7.87    0.83
   3  -6   5    9.02    0.91
   3   6   6   10.84    1.17
   3  -6   6   13.51    1.23
   3   7  -6   -0.23    0.19
  -3   7   6    0.10    0.33
  -3  -7   6    0.00    0.25
  -3  -7   6   -0.01    0.30
  -3   7   5   43.05    2.75
  -3   7   5   40.44    3.14
   3   7  -5   45.17    2.59
  -3  -7   5   42.15    2.86
   3  -7  -5   43.11    2.78
  -3   7   4    1.87    0.45
  -3   7   4    1.58    0.21
  -3   7   4    1.85    0.37
  -3  -7   4    1.60    0.35
   3  -7  -4    1.65    0.37
  -3  -7   4    2.17    0.46
  -3  -7   4    1.91    0.42
  -3   7   3   32.58    1.84
  -3   7   3   31.78    2.14
   3  -7  -3   31.16    2.08
  -3  -7   3   29.83    2.11
   3  -7  -3   28.70    2.22
  -3  -7   3   32.00    2.00
   3  -7  -3   29.93    1.89
  -3  -7   3   30.35    2.13
  -3   7   2    1.01    0.21
  -3   7   2    0.77    0.24
   3  -7  -2    0.10    0.26
   3  -7  -2    1.49    0.40
  -3  -7   2    0.33    0.26
   3  -7  -2    0.37    0.21
  -3  -7   2    0.68    0.22
  -3  -7   2    0.69    0.28
  -3   7   1   88.80    4.76
  -3   7   1   79.59    4.82
   3  -7  -1   86.96    5.12
  -3  -7   1   83.29    4.82
  -3  -7   1   85.16    4.73
   3  -7  -1   79.53    4.90
  -3  -7   1   81.29    4.85
   3  -7  -1   86.31    4.86
   3   7   0    0.79    0.26
  -3   7   0    1.06    0.26
  -3   7   0    0.82    0.21
   3  -7   0    0.81    0.30
   3  -7   0    0.83    0.25
  -3  -7   0    0.72    0.27
   3  -7   0    0.51    0.33
  -3  -7   0    0.54    0.22
  -3  -7   0    0.51    0.18
   3   7   1   58.17    3.80
   3  -7   1   62.05    3.84
  -3  -7  -1   63.28    3.73
   3  -7   1   63.01    3.81
   3  -7   1   60.32    3.68
  -3  -7  -1   65.24    3.64
   3   7   2    1.26    0.36
   3  -7   2    0.53    0.25
  -3  -7  -2    0.80    0.23
  -3  -7  -2    0.83    0.29
   3  -7   2    1.42    0.31
   3  -7   2    0.65    0.27
   3   7   3    3.83    0.59
  -3   7  -3    4.44    0.59
   3  -7   3    4.77    0.66
   3  -7   3    2.67    0.79
  -3  -7  -3    4.12    0.55
   3   7   4    0.19    0.22
  -3  -7  -4    0.21    0.26
   3  -7   4    1.00    0.33
   3   7   5   18.11    1.56
   3  -7   5   17.65    1.51
  -3   8   5    1.13    0.37
  -3  -8   5    1.78    0.51
  -3  -8   5    1.72    0.47
   3  -8  -5    1.93    0.41
  -3   8   4   20.19    1.89
  -3  -8   4   22.79    1.71
   3  -8  -4   24.77    1.72
  -3  -8   4   24.40    2.01
  -3   8   3    3.92    0.61
  -3  -8   3    4.17    0.73
  -3  -8   3    4.51    0.65
   3  -8  -3    4.54    0.57
  -3  -8   3    3.76    0.52
  -3   8   2   53.27    3.35
  -3  -8   2   52.98    3.37
  -3  -8   2   53.97    3.70
  -3  -8   2   56.06    3.24
  -3  -8   2   53.76    3.37
   3  -8  -2   56.34    3.40
   3  -8  -2   54.41    3.28
  -3   8   1    3.69    0.51
  -3  -8   1    5.84    0.66
  -3  -8   1    5.09    0.59
   3  -8  -1    4.71    0.62
   3  -8  -1    4.21    0.65
  -3  -8   1    4.86    0.52
   3   8   0   23.46    1.73
   3  -8   0   24.19    1.64
  -3  -8   0   23.40    1.71
   3  -8   0   23.15    1.72
  -3  -8   0   23.84    1.47
  -3  -8   0   21.97    1.61
   3   8   1    2.34    0.50
  -3  -8  -1    3.72    0.60
  -3  -8  -1    3.00    0.43
   3  -8   1    3.39    0.52
   3  -8   1    3.35    0.51
   3   8   2   11.67    1.12
   3  -8   2   11.44    1.10
  -3  -8  -2   12.46    0.97
  -3  -8  -2   11.53    1.05
   3   8   3    0.91    0.35
   3  -8   3    1.19    0.37
  -3  -8  -3    1.33    0.33
  -3  -8  -3    1.97    0.42
   3   8   4    4.19    0.70
   3  -8   4    6.06    0.82
  -3   9   2    1.13    0.32
   3  -9  -2    1.39    0.35
  -3  -9   2    0.71    0.30
  -3  -9   2    0.56    0.36
   3  -9  -2    1.34    0.39
  -3   9   1   35.38    2.21
  -3  -9   1   32.09    2.29
   3  -9  -1   36.31    2.31
  -3  -9   1   34.90    2.14
   3  -9  -1   33.89    2.34
   3  -9   0    1.95    0.44
   3  -9   0    2.04    0.46
  -3  -9   0    1.94    0.39
  -3  -9   0    2.11    0.35
   3   9   1    8.16    0.90
   3  -9   1    8.67    0.92
  -3  -9  -1    8.95    0.84
  -4   0   9    0.07    0.26
  -4   0   9    0.28    0.21
  -4   0   8   23.49    1.75
   4   0  -8   21.39    1.79
   4   0  -7    0.06    0.22
  -4   0   7    0.40    0.21
  -4   0   6   36.04    2.33
   4   0  -6   32.13    2.31
   4   0  -5    0.37    0.18
  -4   0   5    0.42    0.19
   4   0  -4   77.93    4.52
  -4   0   4   77.02    4.51
   4   0  -3    1.38    0.25
  -4   0   3    1.72    0.26
   4   0  -2    4.74    0.42
  -4   0   2    6.19    0.49
   4   0  -2    6.85    0.51
   4   0  -1    0.81    0.12
  -4   0   1    1.00    0.14
  -4   0   1    1.12    0.16
  -4   0   1    1.19    0.23
   4   0  -1    1.00    0.15
  -4   0   0  515.19   26.12
  -4   0   0  511.03   26.08
   4   0   0  442.43   26.01
   4   0   0  461.81   26.03
  -4   0   0  474.39   26.06
   4   0   0  477.49   26.18
  -4   0   0  537.16   26.20
   4   0   1    0.71    0.14
  -4   0  -1    1.15    0.23
   4   0   1    0.71    0.18
  -4   0  -1    0.71    0.25
   4   0   1    0.58    0.14
   4   0   1    0.90    0.15
   4   0   2  200.13   11.26
   4   0   2  216.46   11.28
  -4   0  -2  216.57   11.29
  -4   0  -2  200.02   11.31
   4   0   2  205.42   11.26
  -4   0  -3    0.94    0.22
  -4   0  -3    0.73    0.24
   4   0   3    1.15    0.25
   4   0   3    0.71    0.21
   4   0   4   51.45    3.04
  -4   0  -4   50.70    2.96
  -4   0  -4   48.37    3.08
   4   0   4   50.92    2.97
   4   0   5    0.11    0.14
  -4   0  -5   -0.16    0.19
   4   0   5    0.20    0.17
   4   0   6   27.65    1.82
  -4   0  -6   30.70    2.06
   4   0   6   25.83    1.86
   4   0   7    0.27    0.21
   4   0   7    0.42    0.27
  -4   1   9   21.91    1.70
  -4  -1   9   19.84    1.68
  -4   1   8   17.23    1.45
   4  -1  -8   17.36    1.52
  -4  -1   8   17.72    1.45
   4   1  -7   46.63    3.09
  -4   1   7   52.53    3.14
   4  -1  -7   44.24    3.12
  -4   1   6   12.81    1.17
   4   1  -6   14.90    1.23
   4  -1  -6   14.05    1.23
  -4  -1   6   15.27    1.21
  -4   1   5   47.78    2.97
   4   1  -5   46.09    2.93
   4  -1  -5   44.98    2.97
  -4  -1   5   49.97    2.95
   4   1  -4    4.23    0.48
  -4  -1   4    4.92    0.52
   4  -1  -4    4.50    0.54
  -4   1   3   82.65    4.66
   4   1  -3   75.26    4.52
  -4  -1   3   84.17    4.58
   4  -1  -3   82.04    4.66
   4   1  -2    8.62    0.63
  -4   1   2   12.72    0.85
  -4   1   2   10.83    0.80
   4  -1  -2   11.72    0.82
   4  -1  -2    8.48    0.71
  -4  -1   2   11.40    0.72
  -4   1   1  422.87   21.56
  -4   1   1  352.90   21.45
  -4   1   1  424.84   21.61
   4  -1  -1  389.80   21.57
  -4  -1   1  454.11   21.57
   4  -1  -1  378.26   21.46
   4  -1  -1  386.11   21.52
  -4   1   0   99.83    5.69
  -4   1   0  110.92    5.86
  -4   1   0  115.23    5.84
   4   1   0  107.90    5.85
  -4   1   0   96.69    5.78
   4  -1   0   93.01    5.76
  -4  -1   0  115.53    5.84
   4  -1   0  107.15    5.81
   4  -1   0  102.65    5.86
  -4  -1   0  104.08    5.88
   4   1   1  244.84   13.28
  -4   1  -1  250.49   13.28
  -4   1  -1  258.82   13.29
   4   1   1  237.88   13.24
   4  -1   1  250.12   13.23
   4  -1   1  237.29   13.23
   4  -1   1  237.67   13.26
   4  -1   1  249.64   13.11
  -4  -1  -1  236.50   13.15
  -4  -1  -1  246.85   13.21
  -4   1  -2   59.61    3.27
   4   1   2   54.52    3.17
  -4   1  -2   52.46    3.28
   4   1   2   57.16    3.13
   4   1   2   57.84    3.28
   4  -1   2   55.88    3.13
  -4  -1  -2   57.09    3.16
  -4  -1  -2   55.62    3.21
   4  -1   2   52.17    3.23
   4  -1   2   54.84    3.23
   4   1   3  170.31    9.34
  -4   1  -3  176.08    9.72
   4   1   3  181.96    9.49
   4   1   3  163.44    9.30
  -4   1  -3  176.83    9.40
  -4  -1  -3  166.00    9.29
  -4  -1  -3  162.12    9.41
   4  -1   3  171.68    9.39
   4   1   4    1.88    0.31
  -4   1  -4    1.90    0.42
   4   1   4    2.09    0.31
  -4   1  -4    2.45    0.34
   4  -1   4    2.22    0.36
  -4  -1  -4    2.01    0.27
   4  -1   4    2.66    0.39
  -4  -1  -4    1.91    0.35
   4   1   5   16.43    1.24
   4   1   5   17.03    1.19
  -4   1  -5   18.05    1.39
  -4  -1  -5   17.12    1.35
   4  -1   5   16.81    1.30
   4  -1   5   18.99    1.28
   4   1   6    3.06    0.41
  -4   1  -6    3.51    0.57
   4   1   6    2.55    0.43
   4  -1   6    2.90    0.45
  -4  -1  -6    2.12    0.69
   4  -1   6    3.25    0.47
   4   1   7   10.01    0.90
   4   1   7   10.64    0.84
   4  -1   7   10.85    0.96
   4  -1   7   11.11    1.10
   4   1   8    0.71    0.33
   4   1   8    0.69    0.31
   4  -1   8    0.54    0.23
  -4   2   9    0.73    0.30
  -4  -2   9    0.23    0.25
  -4   2   8   24.48    2.34
  -4  -2   8   22.47    1.97
   4   2  -7    3.86    0.59
  -4   2   7    4.47    0.62
  -4  -2   7    3.72    0.56
  -4   2   6   69.05    4.05
   4   2  -6   66.02    3.93
  -4  -2   6   66.36    3.98
   4  -2  -6   59.72    4.01
  -4   2   5    7.65    0.79
   4   2  -5    7.93    0.73
  -4  -2   5    7.67    0.76
   4  -2  -5    8.46    0.83
   4   2  -4   14.10    1.06
  -4   2   4   16.16    1.22
  -4   2   4   14.19    1.07
  -4  -2   4   17.20    1.17
   4  -2  -4   15.44    1.24
  -4   2   3   38.25    2.19
   4   2  -3   35.95    2.03
  -4   2   3   36.52    2.27
  -4  -2   3   32.43    2.10
   4  -2  -3   32.23    2.21
  -4   2   2  175.26    9.42
  -4   2   2  177.30    9.47
  -4  -2   2  177.95    9.25
   4  -2  -2  166.01    9.37
   4  -2  -2  161.85    9.42
   4  -2  -2  168.35    9.34
  -4   2   1    6.93    0.61
  -4   2   1    8.79    0.69
  -4   2   1    8.96    0.71
   4  -2  -1    9.30    0.72
   4  -2  -1    7.08    0.61
  -4  -2   1    7.68    0.68
   4  -2  -1    8.13    0.71
  -4   2   0  102.39    5.64
   4   2   0   98.39    5.64
  -4   2   0  108.68    5.63
  -4   2   0   97.29    5.58
   4  -2   0  108.59    5.61
  -4  -2   0   90.44    5.66
  -4  -2   0   95.99    5.50
   4   2   1    7.08    0.65
  -4   2  -1    7.06    0.64
  -4   2  -1    6.67    0.62
   4  -2   1    7.22    0.63
  -4  -2  -1    6.88    0.54
  -4  -2  -1    8.19    0.50
   4  -2   1    6.42    0.61
   4  -2   1    6.70    0.60
   4   2   2  257.34   14.12
  -4   2  -2  270.87   14.12
   4   2   2  254.29   13.90
  -4   2  -2  270.35   14.08
   4  -2   2  257.10   14.04
   4  -2   2  248.96   14.17
  -4  -2  -2  248.58   13.87
  -4  -2  -2  260.89   13.95
  -4   2  -3    1.06    0.26
   4   2   3    1.37    0.32
   4   2   3    1.10    0.19
  -4   2  -3    0.80    0.22
   4  -2   3    0.71    0.22
  -4  -2  -3    1.06    0.17
  -4  -2  -3    1.24    0.26
   4   2   4   67.92    3.68
  -4   2  -4   57.11    3.61
   4   2   4   56.97    3.33
  -4   2  -4   60.44    3.50
   4   2   4   59.68    3.41
  -4  -2  -4   58.36    3.53
   4  -2   4   53.65    3.54
   4  -2   4   57.92    3.50
   4   2   5   10.87    0.85
   4   2   5   10.55    0.78
   4  -2   5   10.57    0.90
   4  -2   5   10.15    0.95
  -4  -2  -5   10.55    0.96
   4   2   6   18.78    1.34
   4   2   6   21.67    1.48
   4  -2   6   20.87    1.58
  -4  -2  -6   24.99    1.97
   4   2   7    2.24    0.39
   4   2   7    1.10    0.28
   4  -2   7    1.72    0.40
   4   2   8   15.93    1.23
   4   2   8   17.71    1.17
   4  -2   8   16.05    1.34
  -4   3   9   34.83    2.12
  -4   3   9   31.37    2.33
  -4  -3   9   31.91    2.34
  -4   3   8    0.24    0.28
  -4   3   8    0.44    0.20
  -4  -3   8    0.41    0.22
   4   3  -7   14.15    1.23
  -4   3   7   15.43    1.10
  -4   3   7   13.52    1.26
  -4  -3   7   15.31    1.28
   4   3  -6   14.20    1.13
  -4   3   6   13.50    1.20
  -4   3   6   14.65    1.05
  -4  -3   6   12.63    1.13
   4   3  -5   92.84    5.18
  -4   3   5   92.10    5.17
  -4   3   5   92.94    5.40
  -4  -3   5   94.09    5.31
   4  -3  -5   83.69    5.36
  -4   3   4   34.18    2.12
  -4   3   4   34.75    2.28
   4   3  -4   32.55    2.01
   4  -3  -4   32.72    2.24
  -4  -3   4   34.67    2.19
  -4   3   3   58.91    3.64
  -4   3   3   60.49    3.52
   4   3  -3   62.18    3.32
   4  -3  -3   53.58    3.64
  -4  -3   3   64.91    3.49
  -4   3   2   38.44    2.67
  -4   3   2   40.87    2.34
   4  -3  -2   36.83    2.50
  -4  -3   2   38.41    2.23
   4  -3  -2   35.51    2.33
  -4  -3   2   41.36    2.42
   4  -3  -2   36.48    2.42
  -4   3   1  201.66   10.85
  -4   3   1  200.59   10.76
  -4   3   1  197.58   10.76
  -4  -3   1  193.96   10.88
   4  -3  -1  201.23   10.89
   4  -3  -1  188.04   10.80
   4  -3  -1  197.28   10.77
  -4   3   0    7.43    0.67
   4   3   0    8.53    0.75
  -4   3   0    7.97    0.68
   4  -3   0    8.07    0.68
  -4  -3   0    8.54    0.80
   4  -3   0    8.55    0.74
   4  -3   0    7.78    0.68
  -4   3  -1  122.92    7.07
   4   3   1  127.33    7.13
  -4   3  -1  128.92    7.06
  -4  -3  -1  120.88    6.85
   4  -3   1  124.49    7.09
   4  -3   1  135.33    7.09
  -4  -3  -1  120.74    6.87
   4  -3   1  132.18    7.05
  -4   3  -2    2.33    0.33
  -4   3  -2    1.90    0.38
   4   3   2    2.25    0.45
   4  -3   2    1.94    0.36
  -4  -3  -2    2.12    0.20
   4  -3   2    2.47    0.38
  -4  -3  -2    2.52    0.29
  -4   3  -3   55.14    3.37
  -4   3  -3   59.23    3.48
   4   3   3   57.16    3.48
   4  -3   3   55.87    3.39
  -4  -3  -3   53.46    3.30
   4  -3   3   59.06    3.47
   4   3   4   38.49    2.38
   4   3   4   34.31    2.02
  -4   3  -4   35.48    2.23
  -4  -3  -4   32.44    2.19
   4  -3   4   33.54    2.23
   4  -3   4   33.04    2.28
   4   3   5   39.74    2.53
   4   3   5   37.29    2.23
  -4  -3  -5   35.40    2.37
   4  -3   5   33.83    2.42
   4   3   6    4.72    0.51
   4   3   6    4.27    0.67
  -4  -3  -6    4.72    0.65
   4  -3   6    5.18    0.64
   4  -3   6    4.15    0.61
   4   3   7   10.55    0.84
   4   3   7    8.91    0.70
   4   3   7   11.15    1.04
   4  -3   7    9.51    0.97
  -4   4   9    4.66    0.54
  -4   4   9    5.42    0.73
  -4   4   9    3.98    0.48
  -4  -4   9    5.10    0.70
  -4   4   8   13.54    1.29
  -4   4   8   15.35    1.10
  -4  -4   8   14.33    1.28
   4   4  -7   10.10    0.88
  -4   4   7    8.82    0.76
  -4   4   7    8.14    0.93
  -4  -4   7    8.09    0.91
   4   4  -6   32.22    1.94
  -4   4   6   26.44    2.07
  -4   4   6   28.13    1.89
  -4  -4   6   30.47    2.08
  -4   4   5    5.63    0.72
   4   4  -5    6.77    0.60
  -4   4   5    6.64    0.63
  -4  -4   5    8.68    0.79
  -4   4   4  109.97    6.81
  -4   4   4  118.03    6.60
   4   4  -4  128.20    6.50
  -4  -4   4  126.58    6.73
   4  -4  -4  105.81    6.81
  -4  -4   4  122.27    6.69
  -4   4   3    0.45    0.19
  -4   4   3    0.72    0.25
   4  -4  -3    0.58    0.26
  -4  -4   3    0.91    0.20
   4  -4  -3    0.69    0.24
  -4  -4   3    0.42    0.23
  -4   4   2   22.87    1.51
  -4   4   2   23.55    1.64
  -4  -4   2   23.01    1.65
   4  -4  -2   22.80    1.56
  -4  -4   2   23.79    1.48
   4  -4  -2   23.56    1.58
   4  -4  -2   23.77    1.70
   4   4  -1   49.87    2.95
  -4   4   1   46.86    2.80
  -4  -4   1   47.89    3.04
   4  -4  -1   45.03    2.95
   4  -4  -1   45.44    2.86
  -4  -4   1   48.88    2.66
   4  -4  -1   47.20    2.85
  -4   4   0  114.22    6.49
   4   4   0  121.46    6.61
  -4   4   0  121.22    6.48
  -4  -4   0  109.85    6.29
   4  -4   0  118.72    6.58
   4  -4   0  111.29    6.47
  -4  -4   0  117.35    6.68
   4  -4   0  111.80    6.50
  -4   4  -1    1.27    0.31
  -4   4  -1    1.57    0.31
   4   4   1    1.17    0.35
  -4  -4  -1    1.84    0.22
   4  -4   1    2.19    0.35
   4  -4   1    2.27    0.35
   4  -4   1    2.19    0.35
  -4  -4  -1    1.70    0.24
  -4   4  -2   74.56    4.27
  -4   4  -2   71.75    4.31
   4   4   2   70.07    4.37
   4  -4   2   75.46    4.30
   4  -4   2   74.40    4.32
   4  -4   2   76.56    4.39
  -4  -4  -2   71.83    4.15
  -4   4  -3   13.59    1.12
  -4   4  -3   15.14    1.19
   4   4   3   13.39    1.19
   4  -4   3   16.32    1.23
  -4  -4  -3   15.66    1.09
  -4   4  -4   34.29    2.22
   4   4   4   29.72    2.28
   4  -4   4   36.48    2.33
  -4  -4  -4   35.27    2.19
   4   4   5    5.35    0.68
  -4   4  -5    4.39    0.67
   4  -4   5    6.38    0.70
  -4  -4  -5    4.49    0.61
   4  -4   5    4.58    0.63
   4   4   6   28.63    2.06
   4   4   6   36.01    2.30
  -4  -4  -6   28.99    2.08
   4  -4   6   28.92    2.15
   4   4   7    3.80    0.44
   4   4   7    4.17    0.67
   4  -4   7    2.46    0.54
   4   5  -8    9.47    0.96
  -4   5   8    6.89    0.84
  -4  -5   8    8.52    0.95
  -4   5   7   52.98    3.61
  -4   5   7   54.52    3.06
  -4  -5   7   51.27    3.89
  -4   5   6    1.53    0.41
  -4   5   6    1.19    0.23
  -4  -5   6    1.13    0.30
   4  -5  -6    1.34    0.42
   4   5  -5   21.07    1.25
  -4   5   5   18.30    1.49
  -4   5   5   17.42    1.22
  -4  -5   5   19.76    1.41
  -4  -5   5   20.51    1.49
  -4  -5   5   16.69    1.33
  -4   5   4    3.76    0.54
  -4   5   4    3.56    0.41
   4   5  -4    3.90    0.34
   4  -5  -4    3.57    0.50
  -4  -5   4    3.04    0.49
  -4  -5   4    4.14    0.51
  -4   5   3  113.74    6.08
  -4   5   3  110.36    6.31
  -4  -5   3  105.46    6.27
   4  -5  -3  109.38    6.12
   4  -5  -3  108.12    6.39
   4  -5  -3  108.93    6.22
  -4   5   2    6.15    0.78
  -4   5   2    6.64    0.70
  -4  -5   2    6.77    0.60
  -4  -5   2    6.00    0.71
   4  -5  -2    7.00    0.69
   4  -5  -2    6.52    0.76
   4  -5  -2    7.42    0.68
  -4   5   1  107.26    6.12
  -4   5   1  115.10    6.17
   4   5  -1  108.56    6.30
  -4  -5   1  113.76    6.08
  -4  -5   1  108.49    6.38
   4  -5  -1  112.82    6.27
   4  -5  -1  104.05    6.36
   4   5   0   27.17    1.86
  -4   5   0   24.64    1.56
  -4   5   0   26.65    1.72
  -4   5   0   26.17    1.75
  -4  -5   0   26.07    1.93
  -4  -5   0   27.41    1.59
  -4  -5   0   25.92    1.62
   4  -5   0   25.62    1.77
   4  -5   0   26.79    1.75
   4  -5   0   27.38    1.85
  -4   5  -1   11.20    0.93
   4   5   1   11.88    1.03
  -4   5  -1   11.73    0.94
   4  -5   1   11.11    0.95
   4  -5   1   11.80    1.01
  -4  -5  -1   12.71    0.87
   4  -5   1   11.99    1.01
  -4  -5  -1   10.53    0.70
  -4   5  -2   13.12    1.07
   4   5   2   13.84    1.16
  -4   5  -2   13.58    1.05
  -4  -5  -2   13.90    0.98
   4  -5   2   14.16    1.16
   4  -5   2   12.85    1.06
   4   5   3   54.87    3.56
  -4   5  -3   59.62    3.47
  -4   5  -3   57.50    3.50
   4  -5   3   56.08    3.56
   4  -5   3   61.40    3.51
  -4  -5  -3   53.56    3.35
   4   5   4    1.85    0.42
   4  -5   4    2.00    0.45
  -4  -5  -4    2.21    0.40
   4   5   5   23.42    1.81
  -4  -5  -5   23.27    1.68
   4  -5   5   24.40    1.81
   4   5   6    4.25    0.67
   4  -5   6    4.75    0.65
   4   6  -7    2.46    0.44
  -4   6   7    2.02    0.42
  -4  -6   7    1.60    0.43
  -4   6   6   34.45    2.20
  -4   6   6   34.81    2.56
   4   6  -6   44.80    2.34
  -4  -6   6   41.12    2.66
  -4   6   5    5.35    0.68
  -4   6   5    5.30    0.47
   4   6  -5    5.66    0.48
  -4  -6   5    5.85    0.68
   4  -6  -5    6.64    0.68
  -4  -6   5    3.86    0.61
   4  -6  -5    4.97    0.74
  -4  -6   5    6.01    0.69
  -4   6   4   60.92    3.34
  -4   6   4   60.67    3.63
  -4  -6   4   55.59    3.58
  -4  -6   4   60.52    3.60
  -4  -6   4   57.58    3.48
   4  -6  -4   61.61    3.60
   4  -6  -4   52.70    3.68
  -4   6   3   19.98    1.50
  -4   6   3   20.36    1.35
   4  -6  -3   19.21    1.36
  -4  -6   3   20.54    1.54
   4  -6  -3   15.91    1.52
  -4  -6   3   21.88    1.40
  -4  -6   3   20.87    1.47
   4  -6  -3   20.80    1.47
  -4   6   2   51.53    2.82
  -4   6   2   46.77    2.90
  -4  -6   2   48.56    2.80
  -4  -6   2   47.87    3.05
   4  -6  -2   45.60    2.91
   4  -6  -2   40.47    3.03
  -4  -6   2   49.26    2.87
   4  -6  -2   47.06    2.94
  -4   6   1    5.58    0.56
  -4   6   1    6.02    0.58
   4  -6  -1    5.60    0.63
  -4  -6   1    5.71    0.55
  -4  -6   1    6.24    0.76
   4  -6  -1    7.03    0.69
  -4  -6   1    6.64    0.54
  -4   6   0   15.77    1.06
   4   6   0   16.69    1.33
  -4   6   0   16.79    1.20
  -4  -6   0   16.39    1.11
   4  -6   0   18.16    1.30
  -4  -6   0   16.64    1.17
  -4  -6   0   16.02    1.05
   4  -6   0   15.95    1.22
  -4   6  -1    5.90    0.60
  -4   6  -1    5.03    0.59
   4   6   1    5.38    0.66
   4  -6   1    6.10    0.65
  -4  -6  -1    6.10    0.58
   4  -6   1    6.20    0.66
   4   6   2   26.46    2.02
  -4   6  -2   30.68    1.96
  -4  -6  -2   29.43    1.88
   4  -6   2   28.43    1.96
   4  -6   2   31.08    2.08
  -4   6  -3    0.44    0.18
   4   6   3    0.84    0.29
   4  -6   3    0.80    0.29
  -4  -6  -3    0.85    0.25
   4  -6   3    0.64    0.27
   4   6   4   18.94    1.58
   4  -6   4   20.89    1.60
  -4  -6  -4   19.71    1.44
   4   6   5    9.17    0.99
  -4  -6  -5    7.66    0.82
   4  -6   5    8.38    0.92
   4   6   6   20.97    1.73
   4  -6   6   21.38    1.71
  -4   7   6    0.11    0.22
   4   7  -6    1.14    0.33
   4  -7  -6    0.69    0.26
  -4  -7   6    0.78    0.35
  -4   7   5   59.87    3.38
  -4   7   5   63.04    3.79
   4  -7  -5   61.58    3.75
  -4  -7   5   63.88    3.83
  -4  -7   5   57.06    3.74
  -4   7   4    1.32    0.38
  -4   7   4    0.87    0.31
  -4   7   4    1.05    0.28
  -4  -7   4    0.47    0.25
  -4  -7   4    1.61    0.39
   4  -7  -4    1.20    0.31
  -4   7   3   42.64    2.73
  -4   7   3   44.20    2.50
   4  -7  -3   38.26    2.87
  -4  -7   3   40.41    2.58
   4  -7  -3   44.05    2.73
  -4  -7   3   46.85    2.77
   4  -7  -3   39.25    2.57
  -4   7   2    0.71    0.21
  -4   7   2    0.21    0.23
   4  -7  -2    0.86    0.37
   4  -7  -2    1.07    0.31
  -4  -7   2    0.48    0.23
  -4  -7   2    0.83    0.22
   4  -7  -2    0.67    0.25
  -4   7   1   39.62    2.26
  -4   7   1   34.38    2.23
  -4  -7   1   34.97    2.16
   4  -7  -1   38.48    2.37
  -4  -7   1   35.60    2.28
   4  -7  -1   39.71    2.58
  -4  -7   1   33.85    2.24
   4  -7  -1   33.60    2.35
  -4   7   0    0.85    0.25
   4   7   0    0.59    0.27
  -4  -7   0    0.71    0.24
   4  -7   0    0.77    0.28
   4  -7   0    0.78    0.28
  -4  -7   0    0.64    0.17
  -4  -7   0    0.67    0.19
   4  -7   0    0.74    0.38
  -4   7  -1   11.48    0.92
   4   7   1    9.32    0.98
  -4  -7  -1    9.87    0.87
  -4  -7  -1   10.42    0.83
   4  -7   1    9.98    0.90
   4  -7   1   12.18    1.01
   4  -7   1    9.65    1.01
  -4   7  -2    0.48    0.27
   4  -7   2    0.10    0.20
   4  -7   2    0.20    0.23
  -4  -7  -2    1.05    0.28
   4   7   3    8.81    0.98
  -4  -7  -3   10.72    0.94
   4  -7   3   11.78    1.06
   4   7   4    0.35    0.27
  -4  -7  -4    0.39    0.26
   4   7   5   27.44    2.11
   4  -7   5   27.99    2.07
  -4   8   5    2.74    0.61
   4  -8  -5    3.67    0.57
  -4  -8   5    3.48    0.63
  -4   8   4   34.09    2.37
  -4   8   4   36.15    2.10
  -4  -8   4   34.11    2.34
   4  -8  -4   31.54    2.27
  -4   8   3    7.50    0.59
  -4   8   3    6.65    0.77
  -4  -8   3    7.87    0.81
   4  -8  -3    6.45    0.74
  -4  -8   3    6.94    0.68
   4  -8  -3    6.58    0.64
  -4  -8   3    5.33    0.87
  -4   8   2   31.78    1.81
  -4   8   2   27.60    1.91
   4  -8  -2   27.22    1.98
  -4  -8   2   29.63    1.97
   4  -8  -2   28.35    1.93
  -4  -8   2   28.52    1.81
  -4  -8   2   28.19    2.10
  -4  -8   2   24.88    1.90
  -4   8   1    5.36    0.54
  -4   8   1    5.61    0.55
  -4  -8   1    5.17    0.62
  -4  -8   1    4.39    0.49
   4  -8  -1    4.63    0.60
   4  -8  -1    4.00    0.60
  -4  -8   1    4.76    0.55
   4   8   0    5.01    0.68
  -4   8   0    7.21    0.64
   4  -8   0    5.09    0.93
  -4  -8   0    5.46    0.65
   4  -8   0    5.02    0.66
  -4  -8   0    4.94    0.57
  -4  -8   0    5.60    0.51
   4   8   1    1.72    0.43
  -4  -8  -1    1.72    0.40
   4  -8   1    1.24    0.37
  -4  -8  -1    1.51    0.31
   4  -8   1    0.84    0.33
   4   8   2    7.02    0.85
  -4  -8  -2    8.76    1.18
  -4  -8  -2    8.59    0.76
   4  -8   2    7.74    0.87
   4   8   3    1.50    0.41
   4  -8   3    1.35    0.42
  -4  -8  -3    1.30    0.39
  -4  -8  -3    1.31    0.33
  -4   9   2    0.63    0.27
  -4  -9   2    0.55    0.27
   4  -9  -2    0.56    0.36
   4  -9  -2    0.45    0.26
  -4  -9   2    0.76    0.30
  -4   9   1   15.95    1.10
   4  -9  -1   15.68    1.26
   4  -9  -1   13.60    1.25
  -4  -9   1   13.10    1.17
  -4  -9   1   14.75    1.06
  -4  -9   0    2.22    0.54
  -4  -9   0    1.79    0.38
   4  -9   0    1.99    0.43
  -4  -9   0    2.32    0.36
  -5   0   9    0.33    0.25
  -5   0   8   16.19    1.36
  -5   0   7    0.71    0.27
   5   0  -7    0.38    0.27
   5   0  -5    1.04    0.29
  -5   0   5    0.87    0.27
   5   0  -4  188.62   10.30
  -5   0   4  184.41   10.28
  -5   0   3    0.33    0.14
   5   0  -3    0.40    0.15
  -5   0   2  185.29    9.84
   5   0  -2  176.38    9.80
   5   0  -1    0.77    0.16
   5   0  -1    0.94    0.23
  -5   0   1    1.11    0.26
  -5   0   1    1.25    0.19
   5   0  -1    0.94    0.13
  -5   0   1    1.01    0.15
   5   0   0  596.22   35.35
   5   0   0  656.88   35.56
   5   0   0  649.58   35.37
  -5   0   0  753.04   35.60
  -5   0   0  648.16   35.43
  -5   0   0  666.84   35.45
  -5   0   0  680.52   35.56
   5   0   1    0.20    0.09
   5   0   1    0.24    0.12
  -5   0  -1    0.24    0.13
  -5   0  -1    0.27    0.11
   5   0   1    0.41    0.12
   5   0   1    0.22    0.14
   5   0   2   82.32    4.43
   5   0   2   85.30    4.51
  -5   0  -2   73.95    4.51
   5   0   2   75.81    4.46
   5   0   2   80.51    4.52
  -5   0  -2   80.20    4.52
  -5   0  -3    0.35    0.17
   5   0   3    0.39    0.17
   5   0   3    0.21    0.14
   5   0   3    0.22    0.13
  -5   0  -4   28.60    1.98
   5   0   4   28.76    1.92
   5   0   4   28.45    1.87
  -5   0  -4   27.29    1.85
   5   0   4   33.88    1.93
  -5   0  -5    0.51    0.24
   5   0   5    0.60    0.19
   5   0   5    0.12    0.18
   5   0   6   24.89    1.65
  -5   0  -6   24.05    1.82
   5   0   6   24.28    1.68
   5   0   7    0.52    0.21
  -5   1   9   13.50    1.28
  -5  -1   9   13.28    1.24
  -5   1   8    8.81    0.96
   5  -1  -8    9.65    1.06
  -5  -1   8    9.49    0.98
   5   1  -7   39.86    2.75
  -5   1   7   41.03    2.79
  -5  -1   7   44.96    2.79
   5  -1  -7   42.20    2.85
  -5   1   6   25.89    1.84
   5   1  -6   25.41    1.80
   5  -1  -6   23.46    1.82
  -5  -1   6   25.48    1.79
  -5   1   5   35.93    2.34
   5   1  -5   35.13    2.25
   5  -1  -5   35.65    2.34
  -5  -1   5   33.38    2.25
   5   1  -4   13.13    0.99
  -5   1   4   14.38    1.10
   5  -1  -4   13.50    1.08
  -5  -1   4   13.90    1.03
  -5   1   3  215.69   11.58
  -5   1   3  212.11   11.54
   5   1  -3  203.52   11.39
  -5  -1   3  222.53   11.48
   5  -1  -3  201.23   11.56
  -5   1   2    2.51    0.33
  -5   1   2    2.65    0.37
   5  -1  -2    2.09    0.26
  -5  -1   2    2.31    0.25
   5  -1  -2    2.81    0.34
  -5   1   1  338.64   16.39
  -5   1   1  266.12   16.19
  -5   1   1  344.85   16.32
  -5  -1   1  265.58   16.07
   5  -1  -1  334.60   16.38
  -5  -1   1  303.79   16.29
   5  -1  -1  315.90   16.49
  -5  -1   1  290.73   16.26
   5  -1  -1  255.80   16.16
   5   1   0   11.42    0.86
  -5   1   0   12.83    0.88
  -5   1   0   11.92    0.77
   5   1   0   11.66    0.87
  -5   1   0   11.43    0.84
  -5   1   0   13.08    0.93
   5  -1   0   11.43    0.92
   5  -1   0   11.94    0.88
  -5  -1   0   10.22    0.70
  -5  -1   0   11.76    0.91
  -5  -1   0   12.65    0.89
   5  -1   0   10.99    0.81
  -5   1  -1  106.75    5.64
   5   1   1   98.09    5.59
   5   1   1   97.82    5.58
  -5   1  -1   99.91    5.60
  -5  -1  -1  103.80    5.56
  -5  -1  -1   97.55    5.67
   5  -1   1  101.70    5.44
   5  -1   1  100.28    5.54
  -5  -1  -1   95.34    5.47
   5  -1   1  100.73    5.62
   5  -1   1   96.78    5.55
  -5   1  -2   51.81    3.15
   5   1   2   49.47    2.90
   5   1   2   57.19    2.95
   5   1   2   51.82    3.07
   5   1   2   54.47    3.13
  -5  -1  -2   54.07    3.05
   5  -1   2   52.89    3.05
   5  -1   2   51.72    3.10
  -5  -1  -2   50.04    3.05
   5  -1   2   55.65    2.98
   5  -1   2   49.62    3.08
  -5   1  -3   23.32    1.64
   5   1   3   25.54    1.64
   5   1   3   23.16    1.51
  -5   1  -3   23.88    1.58
   5   1   3   23.87    1.48
  -5  -1  -3   23.01    1.49
   5  -1   3   22.38    1.56
  -5  -1  -3   22.46    1.56
   5  -1   3   26.25    1.51
   5  -1   3   22.09    1.57
  -5   1  -4   10.08    0.83
   5   1   4   11.21    0.81
  -5   1  -4    9.44    0.90
   5   1   4    9.98    0.80
   5   1   4   10.25    0.90
  -5  -1  -4   10.52    0.90
  -5  -1  -4    8.21    0.83
   5  -1   4    9.67    0.83
   5  -1   4   10.39    0.87
   5   1   5   22.01    1.57
  -5   1  -5   21.02    1.47
   5   1   5   22.99    1.46
  -5   1  -5   21.23    1.58
   5   1   5   18.77    1.40
  -5  -1  -5   21.59    1.58
   5  -1   5   19.74    1.46
   5  -1   5   21.50    1.52
  -5   1  -6    0.72    0.29
   5   1   6    0.56    0.21
   5   1   6    0.14    0.20
   5   1   6    0.32    0.27
   5  -1   6    0.35    0.22
   5  -1   6    0.06    0.15
  -5  -1  -6    0.71    0.28
   5   1   7   14.39    1.09
   5   1   7   14.85    1.07
   5  -1   7   14.11    1.13
   5  -1   7   10.48    1.23
  -5   2   9    0.81    0.30
  -5  -2   9    0.71    0.29
  -5   2   8   18.13    1.69
  -5  -2   8   21.33    1.66
  -5   2   7    0.39    0.24
   5   2  -7    0.05    0.22
  -5  -2   7    0.65    0.26
   5   2  -6   47.53    2.89
  -5   2   6   45.30    3.00
   5  -2  -6   44.05    3.01
  -5  -2   6   47.97    2.96
   5   2  -5    5.73    0.57
  -5   2   5    5.62    0.65
  -5   2   5    5.72    0.57
   5  -2  -5    5.34    0.66
  -5  -2   5    5.98    0.62
  -5   2   4   24.78    1.69
   5   2  -4   21.72    1.44
  -5   2   4   23.44    1.57
  -5  -2   4   23.38    1.56
  -5   2   3   33.60    2.09
   5  -2  -3   36.28    2.12
  -5  -2   3   31.64    1.96
   5  -2  -3   28.56    2.07
  -5   2   2  335.24   18.03
  -5   2   2  340.68   18.01
  -5  -2   2  323.79   17.76
   5  -2  -2  323.01   17.90
  -5  -2   2  373.15   18.00
   5  -2  -2  320.88   17.99
   5  -2  -2  308.22   17.95
  -5   2   1   13.66    1.01
  -5   2   1   12.30    0.93
  -5   2   1   12.61    1.00
   5  -2  -1   12.78    1.02
   5  -2  -1   12.48    0.99
  -5  -2   1   14.32    1.04
   5  -2  -1   13.61    0.94
  -5   2   0  227.10   13.51
  -5   2   0  261.24   13.59
  -5   2   0  252.58   13.59
   5   2   0  231.12   13.57
  -5  -2   0  222.30   13.62
   5  -2   0  275.43   13.63
   5  -2   0  288.88   13.61
  -5  -2   0  238.46   13.47
   5  -2   0  247.96   13.53
  -5   2  -1    4.99    0.53
   5   2   1    5.43    0.55
  -5   2  -1    5.32    0.61
  -5  -2  -1    6.00    0.42
   5  -2   1    5.31    0.53
  -5  -2  -1    5.09    0.61
   5  -2   1    5.21    0.55
  -5  -2  -1    6.05    0.50
   5  -2   1    5.14    0.52
  -5   2  -2   67.67    4.01
  -5   2  -2   72.38    4.01
   5   2   2   68.71    4.01
   5   2   2   66.59    3.85
  -5  -2  -2   66.94    3.82
   5  -2   2   68.08    3.94
  -5  -2  -2   66.81    3.85
   5  -2   2   67.41    3.96
   5  -2   2   68.67    3.98
   5   2   3    6.67    0.69
   5   2   3    6.49    0.59
  -5   2  -3    7.04    0.70
  -5   2  -3    7.73    0.70
  -5  -2  -3    6.84    0.64
   5  -2   3    6.84    0.68
  -5  -2  -3    7.12    0.55
   5  -2   3    6.71    0.67
   5  -2   3    7.91    0.53
   5   2   4   35.80    2.22
   5   2   4   38.94    2.19
  -5   2  -4   38.34    2.37
   5   2   4   40.25    2.47
  -5   2  -4   36.14    2.45
  -5  -2  -4   37.26    2.17
   5  -2   4   37.50    2.36
   5  -2   4   34.04    2.37
  -5  -2  -4   35.08    2.34
  -5   2  -5    2.98    0.43
   5   2   5    1.99    0.36
  -5   2  -5    2.14    0.74
   5   2   5    2.95    0.48
   5   2   5    2.13    0.35
   5  -2   5    2.43    0.43
  -5  -2  -5    2.32    0.46
   5  -2   5    2.11    0.43
   5   2   6   26.57    1.64
  -5  -2  -6   24.35    1.80
   5  -2   6   22.47    1.71
   5   2   7    2.89    0.43
   5   2   7    4.18    0.47
   5  -2   7    3.56    0.57
  -5   3   9   28.47    2.19
  -5   3   9   31.32    1.98
  -5  -3   9   30.04    2.18
  -5   3   8    2.56    0.52
  -5   3   8    2.68    0.46
  -5  -3   8    3.70    0.57
  -5   3   7   11.79    0.93
  -5   3   7    9.87    1.03
   5   3  -7   11.22    1.01
   5  -3  -7    9.12    1.08
  -5  -3   7   11.94    1.06
  -5   3   6    0.84    0.31
  -5   3   6    1.03    0.27
   5   3  -6    0.57    0.20
   5  -3  -6    1.04    0.28
  -5  -3   6    0.32    0.23
  -5   3   5   73.92    4.18
   5   3  -5   72.15    4.06
  -5   3   5   69.72    4.32
  -5  -3   5   75.54    4.24
   5  -3  -5   64.28    4.29
  -5   3   4   10.29    1.01
   5   3  -4   12.22    0.82
  -5   3   4   12.54    0.99
  -5  -3   4   11.99    0.93
   5  -3  -4   11.30    1.02
  -5   3   3  133.66    7.58
  -5   3   3  129.82    7.67
   5  -3  -3  118.86    7.63
  -5  -3   3  141.13    7.48
  -5  -3   3  150.66    7.62
   5  -3  -3  140.25    7.57
  -5   3   2   66.23    3.74
  -5   3   2   66.96    3.68
   5  -3  -2   59.16    3.62
  -5  -3   2   56.01    3.45
   5  -3  -2   67.67    3.78
   5  -3  -2   62.47    3.68
  -5  -3   2   58.75    3.69
  -5   3   1   77.03    4.58
  -5   3   1   83.05    4.68
  -5  -3   1   77.84    4.71
   5  -3  -1   86.43    4.72
   5  -3  -1   73.03    4.57
   5  -3  -1   86.16    4.70
  -5   3   0   71.64    4.00
  -5   3   0   66.65    3.97
   5   3   0   71.08    4.06
   5  -3   0   68.22    4.02
   5  -3   0   66.51    3.99
  -5  -3   0   66.36    4.11
  -5  -3   0   71.10    3.87
   5  -3   0   66.40    3.98
  -5   3  -1  120.34    6.56
   5   3   1  107.22    6.56
  -5   3  -1  111.58    6.54
  -5  -3  -1  108.24    6.35
   5  -3   1  123.34    6.79
   5  -3   1  119.15    6.54
   5  -3   1  124.24    6.59
  -5   3  -2    1.49    0.34
  -5   3  -2    1.21    0.32
   5   3   2    1.67    0.36
  -5  -3  -2    2.02    0.24
  -5  -3  -2    2.09    0.26
   5  -3   2    1.87    0.34
   5  -3   2    1.95    0.35
   5  -3   2    1.48    0.35
  -5   3  -3   29.04    1.94
  -5   3  -3   27.43    1.87
   5   3   3   29.76    1.96
  -5  -3  -3   25.96    1.61
  -5  -3  -3   29.27    1.80
   5  -3   3   28.29    1.92
   5  -3   3   28.08    1.89
  -5   3  -4    7.81    0.75
   5   3   4   10.00    0.88
   5   3   4    7.48    0.70
  -5  -3  -4    6.83    0.70
   5  -3   4    7.74    0.76
   5  -3   4    7.28    0.78
   5   3   5   26.71    1.84
   5   3   5   23.54    1.46
   5   3   5   23.50    1.46
   5  -3   5   22.43    1.73
  -5  -3  -5   24.67    1.72
   5   3   6    3.13    0.37
   5   3   6    2.95    0.71
   5   3   6    2.23    0.35
   5  -3   6    2.93    0.53
  -5  -3  -6    3.06    0.56
   5   3   7   15.02    1.07
   5   3   7   18.20    1.40
   5   3   7   13.01    0.97
   5  -3   7   15.39    1.28
  -5   4   9    5.03    0.76
  -5   4   9    5.31    0.60
  -5  -4   9    4.81    0.74
  -5   4   8   18.37    1.58
  -5   4   8   19.69    1.37
  -5  -4   8   19.19    1.57
  -5   4   7    1.74    0.44
  -5   4   7    1.36    0.33
   5   4  -7    1.34    0.30
  -5  -4   7    2.05    0.42
  -5   4   6   31.54    2.28
  -5   4   6   32.66    2.10
  -5  -4   6   33.27    2.23
   5   4  -5   37.75    2.09
  -5   4   5   34.43    2.23
  -5   4   5   33.92    2.41
  -5  -4   5   34.69    2.30
   5   4  -4   90.69    4.58
  -5   4   4   81.29    5.00
   5  -4  -4   83.76    4.87
   5  -4  -4   74.23    4.96
  -5  -4   4   87.64    4.92
  -5  -4   4   84.34    4.87
  -5   4   3    8.13    0.94
  -5   4   3    7.48    0.75
   5  -4  -3    6.38    0.74
  -5  -4   3    6.50    0.68
   5  -4  -3    6.28    0.64
  -5  -4   3    6.60    0.59
   5  -4  -3    6.57    0.64
  -5   4   2   38.40    2.45
  -5   4   2   37.46    2.35
   5  -4  -2   37.47    2.40
  -5  -4   2   37.99    2.46
  -5  -4   2   38.78    2.21
   5  -4  -2   38.60    2.49
   5  -4  -2   34.82    2.33
  -5   4   1    2.42    0.43
  -5   4   1    3.19    0.43
   5  -4  -1    1.85    0.42
  -5  -4   1    2.70    0.23
  -5  -4   1    2.67    0.46
   5  -4  -1    3.12    0.39
   5  -4  -1    1.51    0.40
  -5   4   0  148.16    8.55
  -5   4   0  161.14    8.58
   5   4   0  161.88    8.68
   5  -4   0  154.17    8.58
  -5  -4   0  151.17    8.75
   5  -4   0  150.59    8.57
   5  -4   0  152.38    8.64
   5   4   1    8.09    0.78
  -5   4  -1    7.32    0.72
  -5   4  -1    7.71    0.72
   5  -4   1    8.37    0.77
  -5  -4  -1    7.40    0.65
   5  -4   1    8.04    0.74
  -5  -4  -1    7.55    0.57
   5  -4   1    7.12    0.71
  -5   4  -2   37.33    2.39
   5   4   2   34.94    2.43
  -5   4  -2   37.02    2.42
   5  -4   2   40.51    2.42
   5  -4   2   39.60    2.46
  -5  -4  -2   35.37    2.20
   5  -4   2   38.00    2.40
  -5   4  -3   18.73    1.37
   5   4   3   18.39    1.44
   5  -4   3   19.41    1.38
   5  -4   3   17.70    1.40
  -5  -4  -3   17.56    1.25
  -5   4  -4   31.81    2.10
   5   4   4   29.39    2.16
  -5  -4  -4   30.77    2.02
   5  -4   4   33.05    2.18
   5   4   5    7.52    0.84
  -5  -4  -5    7.68    0.78
   5  -4   5    8.09    0.86
   5   4   6   30.22    2.12
  -5  -4  -6   28.69    2.16
   5  -4   6   24.54    1.96
  -5   5   8    2.24    0.38
   5   5  -8    1.55    0.41
  -5   5   8    1.54    0.38
  -5  -5   8    2.39    0.48
   5   5  -7   60.37    3.21
  -5   5   7   49.83    3.46
  -5   5   7   53.37    3.17
  -5  -5   7   52.17    3.52
  -5   5   6   11.79    0.91
   5   5  -6   11.86    0.87
  -5   5   6   10.10    1.09
  -5  -5   6   14.88    1.16
   5   5  -5   18.64    1.10
  -5   5   5   16.41    1.20
  -5   5   5   15.84    1.41
  -5  -5   5   16.42    1.32
  -5  -5   5   20.19    1.40
  -5   5   4    5.87    0.57
  -5   5   4    5.55    0.69
  -5  -5   4    6.72    0.65
  -5  -5   4    5.17    0.68
   5  -5  -4    6.08    0.65
  -5   5   3   83.09    4.56
  -5   5   3   77.93    4.73
   5  -5  -3   76.43    4.70
  -5  -5   3   85.43    4.60
  -5  -5   3   78.13    4.72
   5  -5  -3   76.33    4.64
  -5   5   2    3.92    0.48
  -5   5   2    3.50    0.51
  -5  -5   2    4.09    0.40
   5  -5  -2    3.68    0.53
  -5  -5   2    4.06    0.57
   5  -5  -2    4.90    0.64
   5  -5  -2    3.48    0.45
  -5   5   1   28.14    1.78
  -5   5   1   26.41    1.66
   5  -5  -1   25.74    1.83
  -5  -5   1   24.51    1.91
   5  -5  -1   27.88    1.82
   5  -5  -1   26.84    1.94
  -5  -5   1   27.39    1.61
  -5   5   0    2.22    0.41
   5   5   0    2.33    0.40
  -5   5   0    1.97    0.39
  -5  -5   0    1.52    0.42
  -5  -5   0    1.76    0.25
   5  -5   0    1.95    0.39
   5  -5   0    1.81    0.44
   5  -5   0    1.57    0.36
   5   5   1   25.24    1.86
  -5   5  -1   26.12    1.77
  -5   5  -1   25.16    1.79
  -5  -5  -1   28.73    1.64
   5  -5   1   26.40    1.84
  -5  -5  -1   26.59    1.56
   5  -5   1   25.94    1.79
   5  -5   1   26.48    1.85
  -5   5  -2   21.24    1.51
  -5   5  -2   21.16    1.49
   5   5   2   19.43    1.54
   5  -5   2   20.13    1.55
   5  -5   2   21.25    1.51
  -5  -5  -2   20.12    1.35
   5  -5   2   21.16    1.51
  -5   5  -3   81.28    4.59
   5   5   3   77.52    4.68
  -5  -5  -3   74.41    4.43
   5  -5   3   77.00    4.65
  -5   5  -4    3.53    0.53
  -5   5  -4    3.76    0.64
   5   5   4    3.94    0.58
  -5  -5  -4    4.27    0.50
   5  -5   4    3.68    0.56
   5  -5   4    5.27    0.65
   5   5   5   20.43    1.63
   5  -5   5   22.33    1.63
  -5  -5  -5   17.67    1.84
   5   5   6    0.55    0.31
   5  -5   6    0.71    0.32
  -5   6   7    1.70    0.44
   5   6  -7    2.63    0.38
  -5  -6   7    2.00    0.46
  -5   6   6   43.11    3.05
   5   6  -6   51.73    2.71
  -5   6   6   42.92    2.72
  -5  -6   6   53.33    3.11
  -5  -6   6   43.89    2.95
  -5   6   5    1.08    0.25
  -5   6   5    1.06    0.35
  -5  -6   5    0.87    0.28
   5  -6  -5    1.48    0.46
  -5  -6   5    1.41    0.33
  -5   6   4   24.33    1.87
  -5   6   4   26.74    1.67
  -5  -6   4   26.28    1.75
  -5  -6   4   29.45    1.84
   5  -6  -4   24.27    1.81
  -5   6   3   21.62    1.67
  -5   6   3   24.18    1.53
  -5  -6   3   22.54    1.70
   5  -6  -3   21.08    1.55
  -5  -6   3   22.55    1.52
  -5  -6   3   22.52    1.58
   5  -6  -3   25.66    1.68
  -5   6   2   22.89    1.47
  -5   6   2   19.94    1.46
  -5  -6   2   21.25    1.66
   5  -6  -2   20.64    1.54
  -5  -6   2   21.93    1.44
  -5  -6   2   20.89    1.40
   5  -6  -2   22.04    1.57
  -5   6   1    7.42    0.65
  -5   6   1    8.54    0.74
   5  -6  -1    7.71    0.79
  -5  -6   1    9.06    0.93
  -5  -6   1    8.12    0.64
   5  -6  -1    8.23    0.80
  -5  -6   1    7.96    0.64
   5   6   0   27.17    2.03
  -5   6   0   32.09    1.97
  -5  -6   0   29.04    1.75
   5  -6   0   29.19    2.00
  -5  -6   0   31.41    1.86
  -5  -6   0   27.97    1.79
   5  -6   0   32.13    2.05
  -5   6  -1    5.75    0.61
   5   6   1    5.73    0.69
  -5  -6  -1    5.93    0.54
   5  -6   1    5.07    0.62
   5  -6   1    4.81    0.64
   5   6   2   27.53    2.05
  -5   6  -2   29.85    1.98
   5  -6   2   29.75    2.09
   5  -6   2   28.03    2.00
  -5  -6  -2   31.42    1.88
  -5   6  -3    1.15    0.35
   5   6   3    1.30    0.45
  -5   6  -3    1.50    0.34
   5  -6   3    1.92    0.55
  -5  -6  -3    2.29    0.36
   5   6   4   34.34    2.39
  -5  -6  -4   33.25    2.17
   5  -6   4   33.72    2.36
   5   6   5    2.44    0.52
   5  -6   5    2.69    0.55
  -5  -6  -5    1.93    0.44
  -5   7   6    0.21    0.17
  -5   7   6    0.24    0.28
  -5  -7   6    1.14    0.35
   5  -7  -6    0.59    0.28
  -5   7   5   49.73    2.95
  -5   7   5   49.57    3.26
   5  -7  -5   48.75    3.23
  -5  -7   5   58.80    3.33
  -5   7   4    0.90    0.31
  -5   7   4    0.42    0.16
  -5   7   4    0.42    0.21
   5  -7  -4    0.86    0.29
  -5  -7   4    0.71    0.25
  -5  -7   4    0.69    0.33
  -5  -7   4    0.26    0.24
  -5   7   3   20.15    1.48
  -5   7   3   20.94    1.35
   5  -7  -3   17.51    1.82
   5  -7  -3   19.80    1.41
  -5  -7   3   20.91    1.48
  -5  -7   3   19.84    1.37
  -5  -7   3   17.39    1.65
  -5   7   2    0.41    0.18
  -5   7   2    0.52    0.22
  -5  -7   2    0.35    0.18
   5  -7  -2    0.15    0.21
   5  -7  -2    0.61    0.27
   5  -7  -2    0.03    0.27
  -5  -7   2    0.40    0.18
  -5   7   1    5.27    0.56
  -5   7   1    3.61    0.49
  -5  -7   1    5.31    0.55
  -5  -7   1    4.32    0.48
  -5  -7   1    3.70    0.64
   5  -7  -1    5.92    0.67
  -5  -7   1    5.20    0.47
   5  -7  -1    4.15    0.59
   5  -7  -1    5.31    1.11
   5   7   0    0.40    0.24
  -5   7   0    0.23    0.19
  -5  -7   0    0.63    0.21
  -5  -7   0    0.48    0.16
   5  -7   0    0.49    0.19
   5  -7   0   -0.10    0.20
  -5  -7   0    0.14    0.12
   5   7   1   28.45    2.31
  -5   7  -1   29.51    1.99
  -5   7  -1   31.41    1.98
  -5  -7  -1   28.13    1.83
   5  -7   1   29.61    2.00
   5  -7   1   29.79    2.23
  -5  -7  -1   29.02    1.90
  -5   7  -2    0.71    0.40
   5   7   2    0.29    0.21
   5  -7   2    0.20    0.25
  -5  -7  -2    0.81    0.23
   5   7   3   28.00    2.18
   5  -7   3   32.12    2.25
  -5  -7  -3   33.62    2.07
   5   7   4    0.35    0.28
  -5  -7  -4    0.92    0.35
   5  -7   4    1.04    0.36
  -5   8   5    1.66    0.42
  -5   8   5    1.53    0.23
  -5   8   5    0.84    0.30
  -5  -8   5    1.42    0.37
   5  -8  -5    0.93    0.33
  -5   8   4   16.46    1.35
  -5   8   4   16.14    1.08
  -5  -8   4   17.83    1.36
   5  -8  -4   14.76    1.29
  -5   8   3    4.73    0.48
  -5   8   3    3.67    0.58
   5  -8  -3    4.63    0.62
   5  -8  -3    5.41    0.63
  -5  -8   3    4.26    0.57
  -5  -8   3    4.34    0.61
  -5   8   2    8.03    0.76
  -5   8   2    8.24    0.72
  -5  -8   2    8.87    0.82
  -5  -8   2    8.46    0.79
   5  -8  -2    8.47    0.87
  -5  -8   2    8.17    0.74
   5  -8  -2    7.66    0.86
  -5   8   1    2.32    0.34
   5  -8  -1    2.08    0.60
  -5  -8   1    2.54    0.42
  -5  -8   1    2.26    0.38
  -5  -8   1    2.58    0.46
   5  -8  -1    1.90    0.43
  -5   8   0    9.44    0.82
   5   8   0    7.96    0.88
   5  -8   0    8.48    0.88
  -5  -8   0    8.48    0.65
   5  -8   0    8.20    0.88
  -5  -8   0    9.62    0.85
  -5  -8   0    9.21    0.79
  -5   8  -1    0.37    0.22
   5   8   1    0.92    0.36
  -5  -8  -1    0.86    0.26
   5  -8   1    1.06    0.33
  -5  -8  -1    0.88    0.30
   5   8   2   16.47    1.44
   5  -8   2   19.82    1.54
  -5  -8  -2   17.39    1.28
  -5  -8  -2   18.81    1.38
   5   8   3    1.41    0.40
   5  -8   3    1.09    0.36
  -5  -8  -3    2.03    0.40
  -6   0   9    0.41    0.26
  -6   0   8   21.66    1.68
   6   0  -7    0.66    0.28
  -6   0   7    0.27    0.16
  -6   0   6   41.71    2.67
   6   0  -6   40.69    2.69
  -6   0   5    0.15    0.13
   6   0  -5    0.32    0.19
  -6   0   4  270.56   15.22
   6   0  -4  287.99   15.21
  -6   0   3    0.95    0.31
  -6   0   3    1.02    0.25
   6   0  -3    1.45    0.26
   6   0  -3    1.69    0.21
  -6   0   2  249.08   14.09
   6   0  -2  265.08   13.95
  -6   0   2  262.44   14.01
   6   0  -1    0.90    0.14
  -6   0   1    0.36    0.19
   6   0  -1    0.67    0.22
  -6   0   1    0.59    0.15
  -6   0   1    0.54    0.16
   6   0  -1    0.59    0.12
  -6   0   1    0.70    0.19
  -6   0   0  110.32    5.87
  -6   0   0  105.06    5.72
  -6   0   0  105.02    5.71
  -6   0   0  109.14    5.79
   6   0   0  101.74    5.62
   6   0   0   91.43    5.60
   6   0   0  102.68    5.85
  -6   0  -1    0.20    0.11
   6   0   1    0.17    0.08
  -6   0  -1    0.26    0.15
   6   0   1    0.14    0.09
   6   0   1    0.07    0.06
   6   0   1    0.00    0.11
   6   0   2   15.65    1.03
   6   0   2   15.85    1.10
   6   0   2   16.49    1.18
  -6   0  -2   15.95    1.15
  -6   0  -2   14.77    1.43
   6   0   2   16.99    1.07
   6   0   3    0.41    0.18
  -6   0  -3    0.40    0.20
   6   0   3    0.34    0.16
   6   0   3    0.73    0.20
   6   0   3    0.40    0.18
  -6   0  -3    0.83    0.24
   6   0   4   26.85    1.81
  -6   0  -4   27.16    1.81
  -6   0  -4   26.94    1.89
   6   0   4   26.57    1.81
   6   0   4   30.67    1.81
   6   0   5    0.95    0.27
   6   0   5    1.03    0.26
  -6   0  -5    1.09    0.32
   6   0   5    1.19    0.26
  -6   0  -5    0.81    0.24
   6   0   6   51.55    3.40
   6   0   6   58.23    3.44
   6   0   6   62.89    3.54
   6   0   7    0.05    0.16
   6   0   7   -0.27    0.31
   6   0   7   -0.19    0.22
  -6   1   9    9.58    1.05
  -6  -1   9   11.09    1.08
  -6   1   8    2.48    0.56
   6  -1  -8    2.19    0.58
  -6  -1   8    3.03    0.49
   6   1  -7   27.29    1.95
  -6   1   7   27.42    2.01
   6  -1  -7   27.61    2.04
  -6  -1   7   27.27    1.97
   6   1  -6   11.42    0.99
  -6   1   6   12.16    1.06
   6  -1  -6   10.25    1.02
  -6  -1   6   10.42    0.96
  -6   1   5   89.38    5.21
   6   1  -5   90.04    5.11
  -6  -1   5   89.25    5.15
   6  -1  -5   87.37    5.22
   6   1  -4   22.07    1.52
  -6   1   4   23.31    1.62
  -6   1   4   23.87    1.66
  -6  -1   4   26.82    1.63
   6  -1  -4   24.21    1.67
   6   1  -3  174.94   10.39
  -6   1   3  205.04   10.66
  -6   1   3  189.72   10.86
   6   1  -3  200.53   10.38
  -6  -1   3  193.90   10.52
   6  -1  -3  192.72   10.51
   6  -1  -3  195.17   10.63
  -6   1   2   45.18    2.73
  -6   1   2   46.52    2.68
  -6  -1   2   42.94    2.51
   6  -1  -2   41.00    2.54
  -6  -1   2   43.20    2.64
   6  -1  -2   44.84    2.63
  -6   1   1  138.57    6.90
  -6   1   1  136.36    6.80
  -6   1   1  111.12    6.69
   6  -1  -1  135.50    6.89
  -6  -1   1  117.08    6.78
   6  -1  -1  139.03    6.76
  -6  -1   1  105.66    6.57
  -6  -1   1  121.33    6.79
   6  -1  -1  107.45    6.66
  -6  -1   1  109.04    6.58
  -6   1   0    8.44    0.72
   6   1   0    8.74    0.69
  -6   1   0    7.57    0.58
  -6   1   0    7.09    0.62
   6   1   0    7.67    0.65
  -6   1   0    7.44    0.65
  -6  -1   0    8.43    0.70
  -6  -1   0    7.03    0.68
  -6  -1   0    7.36    0.53
   6  -1   0    8.10    0.63
  -6  -1   0    7.61    0.53
   6  -1   0    7.85    0.73
   6  -1   0    6.85    0.58
   6   1   1   22.95    1.51
  -6   1  -1   23.68    1.56
   6   1   1   21.73    1.48
  -6   1  -1   22.86    1.50
   6  -1   1   21.90    1.44
   6  -1   1   23.24    1.56
  -6  -1  -1   23.44    1.49
  -6  -1  -1   22.68    1.58
   6  -1   1   23.44    1.45
  -6  -1  -1   21.10    1.39
  -6   1  -2   11.22    0.95
   6   1   2   11.45    0.92
   6   1   2   13.47    0.97
   6  -1   2   12.55    0.88
   6  -1   2   11.81    0.90
  -6  -1  -2   12.37    0.92
   6  -1   2   12.08    0.81
  -6  -1  -2   11.31    0.88
   6  -1   2   11.49    0.94
   6   1   3   38.14    2.30
  -6   1  -3   37.88    2.56
   6   1   3   42.71    2.55
   6   1   3   39.64    2.47
   6   1   3   42.68    2.36
  -6   1  -3   43.49    2.56
   6  -1   3   40.68    2.45
   6  -1   3   41.40    2.40
  -6  -1  -3   40.94    2.51
   6  -1   3   38.84    2.51
   6  -1   3   39.75    2.49
  -6   1  -4   10.89    0.97
  -6   1  -4   10.91    0.90
   6   1   4   10.58    0.92
   6   1   4   10.64    0.81
   6   1   4   10.53    0.99
   6  -1   4   10.76    0.89
   6  -1   4   10.15    0.90
  -6  -1  -4    9.84    0.91
  -6  -1  -4   11.42    0.85
   6  -1   4   11.58    0.85
   6   1   5   43.84    2.68
  -6   1  -5   41.01    2.79
   6   1   5   39.80    2.53
   6   1   5   45.04    2.52
  -6   1  -5   41.46    2.61
  -6  -1  -5   38.98    2.65
   6  -1   5   41.99    2.55
   6  -1   5   41.12    2.60
   6  -1   5   38.84    2.58
   6   1   6    2.34    0.39
   6   1   6    2.64    0.39
   6   1   6    2.59    0.47
   6  -1   6    2.53    0.40
   6  -1   6    2.95    0.45
   6   1   7   19.91    1.46
   6   1   7   24.11    1.92
   6   1   7   19.77    1.45
   6  -1   7   18.87    1.50
   6  -1   7   23.54    1.54
   6   2  -9    1.60    0.52
  -6   2   9    0.90    0.36
  -6  -2   9    1.65    0.47
   6   2  -8   19.53    1.58
  -6   2   8   22.77    1.72
  -6  -2   8   24.79    1.72
   6  -2  -8   14.74    2.43
  -6   2   7    9.69    0.85
  -6   2   7   10.17    0.98
   6   2  -7    9.63    0.90
  -6  -2   7    8.84    0.92
  -6   2   6   94.84    5.68
  -6   2   6  105.74    5.58
  -6  -2   6   94.86    5.60
   6  -2  -6   90.72    5.69
   6   2  -5    0.74    0.21
  -6   2   5    0.87    0.26
  -6   2   5    0.67    0.22
   6  -2  -5    0.95    0.27
  -6  -2   5    0.74    0.22
   6   2  -4   63.01    3.98
  -6   2   4   71.77    4.22
  -6   2   4   76.93    4.33
  -6  -2   4   77.62    4.18
   6  -2  -4   71.68    4.30
  -6   2   3    2.77    0.42
  -6   2   3    2.83    0.47
   6  -2  -3    3.06    0.37
   6  -2  -3    2.91    0.42
  -6  -2   3    3.42    0.35
  -6   2   2  338.41   17.70
   6  -2  -2  316.27   17.63
   6  -2  -2  315.23   17.65
  -6  -2   2  343.85   17.64
  -6  -2   2  312.25   17.39
   6  -2  -2  324.33   17.54
  -6   2   1   12.72    0.94
  -6   2   1   12.91    1.11
  -6   2   1   10.84    0.85
  -6  -2   1   10.97    0.86
   6  -2  -1   10.69    0.84
  -6  -2   1   11.93    0.96
   6  -2  -1   10.47    0.93
   6  -2  -1   10.69    0.89
  -6   2   0   46.88    3.02
  -6   2   0   50.08    3.08
  -6   2   0   55.06    2.84
  -6   2   0   51.00    3.10
  -6  -2   0   42.81    2.98
   6  -2   0   60.59    3.19
   6  -2   0   53.43    3.05
   6   2   1    9.76    0.80
  -6   2  -1    6.44    0.94
  -6   2  -1    9.72    0.83
   6  -2   1    9.16    0.80
  -6  -2  -1    8.91    0.62
   6  -2   1    7.69    0.85
  -6  -2  -1    9.83    0.73
   6  -2   1    9.06    0.75
  -6  -2  -1    9.35    0.88
  -6   2  -2   31.09    1.91
   6   2   2   31.16    1.78
  -6   2  -2   25.65    1.85
   6   2   2   26.36    1.85
   6  -2   2   29.02    1.84
   6  -2   2   25.94    1.78
  -6  -2  -2   26.73    1.73
   6  -2   2   26.74    1.84
  -6  -2  -2   29.72    1.74
   6   2   3    4.85    0.58
  -6   2  -3    4.34    0.58
   6   2   3    6.19    0.55
  -6   2  -3    6.07    0.63
   6  -2   3    5.68    0.59
   6  -2   3    5.20    0.58
   6  -2   3    5.13    0.41
  -6  -2  -3    5.35    0.55
   6  -2   3    5.98    0.59
  -6  -2  -3    5.64    0.50
  -6   2  -4   29.58    2.09
   6   2   4   32.72    2.10
  -6   2  -4   33.06    2.06
   6   2   4   28.60    1.90
  -6  -2  -4   30.20    1.85
  -6  -2  -4   29.93    2.00
   6  -2   4   32.28    1.84
   6  -2   4   29.36    2.02
   6  -2   4   28.18    2.00
   6   2   5    1.88    0.42
  -6   2  -5    0.81    0.37
  -6   2  -5    1.73    0.36
   6   2   5    1.68    0.27
   6   2   5    2.33    0.38
   6  -2   5    2.29    0.33
   6  -2   5    1.24    0.31
  -6  -2  -5    1.70    0.34
   6   2   6   20.93    1.29
   6   2   6   21.08    1.54
   6   2   6   17.09    1.29
  -6  -2  -6   18.30    1.50
   6  -2   6   18.08    1.43
   6  -2   6   19.75    1.33
   6   2   7    2.09    0.39
   6   2   7    2.21    0.39
   6   2   7    2.70    0.50
   6  -2   7    2.73    0.47
   6   3  -9   21.94    1.74
  -6   3   9   23.61    1.59
  -6   3   9   20.36    1.73
  -6  -3   9   21.95    1.73
  -6   3   8   18.58    1.54
   6   3  -8   18.71    1.46
  -6   3   8   17.46    1.35
  -6  -3   8   20.21    1.57
  -6   3   7    7.53    0.73
   6   3  -7    8.60    0.79
  -6   3   7    6.22    0.80
  -6  -3   7    6.97    0.79
  -6   3   6    3.03    0.53
   6   3  -6    2.78    0.42
  -6   3   6    3.61    0.49
   6  -3  -6    3.91    0.56
  -6  -3   6    4.29    0.55
  -6   3   5   95.81    5.33
  -6   3   5   89.07    5.45
   6   3  -5   96.98    5.10
   6  -3  -5   83.42    5.41
  -6  -3   5   93.59    5.31
  -6   3   4    3.15    0.47
  -6   3   4    2.10    0.41
  -6  -3   4    2.51    0.35
   6  -3  -4    2.30    0.40
   6  -3  -4    1.85    0.34
  -6   3   3   88.49    5.08
  -6   3   3   88.55    5.17
   6  -3  -3   75.71    5.09
  -6  -3   3   97.72    5.11
   6  -3  -3   92.28    5.04
  -6  -3   3   84.77    4.89
  -6   3   2    4.06    0.51
  -6   3   2    4.04    0.50
   6  -3  -2    4.48    0.47
   6  -3  -2    3.95    0.51
  -6  -3   2    3.92    0.52
  -6   3   1   56.17    3.62
  -6   3   1   66.84    3.75
  -6   3   1   68.00    3.73
   6  -3  -1   61.74    3.64
   6  -3  -1   63.89    4.05
  -6  -3   1   57.67    3.75
   6   3   0   73.98    4.22
  -6   3   0   76.05    4.21
  -6   3   0   66.33    4.13
   6  -3   0   68.37    4.14
  -6  -3   0   69.83    4.30
  -6  -3   0   74.00    4.06
   6  -3   0   70.52    4.20
   6   3   1   87.46    5.09
  -6   3  -1   91.95    5.10
  -6   3  -1   83.95    5.06
   6  -3   1   86.73    5.04
   6  -3   1   90.05    5.09
   6  -3   1   83.47    5.05
  -6  -3  -1   90.95    4.91
  -6   3  -2   17.96    1.37
   6   3   2   19.66    1.42
  -6   3  -2   19.44    1.39
   6  -3   2   18.41    1.37
   6  -3   2   19.43    1.36
  -6  -3  -2   19.15    1.22
   6  -3   2   18.11    1.37
  -6  -3  -2   18.48    1.19
  -6   3  -3   33.24    2.18
   6   3   3   33.87    2.22
  -6   3  -3   26.99    2.12
  -6  -3  -3   31.77    1.92
   6  -3   3   33.60    2.15
   6  -3   3   33.55    2.19
   6  -3   3   34.58    2.19
  -6  -3  -3   36.42    2.08
  -6   3  -4    0.41    0.21
   6   3   4    0.92    0.32
   6   3   4    0.59    0.17
   6  -3   4    0.60    0.24
   6  -3   4    0.57    0.21
  -6  -3  -4    0.62    0.24
  -6   3  -5   24.81    1.68
   6   3   5   24.29    1.74
   6   3   5   21.50    1.40
  -6  -3  -5   22.19    1.62
   6  -3   5   22.23    1.67
   6  -3   5   21.99    1.64
   6   3   6    2.07    0.33
   6   3   6    2.33    0.48
   6  -3   6    3.14    0.37
   6  -3   6    1.98    0.41
   6   4  -8   29.40    1.80
  -6   4   8   23.52    1.94
  -6   4   8   23.91    1.75
  -6  -4   8   25.45    1.92
   6   4  -7    6.19    0.60
  -6   4   7    4.56    1.06
  -6   4   7    5.85    0.66
  -6  -4   7    4.90    0.68
  -6   4   6   21.55    1.82
   6   4  -6   25.66    1.54
  -6   4   6   24.89    1.72
  -6  -4   6   25.71    1.78
  -6   4   5   20.87    1.48
  -6   4   5   21.13    1.62
   6  -4  -5   16.90    1.53
  -6  -4   5   22.70    1.51
  -6   4   4   65.03    4.16
  -6   4   4   72.97    4.04
  -6  -4   4   70.42    3.97
   6  -4  -4   67.95    4.03
  -6  -4   4   67.88    4.05
   6  -4  -4   63.76    4.16
  -6   4   3   30.48    1.98
  -6   4   3   32.01    2.10
  -6  -4   3   28.98    1.84
   6  -4  -3   32.34    2.00
   6  -4  -3   27.84    1.97
  -6  -4   3   31.37    2.06
   6  -4  -3   27.76    2.06
  -6   4   2   64.46    3.95
  -6   4   2   70.12    3.89
  -6  -4   2   62.59    3.65
  -6  -4   2   66.72    4.00
   6  -4  -2   64.89    3.93
   6  -4  -2   63.80    3.86
   6  -4  -2   66.75    4.00
  -6   4   1    4.04    0.52
  -6   4   1    5.13    0.59
  -6   4   1    5.10    0.59
   6  -4  -1    4.56    0.58
   6  -4  -1    5.48    0.63
   6  -4  -1    4.89    0.54
  -6  -4   1    4.80    0.63
  -6   4   0   57.90    3.54
  -6   4   0   61.18    3.57
   6   4   0   63.12    3.64
  -6  -4   0   58.74    3.73
   6  -4   0   58.32    3.57
   6  -4   0   55.07    3.56
  -6  -4   0   61.28    3.41
   6  -4   0   59.90    3.62
   6   4   1    6.92    0.73
  -6   4  -1    7.33    0.71
  -6   4  -1    7.53    0.74
  -6  -4  -1    7.05    0.66
   6  -4   1    7.08    0.73
  -6  -4  -1    7.25    0.57
   6  -4   1    6.36    0.71
   6  -4   1    8.34    0.77
   6   4   2   42.19    2.78
  -6   4  -2   44.69    2.75
   6  -4   2   45.15    2.79
   6  -4   2   45.57    2.75
  -6  -4  -2   41.34    2.45
  -6  -4  -2   42.72    2.54
  -6   4  -3    0.63    0.25
   6   4   3    0.91    0.30
   6  -4   3    0.95    0.31
  -6  -4  -3    1.11    0.44
   6  -4   3    0.93    0.27
   6   4   4   20.86    1.63
  -6   4  -4   20.71    1.55
   6  -4   4   22.74    1.63
  -6  -4  -4   21.09    1.47
   6  -4   4   19.86    1.55
  -6   4  -5   15.76    1.31
   6   4   5   19.36    1.47
   6  -4   5   16.03    1.35
  -6  -4  -5   16.23    1.30
   6   4   6   23.62    1.76
   6  -4   6   20.55    1.66
  -6   5   8    0.76    0.38
   6   5  -8    1.75    0.36
  -6   5   8    1.16    0.30
  -6  -5   8    1.16    0.38
  -6   5   7   34.78    2.63
   6   5  -7   41.55    2.35
  -6   5   7   35.61    2.38
  -6  -5   7   41.33    2.65
  -6   5   6    4.22    0.65
   6   5  -6    4.66    0.39
  -6   5   6    3.11    0.49
  -6  -5   6    5.47    0.63
  -6  -5   6    4.24    0.60
  -6   5   5   17.27    1.54
  -6   5   5   19.83    1.40
  -6  -5   5   20.39    1.46
   6  -5  -5   22.41    1.53
  -6   5   4   10.03    0.87
  -6   5   4    9.78    0.99
  -6  -5   4   11.63    0.89
  -6   5   3   23.80    1.60
  -6   5   3   22.58    1.71
   6  -5  -3   23.60    1.63
  -6  -5   3   22.75    1.70
   6  -5  -3   22.50    1.63
  -6  -5   3   23.54    1.52
  -6   5   2   17.06    1.29
  -6   5   2   14.68    1.16
  -6  -5   2   13.90    1.28
   6  -5  -2   15.46    1.32
  -6  -5   2   15.62    1.04
   6  -5  -2   16.59    1.22
   6  -5  -2   15.06    1.24
  -6   5   1   53.05    3.03
  -6   5   1   58.44    3.26
  -6  -5   1   50.91    2.98
   6  -5  -1   51.94    3.31
  -6  -5   1   51.84    3.41
   6  -5  -1   53.90    3.27
   6  -5  -1   53.87    3.38
  -6   5   0    3.60    0.48
   6   5   0    3.15    0.48
  -6   5   0    3.51    0.48
   6  -5   0    3.59    0.62
   6  -5   0    3.10    0.56
   6  -5   0    2.97    0.47
  -6  -5   0    3.67    0.38
  -6   5  -1   57.05    3.67
   6   5   1   58.04    3.74
  -6   5  -1   63.83    3.70
   6  -5   1   63.60    3.76
   6  -5   1   62.02    3.74
  -6  -5  -1   65.64    3.46
  -6  -5  -1   60.52    3.43
   6  -5   1   58.39    3.68
   6   5   2    2.06    0.48
  -6   5  -2    3.32    0.44
   6  -5   2    1.87    0.41
   6  -5   2    2.43    0.44
  -6  -5  -2    2.32    0.30
  -6   5  -3   57.07    3.33
  -6   5  -3   53.72    3.37
   6   5   3   54.26    3.41
  -6  -5  -3   50.47    3.13
   6  -5   3   52.30    3.36
   6  -5   3   53.96    3.39
   6   5   4    6.01    0.77
  -6   5  -4    7.84    0.77
  -6  -5  -4    6.05    0.67
   6  -5   4    6.83    0.76
   6   5   5   14.50    1.30
  -6  -5  -5   13.71    1.12
   6  -5   5   14.25    1.25
  -6   6   7    3.83    0.67
  -6   6   7    4.54    0.49
   6   6  -7    5.59    0.46
  -6  -6   7    5.49    0.72
   6  -6  -7    4.72    0.66
  -6   6   6   23.52    1.55
  -6   6   6   22.05    1.80
   6  -6  -6   22.65    1.73
  -6  -6   6   27.51    1.82
  -6   6   5    2.70    0.40
  -6   6   5    2.64    0.60
   6  -6  -5    2.58    0.45
  -6  -6   5    2.04    0.43
  -6  -6   5    1.30    0.41
  -6   6   4   13.14    1.01
  -6   6   4   12.98    1.16
   6  -6  -4   11.29    1.06
  -6  -6   4   15.31    1.09
  -6   6   3    2.84    0.49
  -6   6   3    2.75    0.43
   6  -6  -3    2.67    0.44
  -6  -6   3    2.84    0.41
   6  -6  -3    2.93    0.43
  -6   6   2   34.14    2.52
  -6   6   2   37.94    2.34
   6  -6  -2   38.20    2.44
  -6  -6   2   38.60    2.25
   6  -6  -2   35.14    2.43
  -6   6   1    9.69    0.74
  -6   6   1   11.98    0.94
   6  -6  -1   11.86    0.98
  -6  -6   1   10.15    0.76
   6  -6  -1   10.18    0.98
   6   6   0   30.15    2.14
  -6   6   0   31.75    2.05
   6  -6   0   31.05    2.10
  -6  -6   0   32.68    1.88
  -6  -6   0   31.65    1.88
   6  -6   0   30.09    2.11
  -6  -6   0   29.15    1.83
  -6   6  -1    3.23    0.47
   6   6   1    2.80    0.48
  -6  -6  -1    3.00    0.37
   6  -6   1    3.83    0.53
   6  -6   1    2.82    0.51
   6  -6   1    3.25    0.61
  -6   6  -2   44.04    2.86
   6   6   2   47.01    3.05
  -6   6  -2   46.16    2.85
  -6  -6  -2   47.70    2.69
   6  -6   2   43.71    2.95
   6  -6   2   41.95    2.85
   6  -6   2   43.39    2.90
   6   6   3    8.29    0.88
  -6   6  -3    8.36    0.83
   6  -6   3    8.14    0.87
  -6  -6  -3    8.71    0.74
   6   6   4   24.46    1.89
  -6   6  -4   26.93    1.84
   6  -6   4   26.71    1.90
  -6  -6  -4   22.96    1.67
   6   6   5    1.07    0.43
   6  -6   5    0.57    0.32
  -6   7   6    0.32    0.38
  -6   7   6    0.63    0.22
  -6  -7   6    0.80    0.43
   6  -7  -6    0.23    0.26
  -6   7   5   30.42    1.83
  -6   7   5   28.38    2.10
   6  -7  -5   28.31    2.03
  -6   7   4    0.37    0.21
  -6   7   4    0.00    0.17
   6  -7  -4    0.22    0.21
  -6  -7   4    0.40    0.21
  -6  -7   4    0.57    0.25
  -6   7   3    7.89    0.71
  -6   7   3    7.05    0.76
  -6  -7   3    8.12    0.75
   6  -7  -3    8.20    0.82
  -6  -7   3    8.09    0.70
   6  -7  -3    5.74    0.74
  -6  -7   3    7.91    0.99
  -6   7   2    0.42    0.21
  -6   7   2    0.64    0.24
  -6  -7   2    1.34    0.26
   6  -7  -2    0.97    0.30
  -6  -7   2    0.77    0.26
   6  -7  -2    0.95    0.30
  -6  -7   2    1.02    0.36
  -6   7   1   12.38    0.90
  -6   7   1   14.25    1.09
  -6  -7   1   12.98    0.94
  -6  -7   1   14.13    1.00
   6  -7  -1   13.46    1.17
  -6  -7   1   13.96    1.50
   6  -7  -1   14.54    1.21
  -6   7   0    0.48    0.20
   6   7   0    0.39    0.30
  -6  -7   0    0.63    0.16
  -6  -7   0    0.56    0.21
   6  -7   0    0.74    0.29
   6  -7   0    0.73    0.25
  -6  -7   0    0.68    0.21
  -6   7  -1   84.19    4.64
   6   7   1   76.70    4.71
  -6  -7  -1   80.36    4.46
  -6  -7  -1   76.98    4.41
   6  -7   1   79.16    4.72
   6  -7   1   69.02    4.91
   6   7   2    0.15    0.17
  -6   7  -2    0.46    0.27
  -6  -7  -2    0.25    0.23
   6  -7   2    0.45    0.26
  -6   7  -3   24.22    1.71
   6   7   3   19.86    1.72
   6  -7   3   23.73    1.79
  -6  -7  -3   24.66    1.60
  -6   8   4    6.30    0.58
  -6   8   4    4.97    0.73
   6  -8  -4    5.28    0.71
  -6  -8   4    7.78    0.76
  -6   8   3    2.80    0.52
  -6   8   3    3.72    0.43
   6  -8  -3    3.68    0.59
   6  -8  -3    2.86    0.54
  -6  -8   3    3.13    0.51
  -6  -8   3    2.76    0.46
  -6   8   2   12.63    0.98
  -6   8   2   13.23    1.01
  -6  -8   2   14.52    1.08
  -6  -8   2   12.44    1.01
   6  -8  -2   12.48    1.52
  -6  -8   2   12.40    0.96
   6  -8  -2   12.52    1.12
  -6   8   1    1.90    0.39
  -6   8   1    1.78    0.31
  -6  -8   1    2.05    0.37
   6  -8  -1    1.44    0.38
   6  -8  -1    1.36    0.44
  -6  -8   1    1.77    0.32
  -6  -8   1    1.76    0.29
   6   8   0   21.56    1.66
  -6   8   0   24.78    1.60
  -6  -8   0   24.21    1.38
  -6  -8   0   19.96    1.44
  -6  -8   0   21.34    1.50
  -6  -8   0   19.33    1.31
   6  -8   0   21.59    1.66
  -6   8  -1    0.74    0.26
   6   8   1    0.30    0.21
   6  -8   1    0.55    0.27
  -6  -8  -1    0.17    0.17
  -6  -8  -1    0.43    0.25
  -6   8  -2   27.99    1.89
   6   8   2   25.93    1.96
  -6  -8  -2   25.20    1.72
  -6  -8  -2   28.30    1.78
   6  -8   2   24.66    1.96
  -7   0   9    0.00    0.21
  -7   0   8   54.08    3.48
   7   0  -7    0.47    0.30
  -7   0   7    0.40    0.26
  -7   0   6   39.37    2.55
   7   0  -6   38.35    2.54
  -7   0   5    1.98    0.36
   7   0  -5    1.67    0.38
   7   0  -4  173.59    9.79
  -7   0   4  161.81   10.18
   7   0  -4  196.78    9.71
  -7   0   3    1.80    0.29
   7   0  -3    1.40    0.21
  -7   0   3    1.85    0.38
   7   0  -3    1.54    0.28
  -7   0   2   55.49    3.44
  -7   0   2   55.69    3.32
   7   0  -2   61.06    3.25
   7   0  -1    0.19    0.14
  -7   0   1    0.09    0.10
  -7   0   1    0.04    0.09
  -7   0   1    0.21    0.16
  -7   0   1    0.12    0.12
  -7   0   0   17.15    1.14
  -7   0   0   17.82    1.21
   7   0   0   15.24    1.23
  -7   0   0   19.35    1.31
  -7   0   0   16.87    1.14
   7   0   1    0.51    0.13
  -7   0  -1    0.71    0.20
   7   0   1    0.29    0.13
  -7   0  -1    0.76    0.25
   7   0   1    0.48    0.19
   7   0   1    0.42    0.11
   7   0   2   32.66    2.19
   7   0   2   34.71    2.09
  -7   0  -2   34.64    2.17
  -7   0  -2   34.98    2.19
   7   0   2   35.05    2.03
   7   0   2   32.57    2.17
   7   0   3    1.64    0.26
  -7   0  -3    1.27    0.33
  -7   0  -3    1.24    0.36
   7   0   3    1.08    0.28
   7   0   3    1.73    0.26
   7   0   3    0.95    0.38
   7   0   4   63.31    3.89
   7   0   4   67.30    3.78
   7   0   4   64.62    3.79
   7   0   4   69.54    3.89
  -7   0  -4   62.02    3.95
  -7   0  -4   68.63    3.91
  -7   0  -5    0.44    0.21
   7   0   5    0.19    0.20
   7   0   5    0.40    0.25
  -7   0  -5    0.41    0.30
   7   0   5    0.42    0.18
   7   0   5    0.10    0.14
   7   0   6   44.25    2.97
   7   0   6   56.89    3.15
   7   0   7    0.25    0.26
  -7   1   9   11.87    1.16
   7   1  -9   11.23    1.27
  -7  -1   9   12.21    1.13
  -7   1   8    4.69    0.78
   7   1  -8    4.16    0.67
   7  -1  -8    3.51    0.65
  -7  -1   8    3.68    0.58
   7   1  -7   60.64    3.67
  -7   1   7   58.01    3.73
  -7  -1   7   62.35    3.73
   7  -1  -7   57.58    3.77
   7   1  -6    3.53    0.51
  -7   1   6    3.55    0.54
  -7  -1   6    3.65    0.52
   7  -1  -6    4.08    0.55
  -7   1   5  116.32    6.43
  -7   1   5  113.58    6.48
   7   1  -5  109.99    6.32
   7  -1  -5  107.68    6.46
  -7  -1   5  116.21    6.44
   7   1  -4    5.16    0.49
  -7   1   4    4.98    0.57
  -7   1   4    5.27    0.59
   7  -1  -4    4.70    0.50
   7  -1  -4    6.37    0.63
  -7  -1   4    6.26    0.58
  -7   1   3  123.42    6.66
  -7   1   3  119.30    6.64
  -7  -1   3  118.27    6.47
   7  -1  -3  121.52    6.58
   7  -1  -3  102.33    6.43
  -7   1   2   50.20    2.99
  -7   1   2   51.48    3.10
   7  -1  -2   52.46    2.95
  -7  -1   2   52.56    2.87
  -7  -1   2   51.15    3.02
  -7  -1   2   45.56    2.95
   7  -1  -2   46.22    2.86
  -7   1   1   32.30    1.92
  -7   1   1   27.32    1.85
  -7   1   1   35.21    2.05
  -7   1   1   28.52    1.80
  -7  -1   1   29.70    1.99
   7  -1  -1   31.88    1.87
  -7  -1   1   28.56    1.74
  -7  -1   1   30.28    1.94
   7  -1  -1   32.86    2.04
  -7  -1   1   28.15    1.75
   7  -1  -1   28.38    1.81
   7   1   0   36.68    2.26
  -7   1   0   34.32    2.19
  -7   1   0   37.01    2.17
  -7   1   0   39.32    2.32
  -7   1   0   38.58    2.23
   7  -1   0   30.31    2.09
  -7  -1   0   37.39    2.30
  -7  -1   0   38.82    2.28
   7  -1   0   28.44    2.57
  -7  -1   0   35.57    2.07
   7  -1   0   37.03    2.16
   7   1   1   43.93    2.62
   7   1   1   42.74    2.61
  -7   1  -1   43.09    2.59
  -7   1  -1   44.55    2.66
  -7  -1  -1   43.24    2.61
   7  -1   1   41.72    2.66
   7  -1   1   44.82    2.53
   7  -1   1   41.62    2.50
  -7  -1  -1   38.34    2.46
  -7  -1  -1   40.20    2.65
   7   1   2    5.36    0.54
  -7   1  -2    4.05    0.52
   7   1   2    5.21    0.55
  -7   1  -2    5.29    0.58
   7  -1   2    4.91    0.42
  -7  -1  -2    5.32    0.55
   7  -1   2    4.57    0.55
   7  -1   2    4.66    0.49
   7  -1   2    4.67    0.47
  -7  -1  -2    4.96    0.48
  -7   1  -3   69.01    4.43
  -7   1  -3   77.11    4.45
   7   1   3   76.36    4.42
   7   1   3   78.11    4.42
   7  -1   3   78.55    4.36
   7  -1   3   76.33    4.43
   7  -1   3   73.36    4.30
  -7  -1  -3   78.98    4.38
  -7  -1  -3   74.78    4.38
   7  -1   3   73.51    4.24
   7   1   4    4.47    0.42
  -7   1  -4    3.65    0.58
   7   1   4    4.20    0.38
  -7   1  -4    4.09    0.53
   7   1   4    5.65    0.58
   7   1   4    4.20    0.53
   7  -1   4    4.24    0.56
   7  -1   4    4.22    0.45
  -7  -1  -4    5.15    0.50
   7  -1   4    4.05    0.50
   7  -1   4    3.90    0.47
  -7  -1  -4    3.52    0.53
   7   1   5   34.06    2.07
  -7   1  -5   35.58    2.25
   7   1   5   32.85    2.02
   7   1   5   32.22    2.16
  -7   1  -5   32.40    2.32
   7   1   5   38.77    2.30
   7  -1   5   31.86    2.15
  -7  -1  -5   34.79    2.14
  -7  -1  -5   29.10    2.51
   7  -1   5   37.26    2.16
   7  -1   5   33.80    2.16
   7   1   6    2.17    0.35
   7   1   6    1.60    0.39
   7   1   6    1.40    0.37
   7   1   6    1.20    0.27
   7  -1   6    1.12    0.37
   7  -1   6    2.22    0.39
   7  -1   6    1.60    0.33
  -7   2   9    3.05    0.48
  -7   2   9    1.88    0.49
   7   2  -9    2.02    0.49
  -7  -2   9    2.91    0.53
  -7   2   8   25.52    2.07
  -7   2   8   31.15    2.00
   7   2  -8   30.68    2.04
  -7  -2   8   31.67    2.15
   7  -2  -8   24.74    2.52
  -7   2   7    1.69    0.35
   7   2  -7    1.86    0.36
  -7   2   7    1.61    0.44
  -7  -2   7    1.92    0.41
   7   2  -6   71.91    4.11
  -7   2   6   75.67    4.24
  -7   2   6   70.77    4.34
   7  -2  -6   64.89    4.30
  -7  -2   6   71.83    4.24
   7   2  -5   20.35    1.36
  -7   2   5   23.39    1.58
  -7   2   5   22.86    1.65
   7  -2  -5   18.63    1.57
  -7  -2   5   23.46    1.53
  -7   2   4   65.21    3.96
  -7   2   4   62.86    3.91
   7  -2  -4   63.29    3.94
  -7  -2   4   70.22    3.82
  -7   2   3    1.81    0.42
  -7   2   3    1.42    0.32
  -7  -2   3    1.25    0.22
   7  -2  -3    0.81    0.25
   7  -2  -3    1.11    0.24
  -7   2   2   94.08    4.95
  -7   2   2   90.59    4.98
  -7  -2   2   85.81    4.85
   7  -2  -2   83.85    4.93
   7  -2  -2   72.97    4.96
   7  -2  -2   89.54    4.90
  -7  -2   2   84.98    4.90
  -7  -2   2   76.01    4.62
  -7   2   1    6.96    0.71
  -7   2   1    6.64    0.66
  -7   2   1    7.66    0.68
   7  -2  -1    5.58    0.59
   7  -2  -1    6.43    0.70
  -7  -2   1    6.77    0.65
   7  -2  -1    7.17    0.65
  -7   2   0   19.67    1.38
  -7   2   0   19.71    1.20
  -7   2   0   20.65    1.46
   7   2   0   20.86    1.41
  -7  -2   0   15.39    1.58
   7  -2   0   21.27    1.38
  -7  -2   0   18.97    1.36
   7  -2   0   21.15    1.48
  -7   2  -1    5.33    0.60
  -7   2  -1    3.68    0.49
   7   2   1    4.88    0.54
  -7  -2  -1    4.70    0.49
   7  -2   1    4.25    0.55
   7  -2   1    4.36    0.48
   7  -2   1    4.73    0.49
  -7  -2  -1    4.57    0.40
  -7  -2  -1    4.94    0.61
   7   2   2   25.63    1.56
  -7   2  -2   24.02    1.66
  -7   2  -2   22.99    1.62
   7   2   2   22.82    1.61
  -7  -2  -2   21.79    1.50
   7  -2   2   24.14    1.58
  -7  -2  -2   23.03    1.48
   7  -2   2   21.75    1.60
   7  -2   2   22.89    1.67
   7   2   3   15.69    1.14
   7   2   3   18.09    1.29
  -7   2  -3   15.69    1.27
  -7   2  -3   16.72    1.26
   7  -2   3   15.03    1.19
   7  -2   3   16.09    1.26
   7  -2   3   16.37    1.19
  -7  -2  -3   15.93    1.16
  -7  -2  -3   15.17    1.15
   7   2   4  103.54    5.64
  -7   2  -4  101.72    5.60
   7   2   4   98.46    5.50
  -7   2  -4   81.12    6.00
   7  -2   4   97.72    5.30
   7  -2   4  101.22    5.53
  -7  -2  -4   98.91    5.39
  -7  -2  -4   93.45    5.52
   7  -2   4   87.46    5.50
  -7   2  -5    1.93    0.40
   7   2   5    3.56    0.54
   7  -2   5    2.81    0.48
   7  -2   5    2.40    0.42
   7  -2   5    1.40    0.41
   7  -2   5    2.76    0.36
   7   2   6   10.58    0.94
   7  -2   6   13.98    0.93
   7  -2   6    9.36    1.24
  -7   3   9   23.24    1.56
   7   3  -9   19.46    1.91
  -7   3   9   18.72    1.67
  -7  -3   9   21.18    1.66
   7   3  -8    7.75    0.79
  -7   3   8    6.31    0.84
  -7   3   8    6.73    0.75
  -7  -3   8    7.35    0.93
  -7   3   7   19.02    1.63
   7   3  -7   22.52    1.46
  -7   3   7   22.86    1.57
   7  -3  -7   19.52    1.66
  -7  -3   7   20.19    1.58
  -7   3   6   11.42    1.02
  -7   3   6   11.46    1.10
   7   3  -6   11.52    0.86
  -7  -3   6   14.74    1.10
   7   3  -5   79.25    4.40
  -7   3   5   87.53    4.80
  -7   3   5   76.79    4.84
   7  -3  -5   85.59    4.71
  -7  -3   5   80.88    4.67
   7  -3  -5   73.36    4.80
  -7   3   4   13.30    1.19
  -7   3   4   15.48    1.26
   7  -3  -4   17.00    1.18
   7  -3  -4   14.29    1.21
  -7   3   3   67.36    3.88
  -7   3   3   64.28    3.90
  -7  -3   3   63.36    3.62
   7  -3  -3   65.82    3.78
   7  -3  -3   63.09    3.88
  -7  -3   3   60.70    3.81
  -7   3   2    2.14    0.39
  -7   3   2    2.34    0.45
   7  -3  -2    2.18    0.39
   7  -3  -2    1.82    0.39
  -7  -3   2    2.31    0.40
   7  -3  -2    2.28    0.34
  -7   3   1   49.98    3.10
  -7   3   1   51.08    3.11
  -7   3   1   43.45    3.01
  -7  -3   1   53.37    3.08
  -7  -3   1   48.57    3.16
   7  -3  -1   54.33    3.19
   7  -3  -1   46.43    3.01
   7  -3  -1   58.16    3.17
   7   3   0    3.76    0.47
  -7   3   0    3.15    0.45
  -7   3   0    3.46    0.51
  -7  -3   0    3.78    0.56
   7  -3   0    3.29    0.48
   7  -3   0    3.64    0.48
  -7  -3   0    3.51    0.43
   7  -3   0    3.42    0.45
  -7   3  -1   68.86    4.10
  -7   3  -1   65.83    4.07
   7   3   1   70.46    4.10
   7  -3   1   67.85    4.06
  -7  -3  -1   70.60    3.92
   7  -3   1   69.00    4.04
   7  -3   1   68.14    4.09
  -7   3  -2   34.02    2.20
   7   3   2   33.64    2.18
  -7   3  -2   31.03    2.15
  -7  -3  -2   31.20    1.96
   7  -3   2   33.43    2.12
  -7  -3  -2   32.20    1.97
   7  -3   2   33.32    2.14
   7  -3   2   31.96    2.15
   7   3   3   41.99    2.80
  -7   3  -3   41.53    2.78
  -7   3  -3   44.76    2.80
   7  -3   3   47.29    2.81
  -7  -3  -3   41.92    2.54
   7  -3   3   42.38    2.71
  -7  -3  -3   47.52    2.69
   7   3   4    5.40    0.67
  -7   3  -4    5.69    0.69
   7   3   4    5.72    0.51
  -7   3  -4    5.23    0.64
  -7  -3  -4    5.75    0.62
  -7  -3  -4    5.04    0.45
   7  -3   4    5.03    0.62
   7  -3   4    5.62    0.70
   7  -3   4    5.55    0.64
  -7   3  -5   20.19    1.50
   7   3   5   17.57    1.23
   7   3   5   21.02    1.56
  -7  -3  -5   20.80    1.86
   7  -3   5   18.95    1.45
   7  -3   5   18.25    1.45
   7   3   6   -0.22    0.22
   7   3   6    0.04    0.16
   7  -3   6   -0.22    0.16
  -7   4   8   24.38    1.73
  -7   4   8   20.32    1.83
   7   4  -8   27.48    1.65
  -7  -4   8   24.03    1.82
  -7   4   7    1.23    0.37
   7   4  -7    1.71    0.30
  -7   4   7    1.74    0.40
  -7  -4   7    1.45    0.37
  -7   4   6   19.87    1.45
  -7   4   6   17.88    1.52
   7  -4  -6   14.57    1.59
  -7  -4   6   21.59    1.47
  -7   4   5    7.78    0.77
  -7   4   5    6.76    0.81
  -7  -4   5    9.13    0.75
   7  -4  -5    5.89    0.69
  -7   4   4   78.58    4.84
  -7   4   4   84.49    4.74
  -7  -4   4   81.90    4.75
  -7  -4   4   79.75    4.60
   7  -4  -4   75.75    4.85
   7  -4  -4   83.51    4.73
  -7   4   3   27.15    1.87
  -7   4   3   27.73    1.80
  -7  -4   3   23.59    1.57
  -7  -4   3   27.09    1.85
   7  -4  -3   25.06    1.79
   7  -4  -3   26.93    1.76
   7  -4  -3   23.37    1.82
  -7   4   2   35.08    2.33
  -7   4   2   35.30    2.30
  -7  -4   2   35.23    2.37
   7  -4  -2   33.90    2.33
   7  -4  -2   36.95    2.28
   7  -4  -2   34.62    2.35
  -7   4   1    3.61    0.48
  -7   4   1    3.29    0.50
  -7   4   1    3.62    0.51
   7  -4  -1    3.97    0.55
  -7  -4   1    4.57    0.46
  -7  -4   1    3.87    0.58
   7  -4  -1    3.54    0.52
   7  -4  -1    3.22    0.46
   7   4   0   52.48    3.13
  -7   4   0   51.62    3.09
   7  -4   0   47.31    3.09
   7  -4   0   50.21    3.07
   7  -4   0   44.79    3.07
  -7  -4   0   54.02    2.95
  -7  -4   0   46.70    3.20
   7   4   1   15.33    1.23
  -7   4  -1   16.98    1.27
   7  -4   1   14.51    1.19
   7  -4   1   15.17    1.22
  -7  -4  -1   15.38    1.04
  -7   4  -2   42.70    2.58
   7   4   2   42.17    2.60
   7  -4   2   38.33    2.53
  -7  -4  -2   37.02    2.29
  -7  -4  -2   35.72    2.25
   7  -4   2   40.75    2.53
   7   4   3    2.04    0.45
  -7   4  -3    2.87    0.43
  -7  -4  -3    2.18    0.35
   7  -4   3    2.40    0.48
   7   4   4   18.85    1.50
  -7   4  -4   17.89    1.44
   7  -4   4   18.35    1.43
   7  -4   4   18.96    1.46
  -7  -4  -4   19.18    1.35
   7   4   5    6.82    0.84
  -7   4  -5    7.86    0.78
  -7  -4  -5    6.35    0.76
   7  -4   5    6.07    0.74
   7   4   6   16.24    1.41
  -7   5   8    0.46    0.26
  -7   5   8    0.35    0.25
   7   5  -8    0.07    0.23
  -7  -5   8    0.03    0.26
  -7   5   7   32.44    2.51
   7   5  -7   39.14    2.09
  -7   5   7   33.92    2.28
  -7  -5   7   36.92    2.44
  -7   5   6    0.69    0.25
  -7   5   6    0.24    0.27
  -7  -5   6    0.11    0.33
   7  -5  -6    0.36    0.22
  -7   5   5   16.22    1.25
  -7   5   5   16.46    1.41
  -7  -5   5   16.93    1.26
  -7  -5   5   15.09    1.80
   7  -5  -5   18.13    1.34
  -7   5   4    5.21    0.70
  -7   5   4    6.00    0.64
   7  -5  -4    6.17    0.64
  -7  -5   4    4.49    0.54
  -7   5   3   33.68    2.29
  -7   5   3   36.38    2.22
  -7  -5   3   34.08    2.04
   7  -5  -3   30.88    2.17
   7  -5  -3   32.51    2.22
  -7   5   2   17.96    1.32
  -7   5   2   17.21    1.38
   7  -5  -2   16.52    1.39
   7  -5  -2   17.90    1.33
  -7  -5   2   16.77    1.10
   7  -5  -2   17.52    1.39
  -7   5   1  105.60    5.84
   7  -5  -1  104.30    5.84
   7  -5  -1   96.96    5.91
   7  -5  -1   97.69    5.89
  -7   5   0    5.75    0.65
   7   5   0    5.29    0.64
   7  -5   0    4.90    0.62
   7  -5   0    5.83    0.69
   7  -5   0    5.65    0.63
  -7  -5   0    5.47    0.51
  -7   5  -1   37.83    2.46
   7   5   1   34.30    2.46
   7  -5   1   36.27    2.48
   7  -5   1   37.42    2.49
  -7  -5  -1   39.69    2.18
  -7  -5  -1   38.96    2.20
  -7   5  -2    2.81    0.43
   7   5   2    2.05    0.46
   7  -5   2    2.85    0.45
   7  -5   2    2.06    0.42
  -7  -5  -2    2.22    0.31
  -7   5  -3   23.15    1.63
   7   5   3   17.00    1.83
   7  -5   3   22.15    1.78
  -7  -5  -3   20.35    1.40
   7  -5   3   22.61    1.62
  -7   5  -4    3.08    0.55
   7   5   4    3.54    0.58
   7  -5   4    2.66    0.52
  -7  -5  -4    2.94    0.45
   7   5   5   15.03    1.34
  -7  -5  -5   15.27    1.24
   7  -5   5   14.89    1.31
  -7   6   7    3.90    0.65
  -7   6   7    3.01    0.46
   7  -6  -7    3.12    0.55
  -7   6   6   10.68    1.13
  -7   6   6   11.83    0.97
   7  -6  -6   12.40    1.11
  -7  -6   6   14.63    1.15
  -7   6   5   12.24    1.15
  -7   6   5   12.10    1.00
  -7  -6   5   12.46    1.06
   7  -6  -5   14.83    1.16
  -7   6   4   19.26    1.55
  -7   6   4   20.58    1.44
  -7  -6   4   20.21    1.58
  -7  -6   4   19.83    1.40
  -7   6   3    0.73    0.25
  -7   6   3    0.84    0.34
   7  -6  -3    0.59    0.23
   7  -6  -3    0.40    0.33
   7  -6  -3    0.32    0.31
  -7  -6   3    1.13    0.37
  -7  -6   3    1.21    0.26
  -7   6   2   44.15    2.65
  -7   6   2   46.13    2.79
  -7  -6   2   40.54    3.02
   7  -6  -2   47.36    2.87
   7  -6  -2   43.84    2.97
  -7  -6   2   43.92    2.61
   7  -6  -2   44.92    2.88
  -7   6   1    3.94    0.54
   7  -6  -1    4.33    0.56
  -7  -6   1    3.19    0.65
  -7  -6   1    3.18    0.35
   7  -6  -1    3.54    0.63
   7  -6  -1    4.23    0.60
  -7  -6   1    4.37    0.40
  -7   6   0   52.94    3.19
   7   6   0   49.52    3.23
  -7   6   0   50.70    3.20
  -7  -6   0   52.87    2.97
  -7  -6   0   52.48    2.93
   7  -6   0   50.46    3.30
   7  -6   0   49.08    3.28
   7  -6   0   50.22    3.22
   7   6   1    2.83    0.61
  -7   6  -1    2.46    0.48
  -7   6  -1    2.55    0.52
  -7  -6  -1    2.35    0.30
   7  -6   1    2.67    0.51
   7  -6   1    2.83    0.53
   7  -6   1    2.28    0.49
  -7   6  -2   23.83    1.67
   7   6   2   21.59    1.68
   7  -6   2   22.29    1.69
  -7  -6  -2   21.67    1.43
  -7   6  -3    8.05    0.80
   7   6   3    7.12    0.82
  -7  -6  -3    6.51    0.64
   7  -6   3    7.83    0.82
  -7   6  -4    9.16    0.90
   7   6   4    9.32    0.93
   7  -6   4    9.13    0.94
  -7  -6  -4    6.60    0.78
  -7   7   6    0.08    0.19
  -7   7   6   -0.08    0.22
  -7  -7   6   -0.34    0.32
   7  -7  -6    0.51    0.26
  -7   7   5   11.49    0.94
  -7   7   5   10.82    1.12
   7  -7  -5   11.68    1.07
  -7  -7   5   13.96    1.09
  -7   7   4    0.29    0.22
  -7   7   4    0.30    0.24
  -7  -7   4    0.82    0.25
  -7  -7   4    0.78    0.30
   7  -7  -4    0.43    0.24
  -7   7   3   25.88    1.69
  -7   7   3   23.10    1.67
  -7  -7   3   24.83    1.64
   7  -7  -3   25.33    1.80
   7  -7  -3   23.09    1.74
  -7  -7   3   23.62    1.61
  -7   7   2    0.55    0.21
  -7   7   2    0.67    0.24
   7  -7  -2    0.21    0.47
   7  -7  -2    0.70    0.27
  -7  -7   2    0.27    0.20
  -7  -7   2    0.46    0.19
  -7   7   1   49.92    2.95
  -7  -7   1   49.12    2.80
  -7  -7   1   47.09    2.73
   7  -7  -1   46.87    3.04
   7  -7  -1   43.52    2.98
  -7  -7   1   45.18    2.74
   7   7   0   -0.30    0.15
  -7   7   0    0.34    0.19
   7  -7   0   -0.16    0.18
  -7  -7   0    0.10    0.12
  -7  -7   0    0.06    0.13
  -7  -7   0    0.13    0.20
   7  -7   0    0.22    0.28
  -7  -7   0    0.36    0.14
  -7   7  -1   57.12    3.19
   7   7   1   49.21    3.19
  -7  -7  -1   41.50    2.93
  -7  -7  -1   51.02    2.92
   7  -7   1   51.59    3.23
   7   7   2    0.82    0.35
  -7   7  -2    0.43    0.24
   7  -7   2    0.32    0.20
   7   7   3    5.21    0.74
  -7   7  -3    5.06    0.69
   7  -7   3    6.53    0.81
  -7  -7  -3    7.22    0.70
  -7   8   4    7.97    0.72
  -7   8   4    8.06    0.86
   7  -8  -4    8.51    0.88
  -7  -8   4    8.46    0.81
  -7   8   3    2.24    0.37
  -7   8   3    1.93    0.39
  -7  -8   3    2.01    0.36
   7  -8  -3    1.74    0.42
  -7  -8   3    1.47    0.35
   7  -8  -3    1.29    0.46
  -7   8   2   29.28    1.79
  -7   8   2   29.28    1.91
  -7  -8   2   30.00    1.88
  -7  -8   2   25.98    1.78
   7  -8  -2   28.12    2.03
  -7  -8   2   28.20    1.83
   7  -8  -2   28.63    2.03
  -7   8   1    0.83    0.28
   7  -8  -1    1.01    0.32
  -7  -8   1    0.32    0.24
  -7  -8   1    0.53    0.22
  -7  -8   1    0.95    0.27
  -7   8   0   32.51    2.11
  -7  -8   0   29.43    1.81
  -7  -8   0   33.86    1.87
   7  -8   0   30.10    2.20
  -7  -8   0   28.98    1.93
  -7  -8   0   32.10    1.98
   7   8   1    1.19    0.36
  -7   8  -1    1.83    0.43
  -7  -8  -1    1.09    0.28
   7  -8   1    1.29    0.36
  -7  -8  -1    1.10    0.29
  -8   0   9    0.31    0.24
   8   0  -8   -0.42    0.33
   8   0  -7    0.74    0.34
  -8   0   7    1.02    0.34
   8   0  -6   50.14    3.13
   8   0  -5    1.12    0.24
   8   0  -5    0.63    0.24
  -8   0   5    0.82    0.25
  -8   0   4   71.15    4.16
   8   0  -4   75.43    4.01
  -8   0   4   68.84    4.20
   8   0  -4   68.24    4.08
  -8   0   3    0.55    0.24
   8   0  -3    0.54    0.18
  -8   0   3    0.89    0.23
   8   0  -3    0.50    0.12
  -8   0   2   25.12    1.71
  -8   0   2   23.64    1.54
   8   0  -2   24.42    1.40
  -8   0   2   21.46    1.47
  -8   0   1    0.77    0.20
  -8   0   1    0.73    0.22
  -8   0   1    0.67    0.27
   8   0  -1    0.38    0.16
  -8   0   1    0.59    0.18
   8   0   0   28.97    2.07
  -8   0   0   35.08    2.12
  -8   0   0   33.75    2.04
  -8   0   0   32.09    1.96
  -8   0   0   30.03    1.94
  -8   0  -1    1.62    0.29
  -8   0  -1    1.58    0.36
   8   0   1    1.88    0.40
   8   0   2  192.37   10.07
  -8   0  -2  196.85   10.20
   8   0   2  180.13   10.21
   8   0   2  178.90    9.93
  -8   0  -2  177.82   10.12
   8   0   2  177.45    9.94
   8   0   3    0.14    0.11
   8   0   3    0.15    0.19
  -8   0  -3    0.16    0.20
   8   0   3    0.03    0.14
  -8   0  -3    0.27    0.21
   8   0   3    0.13    0.11
   8   0   4   22.68    1.70
  -8   0  -4   23.63    1.74
  -8   0  -4   25.96    1.73
   8   0   4   25.71    1.65
   8   0   4   23.28    1.53
   8   0   4   26.05    1.58
  -8   0  -5    0.15    0.19
   8   0   5    0.36    0.16
   8   0   5    0.16    0.19
   8   0   5    0.32    0.20
   8   0   5   -0.36    0.27
  -8   0  -5   -0.15    0.30
   8   0   6   15.46    1.32
   8   0   6   14.55    1.14
   8   0   6   18.41    1.32
   8   0   6   17.96    1.20
  -8   1   9   18.40    1.53
   8   1  -9   17.50    1.51
  -8  -1   9   18.20    1.50
   8   1  -8    7.77    0.85
  -8   1   8    7.12    0.85
   8  -1  -8    5.14    0.89
  -8  -1   8    8.42    0.87
  -8   1   7   60.70    3.75
   8   1  -7   59.32    3.61
  -8   1   7   59.61    3.64
   8  -1  -7   58.58    3.76
  -8  -1   7   59.77    3.69
  -8   1   6    1.27    0.36
  -8   1   6    1.19    0.32
   8   1  -6    1.01    0.29
   8  -1  -6    1.45    0.32
  -8  -1   6    1.92    0.39
   8   1  -5   48.24    3.08
   8   1  -5   50.54    3.04
  -8   1   5   54.20    3.29
  -8   1   5   57.25    3.33
   8  -1  -5   57.81    3.32
  -8  -1   5   56.41    3.25
   8  -1  -5   48.99    3.13
   8   1  -4    1.53    0.19
   8   1  -4    1.39    0.21
  -8   1   4    1.46    0.33
  -8   1   4    0.91    0.28
   8  -1  -4    1.72    0.35
   8  -1  -4    1.88    0.28
  -8  -1   4    2.00    0.31
   8  -1  -3   16.80    1.20
   8  -1  -3   21.34    1.33
  -8  -1   3   17.81    1.22
  -8  -1   3   16.79    1.32
  -8   1   2   10.72    0.95
  -8   1   2   10.20    0.79
  -8   1   2   10.36    0.85
  -8  -1   2    9.67    0.87
   8  -1  -2   10.33    0.79
  -8  -1   2   10.34    0.73
  -8  -1   2    7.55    1.08
   8  -1  -2    9.39    0.73
  -8   1   1   62.23    3.38
  -8   1   1   64.15    3.59
  -8   1   1   60.85    3.46
  -8   1   1   57.11    3.42
  -8  -1   1   54.16    3.29
  -8  -1   1   57.24    3.53
   8  -1  -1   58.43    3.56
  -8  -1   1   59.38    3.50
  -8  -1   1   55.20    3.29
   8  -1  -1   65.06    3.40
   8  -1  -1   52.13    3.32
  -8   1   0   39.15    2.44
   8   1   0   36.36    2.61
  -8   1   0   39.02    2.59
  -8   1   0   37.83    2.26
  -8   1   0   37.96    2.32
  -8  -1   0   40.75    2.41
   8  -1   0   38.66    2.26
  -8  -1   0   34.91    2.19
   8  -1   0   34.21    2.21
   8  -1   0   38.96    2.45
  -8  -1   0   37.75    2.21
  -8  -1   0   38.65    2.42
   8   1   1  112.40    6.42
  -8   1  -1  109.58    6.43
   8   1   1  120.85    6.52
  -8   1  -1  122.61    6.55
  -8  -1  -1  119.12    6.47
  -8  -1  -1  103.16    6.33
   8  -1   1  115.61    6.35
   8  -1   1  117.17    6.57
   8  -1   1  112.76    6.34
   8   1   2    9.30    0.79
  -8   1  -2    9.81    0.88
  -8   1  -2    8.44    0.81
   8   1   2    9.49    0.84
  -8  -1  -2    8.57    0.76
  -8  -1  -2    9.83    0.84
   8  -1   2   10.21    0.96
   8  -1   2    8.96    0.87
   8  -1   2   10.38    0.77
  -8   1  -3   43.11    2.71
   8   1   3   48.22    2.68
   8   1   3   42.23    2.66
  -8   1  -3   40.72    2.68
   8  -1   3   42.72    2.70
  -8  -1  -3   40.56    2.61
  -8  -1  -3   42.58    2.63
   8  -1   3   43.94    2.49
   8  -1   3   38.97    2.54
   8  -1   3   41.97    2.55
   8   1   4    1.27    0.35
  -8   1  -4    0.74    0.36
  -8   1  -4    1.19    0.32
   8   1   4    0.99    0.27
  -8  -1  -4    1.65    0.38
   8  -1   4    1.20    0.26
   8  -1   4    1.33    0.25
  -8  -1  -4    1.07    0.28
   8  -1   4    0.96    0.30
  -8   1  -5   35.57    2.32
   8   1   5   33.96    2.26
   8   1   5   38.60    2.35
   8  -1   5   39.97    2.22
  -8  -1  -5   34.17    2.35
   8  -1   5   30.33    2.17
  -8  -1  -5   36.28    2.23
   8  -1   5   31.42    2.30
   8  -1   5   36.57    2.22
   8   1   6    0.21    0.19
   8   1   6    0.58    0.28
   8   1   6    0.30    0.17
   8   1   6   -0.67    0.38
   8  -1   6   -0.28    0.26
   8  -1   6    0.41    0.23
   8  -1   6    0.97    0.25
  -8   2   9    0.99    0.32
  -8   2   9    1.76    0.43
  -8  -2   9    1.27    0.37
  -8   2   8   14.46    1.33
  -8   2   8   16.40    1.25
   8   2  -8   15.22    1.22
   8  -2  -8   12.62    1.75
  -8  -2   8   16.69    1.52
  -8   2   7    6.06    0.72
  -8   2   7    7.93    0.84
   8   2  -7    6.70    0.67
  -8  -2   7    7.99    0.81
  -8   2   6   65.59    3.78
  -8   2   6   62.40    3.86
   8   2  -6   59.30    3.55
  -8  -2   6   63.73    3.75
   8  -2  -6   58.44    3.82
   8   2  -5    8.85    0.59
   8   2  -5    7.46    0.59
  -8   2   5    8.65    0.87
  -8   2   5    8.82    0.85
  -8  -2   5   10.55    0.82
   8  -2  -5    8.32    0.74
   8  -2  -5    7.23    0.81
  -8   2   4   33.12    2.27
  -8   2   4   29.90    2.23
   8  -2  -4   35.24    2.26
  -8  -2   4   36.39    2.11
  -8   2   3    6.35    0.68
  -8   2   3    5.98    0.70
  -8  -2   3    5.91    0.63
  -8  -2   3    6.32    0.52
   8  -2  -3    5.80    0.63
   8  -2  -3    6.34    0.58
  -8   2   2   61.07    3.54
  -8   2   2   62.81    3.61
   8  -2  -2   59.09    3.42
  -8  -2   2   63.81    3.58
   8  -2  -2   54.18    3.55
  -8  -2   2   52.21    3.25
  -8  -2   2   62.05    3.52
   8  -2  -2   54.87    3.47
  -8   2   1    6.43    0.61
  -8   2   1    5.65    0.55
  -8   2   1    5.15    0.44
  -8   2   1    5.28    0.63
   8  -2  -1    4.65    0.54
   8  -2  -1    4.80    0.51
  -8  -2   1    5.10    0.57
  -8  -2   1    5.46    0.61
   8  -2  -1    5.52    0.63
  -8   2   0   54.87    2.94
  -8   2   0   53.67    3.22
  -8   2   0   51.13    3.13
   8  -2   0   53.43    3.26
   8  -2   0   50.33    3.07
   8  -2   0   54.60    3.12
  -8  -2   0   49.89    3.11
  -8  -2   0   47.00    3.20
  -8   2  -1    5.21    0.56
   8   2   1    3.97    0.50
  -8   2  -1    3.95    0.55
   8  -2   1    4.27    0.50
   8  -2   1    3.86    0.54
   8  -2   1    3.74    0.45
  -8  -2  -1    4.58    0.49
  -8  -2  -1    4.61    0.41
  -8   2  -2   67.85    4.06
   8   2   2   68.62    4.02
  -8   2  -2   70.73    4.13
   8   2   2   68.16    4.04
   8  -2   2   65.87    4.09
  -8  -2  -2   65.87    3.90
   8  -2   2   70.14    4.00
  -8  -2  -2   67.72    3.95
   8  -2   2   70.17    3.99
  -8   2  -3    2.20    0.43
   8   2   3    1.54    0.33
  -8   2  -3    1.15    0.33
   8   2   3    2.09    0.37
  -8  -2  -3    1.49    0.32
   8  -2   3    1.53    0.32
  -8  -2  -3    1.28    0.28
   8  -2   3    1.43    0.30
  -8   2  -4   56.83    3.52
   8   2   4   55.56    3.33
  -8   2  -4   58.15    3.49
   8   2   4   61.74    3.51
   8  -2   4   58.32    3.38
   8  -2   4   57.91    3.15
   8  -2   4   52.07    3.37
  -8  -2  -4   53.48    3.38
  -8  -2  -4   59.78    3.31
   8  -2   4   47.90    3.49
   8   2   5    7.24    0.70
  -8   2  -5    8.34    0.82
   8   2   5    8.01    0.83
   8  -2   5    7.27    0.58
   8  -2   5    6.27    0.68
   8  -2   5    6.87    0.72
  -8  -2  -5    6.42    0.76
   8   2   6    5.66    0.73
   8   2   6    4.08    0.61
   8  -2   6    4.79    0.58
   8  -2   6    5.03    0.69
   8  -2   6    4.50    0.49
  -8   3   9   19.54    1.70
   8   3  -9   20.50    1.55
  -8  -3   9   22.46    1.69
  -8   3   8    0.08    0.25
  -8   3   8   -0.08    0.22
   8   3  -8   -0.03    0.22
  -8  -3   8    0.33    0.23
   8   3  -7   25.62    1.52
  -8   3   7   22.58    2.07
  -8   3   7   23.94    1.70
  -8  -3   7   23.87    1.70
   8  -3  -7   18.70    1.74
   8   3  -6    9.58    0.67
  -8   3   6    8.85    0.94
  -8   3   6    7.41    0.85
  -8  -3   6    9.50    0.86
   8  -3  -6   10.54    0.87
  -8   3   5   50.51    3.11
  -8   3   5   48.18    3.14
  -8  -3   5   53.80    2.99
   8  -3  -5   42.45    2.93
   8  -3  -5   48.72    3.14
  -8   3   4   24.23    1.87
  -8   3   4   26.93    1.89
   8  -3  -4   25.55    1.76
   8  -3  -4   24.92    1.85
  -8  -3   4   30.56    1.73
  -8   3   3   41.47    2.60
  -8   3   3   39.93    2.60
  -8  -3   3   41.00    2.58
   8  -3  -3   38.18    2.56
   8  -3  -3   38.26    2.55
  -8  -3   3   38.38    2.31
   8  -3  -3   41.00    2.49
  -8   3   2   29.15    1.89
  -8   3   2   27.44    1.85
  -8  -3   2   26.62    1.87
  -8  -3   2   26.75    1.76
   8  -3  -2   23.53    1.77
   8  -3  -2   26.25    1.86
   8  -3  -2   26.11    1.75
  -8   3   1   40.25    2.62
  -8   3   1   38.05    2.57
  -8   3   1   43.09    2.66
   8  -3  -1   40.48    2.57
  -8  -3   1   37.18    2.66
  -8  -3   1   43.33    2.56
   8  -3  -1   47.33    2.75
   8   3   0    1.07    0.28
  -8   3   0    0.78    0.24
  -8   3   0    0.53    0.24
   8  -3   0    0.55    0.22
  -8  -3   0    0.79    0.26
   8  -3   0    0.68    0.26
   8  -3   0    0.59    0.24
  -8  -3   0    1.02    0.35
   8   3   1   74.94    4.47
  -8   3  -1   79.71    4.52
  -8   3  -1   74.41    4.47
  -8  -3  -1   71.44    4.18
  -8  -3  -1   71.90    4.36
   8  -3   1   78.39    4.45
   8  -3   1   79.49    4.45
   8   3   2   11.50    0.94
  -8   3  -2    9.97    0.92
  -8   3  -2   10.34    0.95
   8  -3   2    8.51    0.83
   8  -3   2    9.50    0.87
  -8  -3  -2    9.78    0.75
  -8  -3  -2    9.88    0.77
   8   3   3   29.86    1.99
  -8   3  -3   30.54    2.01
  -8   3  -3   27.76    1.96
   8  -3   3   28.52    2.42
  -8  -3  -3   27.99    1.82
  -8  -3  -3   25.61    1.77
   8  -3   3   29.25    1.92
   8  -3   3   28.68    1.93
   8   3   4    4.54    0.65
  -8   3  -4    7.63    1.08
  -8  -3  -4    6.53    0.64
   8  -3   4    5.45    0.64
  -8  -3  -4    6.64    0.67
   8   3   5   14.51    1.11
  -8   3  -5   17.43    1.35
   8   3   5   19.00    1.39
   8  -3   5   14.04    1.28
   8  -3   5   15.59    1.27
  -8  -3  -5   15.25    1.25
  -8   4   8   13.16    1.30
   8   4  -8   16.10    1.07
  -8   4   8   14.25    1.25
  -8  -4   8   15.95    1.29
  -8   4   7   13.83    1.35
   8   4  -7   17.20    1.02
  -8   4   7   14.37    1.28
   8  -4  -7   18.99    1.34
  -8  -4   7   14.19    1.25
  -8   4   6   21.45    1.59
  -8   4   6   19.83    1.67
   8  -4  -6   19.65    1.66
   8  -4  -6   20.57    1.53
  -8  -4   6   23.61    1.56
  -8   4   5    1.39    0.35
  -8   4   5    1.25    0.40
   8  -4  -5    1.38    0.31
  -8   4   4   63.88    3.77
  -8   4   4   59.55    3.83
   8  -4  -4   69.40    3.77
  -8  -4   4   61.29    3.59
   8  -4  -4   55.27    3.81
  -8   4   3   11.55    0.97
  -8   4   3    9.75    0.96
   8  -4  -3   10.91    0.98
   8  -4  -3    9.33    0.88
   8  -4  -3   10.96    1.01
  -8  -4   3   10.62    0.75
  -8   4   2   41.21    2.62
  -8   4   2   40.38    2.58
   8  -4  -2   39.00    2.62
   8  -4  -2   39.20    2.52
   8  -4  -2   39.95    2.62
  -8   4   1   16.12    1.30
  -8   4   1   15.91    1.31
   8  -4  -1   16.78    1.36
  -8  -4   1   17.20    1.42
   8  -4  -1   17.02    1.34
  -8  -4   1   16.93    1.20
   8  -4  -1   16.84    1.28
  -8   4   0   31.25    2.05
   8   4   0   30.11    2.03
   8  -4   0   27.12    2.04
  -8  -4   0   28.05    2.14
  -8  -4   0   29.37    1.94
   8  -4   0   31.39    2.04
   8  -4   0   29.38    2.02
  -8   4  -1   12.52    1.09
   8   4   1   12.03    1.06
   8  -4   1   12.82    1.07
  -8  -4  -1   13.07    0.91
   8  -4   1   11.61    1.04
  -8   4  -2   46.74    2.84
   8   4   2   44.76    2.81
  -8   4  -2   37.35    2.77
  -8  -4  -2   39.54    2.51
  -8  -4  -2   42.21    2.52
   8  -4   2   46.87    2.78
   8  -4   2   47.40    2.81
   8   4   3    5.04    0.66
   8  -4   3    6.35    0.68
  -8  -4  -3    5.38    0.56
  -8  -4  -3    5.60    0.46
   8   4   4   10.57    0.97
  -8   4  -4   10.75    0.97
   8  -4   4    8.22    0.93
   8  -4   4    9.34    0.93
  -8  -4  -4   10.14    0.86
   8   4   5    0.56    0.28
  -8   4  -5    0.73    0.27
   8  -4   5    0.44    0.27
  -8  -4  -5    1.32    0.38
  -8   5   8    3.42    0.63
  -8  -5   8    3.30    0.58
  -8   5   7   27.32    2.14
  -8   5   7   27.36    1.96
  -8  -5   7   30.32    2.06
   8  -5  -7   31.61    2.07
  -8   5   6    3.74    0.52
  -8   5   6    3.08    0.63
   8  -5  -6    3.84    0.53
  -8   5   5   20.09    1.47
  -8   5   5   17.24    1.66
   8  -5  -5   15.73    1.52
  -8  -5   5   19.76    1.51
   8  -5  -5   21.09    1.50
  -8  -5   5   21.48    1.41
  -8   5   4    1.75    0.38
  -8   5   4    1.81    0.41
  -8  -5   4    1.17    0.37
   8  -5  -4    2.14    0.37
  -8   5   3   48.56    3.13
  -8   5   3   52.03    3.08
  -8  -5   3   48.73    2.82
   8  -5  -3   48.33    3.04
   8  -5  -3   46.54    3.08
  -8   5   2    1.26    0.37
  -8   5   2    1.50    0.39
   8  -5  -2    1.18    0.33
   8  -5  -2    1.11    0.32
  -8   5   1   67.27    4.08
   8  -5  -1   64.45    4.13
   8  -5  -1   69.81    4.09
  -8  -5   1   69.17    3.94
  -8   5   0   17.29    1.37
   8   5   0   16.66    1.37
   8  -5   0   19.12    1.41
  -8  -5   0   17.68    1.30
  -8   5  -1   22.01    1.57
   8   5   1   18.91    1.51
  -8  -5  -1   20.54    1.28
   8  -5   1   20.62    1.56
   8  -5   1   18.40    1.53
  -8   5  -2    1.37    0.45
   8   5   2    1.13    0.43
   8  -5   2    1.49    0.41
   8  -5   2    1.74    0.43
  -8  -5  -2    1.37    0.23
  -8   5  -3   11.88    1.08
   8   5   3   11.35    1.07
   8  -5   3   12.65    1.11
  -8  -5  -3   10.56    0.87
  -8   5  -4    0.93    0.32
   8   5   4    0.61    0.26
   8  -5   4    0.82    0.29
  -8  -5  -4    0.26    0.27
  -8   6   7    3.66    0.65
  -8   6   7    2.86    0.47
  -8  -6   7    3.66    0.59
   8  -6  -7    2.46    0.48
  -8   6   6   21.07    1.55
  -8   6   6   21.01    1.75
  -8  -6   6   23.20    1.64
   8  -6  -6   23.90    1.68
  -8   6   5   11.59    1.10
  -8   6   5   11.06    0.96
   8  -6  -5   11.82    1.04
  -8  -6   5   10.94    0.94
  -8   6   4   32.96    2.21
  -8   6   4   35.78    2.38
  -8  -6   4   33.94    2.14
   8  -6  -4   33.44    2.27
  -8   6   3    3.66    0.53
   8  -6  -3    3.96    0.60
   8  -6  -3    4.10    1.00
   8  -6  -3    3.07    0.73
  -8  -6   3    3.73    0.40
  -8   6   2   48.66    2.92
  -8   6   2   44.96    2.68
  -8  -6   2   44.99    2.65
   8  -6  -2   45.39    3.06
  -8  -6   2   46.53    3.29
   8  -6  -2   42.69    3.24
   8  -6  -2   48.08    2.95
  -8   6   1    3.19    0.52
   8  -6  -1    4.03    0.53
  -8  -6   1    2.70    0.39
   8  -6  -1    2.11    0.50
   8  -6  -1    2.32    0.53
   8   6   0   20.66    1.56
  -8   6   0   21.19    1.52
  -8  -6   0   18.68    1.36
   8  -6   0   19.03    1.56
   8  -6   0   17.42    1.58
   8   6   1    0.14    0.18
  -8   6  -1   -0.12    0.17
  -8  -6  -1    0.34    0.15
   8  -6   1    0.19    0.21
  -8  -6  -1    0.20    0.12
   8   6   2    5.04    0.69
  -8   6  -2    5.76    0.69
  -8  -6  -2    5.94    0.54
   8  -6   2    6.57    0.76
   8   6   3    2.88    0.56
  -8   6  -3    4.12    0.56
  -8  -6  -3    2.68    0.45
  -8   7   5   18.56    1.31
  -8   7   5   15.83    1.43
   8  -7  -5   17.79    1.40
  -8  -7   5   19.30    1.37
  -8   7   4    0.10    0.23
  -8   7   4    0.50    0.33
  -8  -7   4    0.34    0.20
   8  -7  -4    0.15    0.20
  -8   7   3   52.48    3.12
  -8   7   3   53.99    3.20
  -8  -7   3   51.36    3.06
   8  -7  -3   53.24    3.28
   8  -7  -3   47.31    3.25
  -8   7   2    0.39    0.17
  -8   7   2    0.47    0.24
   8  -7  -2    0.40    0.29
  -8  -7   2    0.28    0.15
   8  -7  -2    0.47    0.26
  -8   7   1   25.36    2.16
  -8  -7   1   30.18    1.77
  -8  -7   1   29.12    1.68
   8  -7  -1   25.98    1.94
  -8  -7   1   24.83    1.65
  -8   7   0    0.63    0.28
  -8  -7   0    0.32    0.16
  -8  -7   0    0.49    0.17
   8  -7   0    0.84    0.27
  -8  -7   0    0.41    0.18
  -8  -7   0    0.57    0.39
  -8   7  -1   16.59    1.32
   8   7   1   15.71    1.34
   8  -7   1   15.87    1.36
  -8  -7  -1   16.44    1.09
  -8   7  -2    0.52    0.23
   8   7   2    0.93    0.36
   8  -7   2    0.93    0.36
  -8  -7  -2    0.98    0.26
  -8   8   2   33.00    2.01
  -8   8   2   27.19    1.75
  -8  -8   2   28.63    1.83
  -8  -8   2   29.62    1.87
  -8  -8   2   28.99    1.82
   8  -8  -2   28.12    2.06
  -8   8   1    1.24    0.39
  -8  -8   1    1.47    0.26
   8  -8  -1    0.83    0.31
  -8  -8   1    1.06    0.27
  -8  -8   1    1.17    0.29
  -8  -8   1    1.40    0.29
  -9   0   9    0.08    0.20
   9   0  -9   -0.24    0.48
   9   0  -8   16.39    1.41
  -9   0   7    0.36    0.21
   9   0  -7    0.37    0.26
   9   0  -6   34.55    2.30
  -9   0   6   36.25    2.37
  -9   0   5    0.13    0.18
  -9   0   5    0.11    0.16
   9   0  -5    0.26    0.12
   9   0  -5    0.31    0.17
   9   0  -4   70.34    3.78
   9   0  -4   63.70    3.82
  -9   0   4   68.38    4.05
  -9   0   4   65.58    3.94
  -9   0   3    0.52    0.22
   9   0  -3    0.56    0.17
  -9   0   3    0.75    0.27
   9   0  -3    0.90    0.16
  -9   0   2   46.63    2.76
  -9   0   2   37.31    2.47
  -9   0   2   39.73    2.66
  -9   0   2   44.48    2.55
   9   0  -1    3.37    0.50
  -9   0   1    3.43    0.40
  -9   0   1    4.15    0.47
  -9   0   1    3.68    0.41
  -9   0   1    4.42    0.56
  -9   0   0  109.36    6.30
  -9   0   0  118.40    6.48
   9   0   0  108.21    6.46
  -9   0   0  117.45    6.40
   9   0   1    0.06    0.18
  -9   0  -1   -0.13    0.13
  -9   0  -1    0.29    0.18
   9   0   2  103.01    6.05
   9   0   2  107.49    5.88
  -9   0  -2  103.47    5.96
  -9   0  -2  106.28    6.02
   9   0   3    0.80    0.18
   9   0   3    0.87    0.26
  -9   0  -3    0.85    0.31
  -9   0  -3    0.64    0.25
   9   0   3    0.62    0.31
  -9   0  -4    1.39    0.38
   9   0   4    1.38    0.29
  -9   0  -4    0.76    0.24
   9   0   4    1.26    0.22
   9   0   5    0.03    0.18
   9   0   5    0.07    0.31
   9   0   5   -0.09    0.14
  -9   0  -5   -0.20    0.19
   9   0   5    0.18    0.22
   9   1  -9   13.56    1.30
  -9   1   9   14.38    1.21
  -9   1   9   14.75    1.31
  -9  -1   9   13.46    1.24
  -9   1   8    2.97    0.77
   9   1  -8    4.37    0.61
  -9   1   8    3.75    0.59
  -9  -1   8    2.57    0.74
   9  -1  -8    3.69    1.03
   9   1  -7   25.25    1.77
  -9   1   7   25.75    1.91
   9  -1  -7   26.25    1.94
  -9  -1   7   27.95    1.91
   9   1  -6    2.31    0.38
  -9   1   6    2.19    0.44
   9   1  -6    2.78    0.34
  -9   1   6    2.04    0.39
   9  -1  -6    2.12    0.36
   9  -1  -6    2.28    0.47
  -9  -1   6    3.46    0.47
  -9   1   5   11.59    1.04
   9   1  -5   12.32    0.81
  -9   1   5   12.32    1.05
   9   1  -5   11.20    0.82
   9  -1  -5   10.25    0.88
  -9  -1   5   14.39    1.03
   9  -1  -5   11.52    1.01
  -9   1   4   15.35    1.22
  -9   1   4   14.03    1.15
  -9  -1   4   14.35    1.17
   9  -1  -4   14.68    1.02
   9  -1  -4   13.75    1.09
  -9   1   3   56.08    3.08
   9  -1  -3   44.59    2.85
   9  -1  -3   55.02    2.97
  -9  -1   3   45.90    2.89
  -9  -1   3   45.79    3.04
  -9   1   2    4.78    0.62
  -9   1   2    4.85    0.54
  -9   1   2    5.04    0.52
  -9  -1   2    6.07    0.62
   9  -1  -2    5.01    0.48
  -9  -1   2    4.72    0.61
  -9  -1   2    5.00    0.46
   9  -1  -2    4.69    0.45
  -9  -1   2    4.54    0.44
  -9   1   1  184.16    9.89
  -9   1   1  168.31    9.72
  -9   1   1  179.76    9.67
  -9   1   1  179.98    9.76
   9  -1  -1  153.40    9.58
   9  -1  -1  192.84    9.68
  -9  -1   1  191.19    9.85
   9  -1  -1  177.54    9.89
  -9  -1   1  176.96    9.86
  -9  -1   1  170.71    9.60
  -9  -1   1  172.01    9.61
  -9   1   0   16.91    1.25
  -9   1   0   15.65    1.15
  -9   1   0   15.93    1.08
   9  -1   0   14.14    1.00
  -9  -1   0   14.99    1.20
  -9  -1   0   16.35    1.20
   9  -1   0   14.12    1.21
   9  -1   0   15.84    1.04
  -9  -1   0   14.43    1.02
  -9   1  -1   55.26    3.35
  -9   1  -1   59.87    3.46
   9   1   1   58.05    3.42
  -9  -1  -1   59.12    3.39
   9  -1   1   53.57    3.21
  -9  -1  -1   50.35    3.24
   9  -1   1   56.95    3.48
   9  -1   1   57.00    3.24
   9   1   2   11.69    0.99
   9   1   2   11.73    0.92
  -9   1  -2   11.79    1.01
  -9   1  -2   10.45    0.95
   9  -1   2   12.25    0.87
   9  -1   2   12.50    0.92
  -9  -1  -2   12.37    0.98
   9  -1   2   11.29    1.02
  -9  -1  -2   10.12    0.90
   9   1   3   37.84    2.41
   9   1   3   40.18    2.38
  -9   1  -3   37.85    2.44
  -9   1  -3   38.80    2.47
  -9  -1  -3   35.75    2.36
   9  -1   3   35.89    2.26
   9  -1   3   32.77    2.23
  -9  -1  -3   38.62    2.39
   9  -1   3   39.01    2.21
  -9   1  -4    4.35    0.59
  -9   1  -4    3.37    0.52
   9   1   4    2.88    0.51
   9   1   4    3.48    0.50
   9  -1   4    3.38    0.40
   9  -1   4    3.77    0.43
  -9  -1  -4    3.32    0.48
  -9  -1  -4    3.54    0.58
   9  -1   4    3.64    0.61
   9  -1   4    3.88    0.48
  -9   1  -5    7.81    0.81
   9   1   5    8.50    0.78
   9  -1   5    8.86    0.73
   9  -1   5    6.54    0.66
  -9  -1  -5    7.63    0.73
   9  -1   5    7.91    0.68
  -9   2   9    3.10    0.53
  -9   2   9    2.41    0.56
   9   2  -9    2.09    0.53
  -9  -2   9    2.59    0.58
  -9   2   8   14.40    1.30
   9   2  -8   14.15    1.12
   9  -2  -8   14.52    1.92
  -9  -2   8   14.28    1.69
  -9   2   7    0.21    0.19
  -9   2   7    0.44    0.23
   9   2  -7    0.32    0.21
  -9  -2   7    0.72    0.29
   9   2  -6   44.09    2.33
  -9   2   6   39.99    2.64
   9   2  -6   37.84    2.34
  -9   2   6   38.97    2.68
   9  -2  -6   45.07    2.56
  -9  -2   6   39.68    2.59
   9  -2  -6   36.99    2.64
  -9   2   5    5.48    0.66
  -9   2   5    4.59    0.63
   9  -2  -5    5.71    0.64
   9  -2  -5    4.48    0.52
  -9   2   4   25.69    1.76
  -9   2   4   23.08    1.77
   9  -2  -4   22.06    1.58
   9  -2  -4   25.97    1.73
  -9   2   3    9.92    0.92
  -9   2   3    8.70    0.84
   9  -2  -3    9.34    0.76
   9  -2  -3    7.32    0.87
  -9  -2   3    9.04    0.83
  -9  -2   3    8.25    0.66
  -9  -2   3    8.74    0.82
  -9   2   2   44.17    2.71
  -9   2   2   46.25    2.80
  -9   2   2   40.81    2.65
  -9  -2   2   40.11    2.45
  -9  -2   2   45.56    2.75
   9  -2  -2   41.23    2.77
   9  -2  -2   43.26    2.62
   9  -2  -2   42.14    2.64
  -9  -2   2   45.64    2.73
  -9   2   1    5.10    0.56
  -9   2   1    5.31    0.45
  -9   2   1    4.99    0.62
  -9   2   1    4.16    0.54
   9  -2  -1    4.76    0.50
  -9  -2   1    4.90    0.60
   9  -2  -1    4.77    0.50
  -9  -2   1    4.21    0.41
  -9  -2   1    4.27    0.59
   9  -2  -1    5.16    0.61
  -9   2   0  145.98    7.97
  -9   2   0  138.72    7.86
   9  -2   0  155.53    8.03
   9  -2   0  145.67    7.79
   9  -2   0  158.53    7.85
  -9  -2   0  116.41    7.89
  -9  -2   0  122.33    7.80
  -9   2  -1    3.37    0.54
   9   2   1    3.71    0.48
  -9   2  -1    3.83    0.53
   9  -2   1    3.58    0.44
  -9  -2  -1    3.90    0.48
   9  -2   1    3.71    0.54
  -9  -2  -1    3.67    0.38
   9  -2   1    3.25    0.46
  -9   2  -2   28.61    1.93
   9   2   2   29.49    1.88
   9   2   2   29.55    1.92
  -9   2  -2   27.68    1.97
  -9  -2  -2   29.04    1.85
   9  -2   2   27.49    1.83
   9  -2   2   30.75    1.87
  -9  -2  -2   23.04    2.01
   9   2   3    2.95    0.47
  -9   2  -3    2.66    0.51
  -9   2  -3    3.40    0.51
   9   2   3    2.59    0.43
   9  -2   3    2.35    0.77
  -9  -2  -3    3.68    0.45
   9  -2   3    3.22    0.43
  -9  -2  -3    2.78    0.42
   9  -2   3    2.92    0.45
   9   2   4   20.80    1.42
   9   2   4   22.46    1.55
   9  -2   4   18.57    1.40
  -9  -2  -4   19.44    1.46
   9  -2   4   20.52    1.46
  -9  -2  -4   20.01    1.39
   9   2   5    2.19    0.39
   9   2   5    2.30    0.53
  -9   2  -5    1.15    0.35
   9  -2   5    1.07    0.37
   9  -2   5    1.27    0.30
  -9  -2  -5    1.83    0.32
  -9   3   8   -0.10    0.24
  -9   3   8    0.16    0.18
   9   3  -8    0.34    0.25
  -9  -3   8    0.15    0.23
  -9   3   7   15.04    1.33
  -9   3   7   17.23    1.31
   9   3  -7   12.97    0.97
   9  -3  -7   14.50    1.34
   9  -3  -7   17.17    1.44
  -9  -3   7   16.47    1.27
  -9   3   6    1.08    0.38
  -9   3   6    1.12    0.39
   9  -3  -6    1.18    0.31
  -9  -3   6    0.99    0.30
  -9   3   5   25.96    1.89
  -9   3   5   26.04    1.88
   9  -3  -5   24.49    1.86
   9  -3  -5   23.34    1.72
  -9  -3   5   28.01    1.73
  -9   3   4    5.45    0.68
  -9   3   4    5.99    0.71
   9  -3  -4    5.49    0.58
   9  -3  -4    5.36    0.66
  -9  -3   4    5.90    0.54
  -9   3   3   56.26    3.54
  -9   3   3   61.22    3.59
   9  -3  -3   54.85    3.51
  -9  -3   3   59.49    3.56
  -9  -3   3   53.29    3.25
  -9  -3   3   58.07    3.47
   9  -3  -3   60.79    3.46
  -9   3   2   40.19    2.55
  -9   3   2   37.35    2.49
   9  -3  -2   38.73    2.42
  -9  -3   2   40.02    2.45
   9  -3  -2   36.76    2.46
  -9  -3   2   37.64    2.54
   9  -3  -2   39.04    2.55
  -9   3   1   63.84    3.64
  -9   3   1   63.06    3.60
  -9   3   1   55.08    3.52
  -9  -3   1   60.48    3.68
   9  -3  -1   57.12    3.50
   9  -3  -1   48.47    3.55
  -9  -3   1   61.97    3.54
  -9   3   0    4.59    0.56
  -9   3   0    4.49    0.61
  -9  -3   0    3.99    0.64
   9  -3   0    4.01    0.54
  -9  -3   0    4.30    0.52
   9  -3   0    4.28    0.52
  -9   3  -1   45.94    2.82
   9   3   1   41.63    2.76
  -9   3  -1   43.69    2.83
   9  -3   1   48.10    2.78
   9  -3   1   46.86    2.76
  -9  -3  -1   43.60    2.65
  -9  -3  -1   39.68    2.51
   9   3   2    1.05    0.28
  -9   3  -2    0.83    0.28
  -9   3  -2    0.48    0.26
  -9  -3  -2    0.26    0.19
   9  -3   2    0.23    0.31
   9  -3   2    0.21    0.22
  -9  -3  -2    0.44    0.20
   9   3   3   26.13    1.85
  -9   3  -3   30.55    2.23
  -9   3  -3   19.89    2.38
  -9  -3  -3   26.49    1.71
  -9  -3  -3   25.95    1.68
   9  -3   3   27.05    1.80
   9  -3   3   26.70    1.81
   9   3   4    5.70    0.94
  -9   3  -4    5.62    0.66
  -9  -3  -4    4.08    0.45
  -9  -3  -4    5.08    0.61
   9  -3   4    3.68    0.56
   9   3   5    4.40    0.65
  -9   3  -5    6.08    0.74
   9  -3   5    5.14    0.60
   9  -3   5    3.33    0.67
  -9   4   8   16.74    1.36
  -9   4   8   15.85    1.43
  -9  -4   8   16.12    1.36
  -9   4   7    7.08    0.86
  -9   4   7    6.05    0.79
  -9  -4   7    8.20    0.80
   9  -4  -7    8.06    0.78
  -9   4   6   15.31    1.42
  -9   4   6   16.56    1.35
   9  -4  -6   18.55    1.41
   9  -4  -6   14.88    1.41
  -9  -4   6   18.76    1.32
  -9   4   5    8.68    0.96
  -9   4   5    9.72    0.96
  -9  -4   5    9.54    0.82
   9  -4  -5   11.21    0.93
  -9   4   4   42.82    2.89
  -9   4   4   45.85    2.86
  -9  -4   4   46.02    2.65
   9  -4  -4   40.79    2.87
   9  -4  -4   46.67    2.80
  -9   4   3    1.22    0.33
  -9   4   3    1.44    0.37
   9  -4  -3    1.05    0.32
  -9  -4   3    1.19    0.22
   9  -4  -3    1.80    0.43
   9  -4  -3    1.54    0.35
  -9   4   2   30.83    2.04
  -9   4   2   28.90    2.01
   9  -4  -2   28.48    2.04
   9  -4  -2   26.51    1.91
  -9  -4   2   29.48    1.92
   9  -4  -2   29.82    2.03
  -9   4   1    6.43    0.77
  -9   4   1    6.62    0.72
   9  -4  -1    7.08    0.72
  -9  -4   1    8.00    0.73
  -9  -4   1    7.00    0.85
   9  -4  -1    8.51    0.85
   9  -4  -1    7.82    0.79
  -9   4   0   23.93    1.76
   9  -4   0   25.54    1.75
  -9  -4   0   23.58    1.61
  -9  -4   0   22.43    1.86
   9  -4   0   25.47    1.75
  -9   4  -1    2.04    0.42
  -9   4  -1    1.72    0.41
   9   4   1    2.63    0.42
  -9  -4  -1    2.28    0.34
   9  -4   1    2.05    0.45
   9  -4   1    2.51    0.47
   9   4   2   34.89    2.39
  -9   4  -2   33.93    2.79
  -9  -4  -2   35.46    2.38
   9  -4   2   39.80    2.42
  -9  -4  -2   34.68    2.14
  -9   4  -3   17.17    1.37
   9   4   3   16.70    1.35
  -9  -4  -3   15.17    1.06
   9  -4   3   16.04    1.31
   9  -4   3   17.21    1.32
  -9  -4  -3   16.21    1.16
   9   4   4   10.53    0.99
  -9   4  -4    9.35    0.94
  -9  -4  -4    9.98    0.88
   9  -4   4    9.91    0.95
  -9   5   7   22.51    1.71
  -9   5   7   21.73    1.85
   9  -5  -7   25.66    1.78
  -9  -5   7   26.46    1.78
  -9   5   6    2.05    0.52
  -9   5   6    1.29    0.37
   9  -5  -6    2.70    0.44
  -9   5   5   36.69    2.47
  -9   5   5   35.90    2.58
   9  -5  -5   40.10    2.51
  -9  -5   5   39.10    2.39
  -9   5   4    9.06    0.88
  -9   5   4    8.86    0.98
   9  -5  -4    8.11    0.94
  -9  -5   4    7.45    0.96
  -9  -5   4    9.01    0.73
   9  -5  -4    9.69    0.87
  -9   5   3   31.83    2.10
  -9   5   3   27.97    2.09
   9  -5  -3   30.60    2.06
  -9  -5   3   31.18    1.81
   9  -5  -3   29.00    2.12
  -9   5   2    1.56    0.36
  -9   5   2    1.91    0.44
   9  -5  -2    1.82    0.69
  -9  -5   2    2.25    0.36
   9  -5  -2    1.62    0.37
  -9   5   1   42.15    2.68
   9  -5  -1   41.22    2.67
  -9  -5   1   41.37    3.15
  -9  -5   1   42.47    2.54
   9  -5  -1   37.71    2.71
  -9   5   0    3.97    0.59
   9  -5   0    4.01    0.74
  -9  -5   0    3.44    0.68
  -9  -5   0    3.95    0.49
   9  -5   0    5.05    0.61
  -9   5  -1   10.09    1.02
   9   5   1    9.38    1.16
   9  -5   1   11.93    1.03
   9  -5   1   10.16    1.05
  -9  -5  -1    9.66    0.93
  -9   5  -2    6.18    0.78
   9   5   2    7.42    0.79
  -9  -5  -2    7.89    0.61
   9  -5   2    6.13    0.90
   9  -5   2    7.83    0.82
  -9  -5  -2    7.18    0.56
   9   5   3   13.50    1.19
  -9   5  -3   12.20    1.15
  -9  -5  -3   13.35    0.98
   9  -5   3   14.08    1.19
   9   5   4    2.62    0.53
  -9   5  -4    2.19    0.47
  -9  -5  -4    2.40    0.50
   9  -5   4    2.43    0.48
  -9   6   6   29.44    1.97
  -9   6   6   26.40    2.10
  -9  -6   6   29.28    1.99
   9  -6  -6   31.30    2.08
  -9   6   5    5.40    0.73
  -9   6   5    6.46    0.70
   9  -6  -5    5.22    0.66
  -9  -6   5    6.91    0.68
  -9   6   4   28.20    1.97
  -9   6   4   27.86    2.07
  -9  -6   4   30.03    1.83
   9  -6  -4   28.30    1.99
  -9   6   3   11.08    1.01
  -9   6   3   11.29    1.07
   9  -6  -3   11.64    1.02
   9  -6  -3   11.73    1.08
  -9  -6   3   10.54    0.79
  -9   6   2   17.20    1.37
  -9  -6   2   18.15    1.26
   9  -6  -2   16.96    1.36
   9  -6  -2   16.51    1.42
  -9   6   1    0.23    0.31
   9  -6  -1    0.65    0.27
  -9  -6   1    0.46    0.21
  -9   6   0    6.11    0.73
  -9  -6   0    5.91    0.58
   9  -6   0    6.71    0.76
  -9   6  -1    2.28    0.44
   9   6   1    3.14    0.51
  -9  -6  -1    3.00    0.34
   9  -6   1    3.14    0.54
  -9   6  -2    8.02    0.90
   9   6   2    8.22    0.91
   9  -6   2   11.37    1.00
  -9  -6  -2    8.63    0.70
  -9   7   5   23.62    1.90
  -9   7   5   26.30    1.77
   9  -7  -5   24.60    1.84
  -9  -7   5   27.55    1.77
  -9   7   4    0.40    0.22
  -9   7   4    0.70    0.33
   9  -7  -4    0.41    0.27
  -9   7   3   31.67    2.27
  -9   7   3   30.41    1.94
  -9  -7   3   30.41    1.91
   9  -7  -3   31.54    2.16
  -9   7   2   -0.03    0.28
  -9  -7   2    0.92    0.24
   9  -7  -2   -0.13    0.18
  -9   7   1    8.03    0.85
   9  -7  -1    6.26    0.80
  -9  -7   1    8.62    0.71
  -9   7   0    1.15    0.33
  -9  -7   0    0.82    0.23
   9  -7   0    0.77    0.33
   9   7   1    6.80    0.79
  -9   7  -1    6.62    0.78
   9  -7   1    6.97    0.85
  10   0  -9    1.12    0.47
 -10   0   8   17.53    1.38
  10   0  -8   16.06    1.35
 -10   0   8   17.11    1.43
  10   0  -7   -0.10    0.20
 -10   0   7   -0.03    0.19
 -10   0   7    0.23    0.20
  10   0  -7   -0.23    0.14
 -10   0   6   15.77    1.29
 -10   0   6   17.01    1.29
  10   0  -6   13.46    1.04
 -10   0   5    1.49    0.36
 -10   0   5    1.50    0.35
  10   0  -5    1.17    0.29
  10   0  -5    1.25    0.31
 -10   0   4   63.43    3.82
 -10   0   4   64.03    3.71
  10   0  -4   55.69    3.53
  10   0  -4   64.96    3.47
 -10   0   3    3.67    0.57
 -10   0   3    2.66    0.41
 -10   0   2  158.72    9.00
 -10   0   2  153.33    8.87
 -10   0   2  168.38    9.06
 -10   0   1    0.77    0.22
 -10   0   1    0.43    0.25
 -10   0   1    0.69    0.21
 -10   0   0   52.88    3.13
 -10   0   0   59.21    3.30
  10   0   0   53.99    3.30
 -10   0   0   44.41    3.63
  10   0   1    0.49    0.24
 -10   0  -1   -0.09    0.14
 -10   0  -1    0.25    0.20
 -10   0  -2   21.89    1.53
 -10   0  -2   19.88    1.46
  10   0   2   20.52    1.54
 -10   0  -3   -0.36    0.21
  10   0   3    0.00    0.14
  10   0   3    0.00    0.25
 -10   0  -3    0.23    0.21
  10   0   4    5.26    0.77
 -10   0  -4    4.63    0.77
  10   0   4    5.92    0.58
 -10   0  -4    6.00    0.68
 -10   0  -5    0.73    0.26
  10   0   5    0.80    0.27
 -10   1   9    9.91    1.05
 -10   1   8    0.64    0.26
  10   1  -8    0.56    0.29
 -10   1   8    0.48    0.25
 -10  -1   8    0.63    0.26
 -10   1   7   18.28    1.42
  10   1  -7   16.01    1.24
 -10   1   7   16.53    1.40
  10   1  -7   17.53    1.17
 -10  -1   7   18.62    1.41
  10  -1  -7   17.20    1.43
  10  -1  -7   18.15    1.27
 -10   1   6    2.00    0.42
 -10   1   6    2.71    0.45
  10   1  -6    2.68    0.35
 -10  -1   6    2.27    0.41
 -10  -1   6    1.71    0.40
  10  -1  -6    2.07    0.43
  10  -1  -6    2.58    0.37
 -10   1   5   37.17    2.48
 -10   1   5   35.29    2.49
  10  -1  -5   36.02    2.41
 -10  -1   5   38.02    2.42
 -10  -1   5   38.74    2.50
  10  -1  -5   40.49    2.32
 -10   1   4   12.65    1.17
 -10   1   4   13.04    1.10
  10  -1  -4   13.61    0.97
 -10  -1   4   13.45    1.14
  10  -1  -4   12.51    1.03
 -10  -1   4   15.52    1.07
 -10   1   3  138.19    7.28
 -10   1   3  134.10    7.12
 -10  -1   3  122.70    7.15
  10  -1  -3  127.01    6.96
 -10  -1   3  117.77    6.94
 -10  -1   3  118.28    7.05
  10  -1  -3  120.42    6.90
 -10   1   2   13.99    1.11
 -10   1   2   15.41    1.27
 -10   1   2   15.42    1.15
 -10   1   2   14.85    1.09
 -10  -1   2   15.12    1.03
 -10  -1   2   14.56    1.03
 -10  -1   2   15.93    1.20
 -10  -1   2   15.10    1.24
  10  -1  -2   13.87    0.99
  10  -1  -2   15.59    1.05
 -10   1   1   73.43    3.93
 -10   1   1   70.62    3.98
 -10   1   1   63.39    3.95
 -10   1   1   73.70    4.13
 -10  -1   1   62.47    3.83
 -10  -1   1   60.91    3.82
  10  -1  -1   63.63    3.79
  10  -1  -1   75.09    3.86
 -10  -1   1   66.12    4.06
 -10  -1   1   67.09    4.04
  10  -1  -1   71.66    4.14
 -10   1   0    3.62    0.54
 -10   1   0    3.46    0.43
 -10   1   0    3.44    0.46
  10  -1   0    3.65    0.35
 -10  -1   0    3.67    0.52
  10  -1   0    3.34    0.60
 -10  -1   0    3.58    0.49
 -10  -1   0    3.54    0.39
  10  -1   0    3.38    0.37
 -10   1  -1   22.74    1.60
 -10   1  -1   22.83    1.52
  10   1   1   20.22    1.53
  10  -1   1   21.12    1.34
  10  -1   1   21.31    1.59
 -10  -1  -1   21.19    1.52
  10  -1   1   21.42    1.36
 -10  -1  -1   20.55    1.41
 -10   1  -2    4.21    0.58
  10   1   2    5.25    0.55
 -10   1  -2    5.19    0.64
  10   1   2    5.38    0.63
 -10  -1  -2    5.97    0.57
  10  -1   2    5.11    0.49
 -10  -1  -2    5.41    0.61
  10   1   3    3.06    0.54
 -10   1  -3    3.69    0.58
  10   1   3    4.65    0.52
 -10   1  -3    5.45    0.65
  10  -1   3    3.81    0.64
  10  -1   3    4.24    0.43
 -10  -1  -3    4.03    0.56
 -10  -1  -3    3.47    0.55
  10  -1   3    4.27    0.47
  10   1   4    2.84    0.45
 -10   1  -4    5.22    0.73
 -10  -1  -4    3.20    0.48
  10  -1   4    3.49    0.41
  10  -1   4    3.42    0.39
 -10  -1  -4    3.64    0.62
  10  -1   4    3.45    0.56
  10   1   5    9.98    0.92
 -10   1  -5   11.26    0.99
  10   1   5    8.72    0.98
  10  -1   5    9.52    0.85
  10  -1   5   10.26    0.78
  10  -1   5   11.06    0.82
 -10  -1  -5   10.11    0.89
  10  -2  -8   17.45    1.33
 -10   2   7    4.47    0.64
  10   2  -7    3.93    0.46
 -10   2   7    5.18    0.68
 -10  -2   7    4.65    0.59
  10  -2  -7    5.44    0.58
 -10   2   6   43.33    2.81
 -10   2   6   42.60    2.79
  10  -2  -6   37.15    2.72
  10  -2  -6   47.90    2.65
 -10  -2   6   39.97    2.65
 -10   2   5    1.46    0.39
 -10   2   5    1.49    0.40
  10  -2  -5    1.59    0.32
 -10  -2   5    1.63    0.33
  10  -2  -5    2.22    0.43
 -10   2   4   24.43    1.79
 -10   2   4   28.06    1.91
 -10  -2   4   26.23    1.64
  10  -2  -4   24.91    1.74
 -10  -2   4   25.75    1.79
 -10  -2   4   21.92    1.71
  10  -2  -4   25.32    1.67
 -10   2   3   11.97    1.01
 -10   2   3   10.62    1.05
 -10  -2   3   10.85    0.98
  10  -2  -3   11.53    1.17
 -10  -2   3   10.37    0.97
  10  -2  -3   11.78    0.89
 -10  -2   3   10.76    0.81
 -10   2   2   74.47    4.61
 -10   2   2   89.10    4.79
 -10   2   2   88.16    4.70
 -10  -2   2   77.90    4.70
  10  -2  -2   75.99    4.53
 -10  -2   2   79.86    4.70
 -10  -2   2   72.48    4.40
 -10   2   1    2.29    0.39
 -10   2   1    2.40    0.32
 -10   2   1    2.61    0.50
 -10   2   1    2.25    0.41
 -10  -2   1    2.51    0.28
 -10  -2   1    2.51    0.53
  10  -2  -1    2.55    0.38
  10  -2  -1    2.22    0.35
 -10  -2   1    2.88    0.50
 -10  -2   1    2.12    0.27
 -10   2   0  105.52    5.95
 -10   2   0  100.03    5.83
 -10  -2   0   91.68    5.90
  10  -2   0  109.29    5.77
 -10  -2   0   94.75    5.79
  10  -2   0  109.77    5.75
 -10   2  -1   12.32    1.03
 -10   2  -1   10.95    0.94
  10  -2   1    9.52    0.82
  10  -2   1    9.55    1.09
 -10  -2  -1   11.40    0.90
 -10  -2  -1   10.15    0.78
 -10   2  -2    0.96    0.35
  10   2   2    1.32    0.30
 -10   2  -2    1.31    0.35
  10  -2   2    1.44    0.30
 -10  -2  -2    1.48    0.32
 -10  -2  -2    1.22    0.27
  10  -2   2    1.12    0.42
  10  -2   2    1.18    0.31
  10   2   3    1.00    0.29
  10   2   3    1.61    0.36
 -10   2  -3    0.63    0.51
  10  -2   3    0.98    0.26
  10  -2   3    1.18    0.32
 -10  -2  -3    0.92    0.28
 -10  -2  -3    0.74    0.32
 -10   2  -4   19.08    1.50
  10   2   4   19.00    1.39
  10   2   4   20.73    1.47
  10  -2   4   19.91    1.39
  10  -2   4   17.54    1.32
 -10  -2  -4   18.15    1.35
 -10  -2  -4   20.27    1.45
 -10   3   8    1.16    0.33
 -10   3   8    1.65    0.43
  10  -3  -8    1.84    0.41
 -10  -3   8    1.44    0.40
 -10   3   7   13.15    1.26
 -10   3   7   16.19    1.31
  10  -3  -7   15.87    1.21
 -10  -3   7   15.33    1.24
  10  -3  -7   13.05    1.30
 -10   3   6    8.82    0.96
 -10   3   6    8.29    0.97
  10  -3  -6   10.31    0.88
 -10  -3   6   11.45    0.92
 -10   3   5   22.44    1.72
 -10   3   5   23.84    1.75
  10  -3  -5   22.25    1.70
  10  -3  -5   21.11    1.55
 -10  -3   5   23.61    1.55
 -10   3   4    0.48    0.18
 -10   3   4    0.32    0.22
  10  -3  -4    0.58    0.28
 -10  -3   4    0.25    0.17
  10  -3  -4    0.12    0.17
 -10  -3   4    0.24    0.27
 -10  -3   4    0.27    0.18
 -10   3   3   83.79    4.88
 -10   3   3   84.41    4.86
 -10  -3   3   81.39    4.85
 -10  -3   3   75.23    4.52
  10  -3  -3   79.69    4.80
 -10  -3   3   82.63    4.79
  10  -3  -3   84.78    4.74
 -10   3   2    6.36    0.72
 -10   3   2    5.19    0.63
  10  -3  -2    4.92    0.70
  10  -3  -2    6.58    0.64
  10  -3  -2    5.35    0.63
 -10  -3   2    6.24    0.68
 -10  -3   2    6.01    0.74
 -10   3   1   29.36    2.00
 -10   3   1   31.49    1.76
 -10   3   1   31.71    2.08
 -10   3   1   26.46    1.95
 -10  -3   1   28.19    1.97
 -10  -3   1   26.85    2.06
  10  -3  -1   30.30    1.95
 -10   3   0   25.73    1.84
 -10   3   0   27.19    1.92
  10  -3   0   27.60    1.81
 -10  -3   0   27.04    1.78
 -10  -3   0   25.15    1.94
  10  -3   0   26.45    1.79
 -10   3  -1   28.66    2.00
 -10   3  -1   29.64    1.96
  10   3   1   27.73    1.91
 -10  -3  -1   23.57    1.67
  10  -3   1   30.66    1.92
  10  -3   1   31.04    1.91
 -10  -3  -1   27.22    1.82
 -10   3  -2    2.38    0.52
  10   3   2    2.49    0.43
  10  -3   2    3.41    0.46
 -10  -3  -2    2.26    0.39
 -10  -3  -2    3.26    0.42
  10  -3   2    3.39    0.53
  10   3   3   13.98    1.12
 -10   3  -3   12.62    1.12
 -10  -3  -3   11.39    0.97
  10  -3   3   13.01    1.05
 -10  -3  -3   13.13    0.98
  10  -3   3   12.16    1.03
 -10   3  -4    0.40    0.29
  10   3   4   -0.24    0.23
  10  -3   4    0.01    0.21
 -10  -3  -4    0.40    0.19
 -10  -3  -4   -0.35    0.32
 -10   4   8   17.11    1.56
 -10   4   8   18.64    1.47
 -10  -4   8   17.20    1.44
  10  -4  -8   21.33    1.50
 -10   4   7    9.05    1.07
 -10  -4   7    8.51    0.84
 -10   4   6   18.89    1.47
 -10   4   6   18.52    1.54
 -10  -4   6   20.65    1.39
  10  -4  -6   16.85    1.37
  10  -4  -6   16.48    1.62
 -10   4   5   14.20    1.26
 -10   4   5   11.71    1.60
 -10  -4   5   16.42    1.13
  10  -4  -5   15.71    1.20
 -10   4   4   28.33    2.09
 -10   4   4   29.34    2.06
  10  -4  -4   30.23    2.01
 -10  -4   4   30.05    1.84
 -10   4   3    1.19    0.34
 -10   4   3    1.44    0.33
 -10  -4   3    1.83    0.24
  10  -4  -3    1.91    0.41
  10  -4  -3    1.26    0.43
 -10  -4   3    0.84    0.27
  10  -4  -3    2.18    0.38
 -10  -4   3    1.16    0.36
 -10   4   2   36.17    2.32
 -10   4   2   32.51    2.27
 -10  -4   2   33.53    2.18
 -10  -4   2   32.95    2.35
  10  -4  -2   32.06    2.20
 -10   4   1    4.73    0.63
 -10   4   1    4.95    0.62
  10  -4  -1    5.43    0.70
  10  -4  -1    4.53    0.64
 -10  -4   1    5.22    0.59
  10  -4  -1    5.30    0.62
 -10  -4   1    4.88    0.71
 -10   4   0   24.03    1.71
 -10   4   0   19.73    1.61
 -10  -4   0   22.94    1.53
  10  -4   0   23.71    1.64
 -10  -4   0   23.31    1.81
  10  -4   0   18.85    1.72
  10  -4   0   23.26    1.65
 -10   4  -1    5.38    0.72
  10   4   1    5.52    0.65
 -10  -4  -1    5.52    0.57
  10  -4   1    6.37    0.68
  10  -4   1    5.61    0.64
  10   4   2   32.90    2.20
 -10   4  -2   33.72    2.28
  10  -4   2   32.27    2.16
 -10  -4  -2   30.34    1.97
 -10   4  -3    5.44    0.65
  10   4   3    2.93    0.56
 -10  -4  -3    4.56    0.52
 -10  -4  -3    3.12    0.42
  10  -4   3    3.73    0.66
  10  -4   3    4.08    0.56
 -10   5   7   16.66    1.58
 -10   5   7   18.87    1.53
 -10  -5   7   22.66    1.55
  10  -5  -7   20.51    1.53
 -10   5   6    3.68    0.60
 -10   5   6    4.04    0.65
  10  -5  -6    4.11    0.57
 -10  -5   6    5.20    0.60
 -10   5   5   21.70    1.76
 -10   5   5   22.26    1.69
  10  -5  -5   23.79    1.67
 -10  -5   5   24.77    1.58
 -10   5   4    6.22    0.74
 -10   5   4    5.53    0.71
  10  -5  -4    5.21    0.78
  10  -5  -4    5.58    0.81
 -10  -5   4    5.65    0.55
 -10   5   3   10.85    1.07
 -10   5   3   11.43    1.08
  10  -5  -3   11.41    1.11
 -10  -5   3   12.19    0.99
  10  -5  -3   10.28    0.98
  10  -5  -3   11.98    1.15
 -10   5   2    1.71    0.60
 -10   5   2    1.41    0.39
  10  -5  -2    1.57    0.39
  10  -5  -2    2.00    0.43
 -10  -5   2    2.27    0.41
  10  -5  -2    1.83    0.62
 -10   5   1   20.68    1.84
 -10  -5   1   22.31    1.55
  10  -5  -1   23.91    1.68
  10  -5  -1   20.70    1.88
 -10   5   0    1.80    0.47
  10  -5   0    3.03    0.51
 -10  -5   0    3.04    0.40
  10  -5   0    3.29    0.58
  10   5   1   16.32    1.37
 -10   5  -1   18.62    1.49
  10  -5   1   16.16    1.42
  10  -5   1   19.48    1.47
 -10  -5  -1   18.61    1.21
 -10   5  -2    3.24    0.61
  10   5   2    2.52    0.49
 -10  -5  -2    3.31    0.47
  10  -5   2    3.90    0.56
 -10   5  -3   14.72    1.24
  10   5   3   14.41    1.21
 -10  -5  -3   11.61    0.96
  10  -5   3   12.11    1.14
 -10   6   6   18.56    1.57
 -10   6   6   16.88    1.44
 -10  -6   6   22.89    1.47
  10  -6  -6   18.69    1.47
 -10   6   5    0.66    0.33
 -10   6   5    0.81    0.39
  10  -6  -5    0.67    0.29
 -10   6   4   13.55    1.23
  10  -6  -4   13.44    1.16
 -10   6   3    3.99    0.63
 -10   6   3    4.57    0.63
 -10  -6   3    4.68    0.53
  10  -6  -3    4.08    0.58
 -10  -6   3    4.16    0.41
 -10   6   2    5.78    0.74
 -10  -6   2    5.66    0.61
  10  -6  -2    5.86    0.70
 -10   6   1    1.37    0.46
  10  -6  -1    1.49    0.39
 -10  -6   1    2.23    0.40
 -10   6   0   16.07    1.39
 -10  -6   0   17.37    1.18
  10  -6   0   16.77    1.40
  10   6   1    4.86    0.64
 -10   6  -1    5.70    0.73
  10  -6   1    6.02    0.75
 -10   7   3   11.16    0.87
 -10   7   3   10.61    1.06
  10  -7  -3   13.10    1.11
 -10   7   2    0.06    0.27
  10  -7  -2    0.44    0.25
 -10  -7   2    0.76    0.26
 -10   7   1    2.76    0.57
  10  -7  -1    3.51    0.61
 -10  -7   1    3.67    0.51
 -11   0   8   37.00    2.63
  11   0  -8   44.25    2.43
 -11   0   8   38.00    2.63
  11   0  -8   37.32    2.54
  11   0  -7   -0.06    0.21
  11   0  -7    0.38    0.19
 -11   0   7    0.42    0.22
 -11   0   7    0.23    0.22
  11   0  -6   24.24    1.62
 -11   0   6   24.79    1.77
  11   0  -6   25.80    1.56
 -11   0   6   23.36    1.80
  11   0  -5    2.41    0.30
 -11   0   5    3.37    0.53
  11   0  -5    2.13    0.34
 -11   0   4   83.57    4.90
 -11   0   4   85.54    5.06
 -11   0   3   -0.12    0.11
 -11   0   3    0.17    0.22
 -11   0   3    0.09    0.20
 -11   0   2  105.76    5.87
 -11   0   2  109.14    6.09
 -11   0   2  102.00    5.91
 -11   0   2   99.03    5.84
 -11   0   1    0.53    0.20
 -11   0   1    0.15    0.13
 -11   0   1    0.54    0.22
 -11   0   1    0.35    0.21
 -11   0   0    0.19    0.18
 -11   0   0    0.33    0.22
  11   0   0    0.30    0.26
 -11   0   0    0.35    0.19
 -11   0  -1    0.55    0.25
 -11   0  -1    0.49    0.21
  11   0   1    0.30    0.27
 -11   0  -2   21.73    1.53
 -11   0  -2   22.23    1.61
 -11   0  -3   -0.32    0.24
 -11   0  -3    0.05    0.23
  11   0   3   -0.15    0.27
 -11   0  -4    7.15    0.77
  11   0   4    6.84    0.64
  11   1  -8    1.34    0.26
  11   1  -8    0.64    0.29
 -11   1   8    0.99    0.33
 -11   1   8    1.20    0.35
 -11  -1   8    1.04    0.37
  11  -1  -8    1.57    0.33
 -11  -1   8    1.03    0.32
 -11   1   7   13.46    1.69
  11   1  -7   14.80    1.12
  11   1  -7   18.44    1.12
 -11   1   7   17.36    1.40
  11  -1  -7   17.86    1.22
 -11  -1   7   17.41    1.37
  11  -1  -7   15.96    1.34
 -11  -1   7   18.30    1.40
 -11   1   6    1.33    0.34
 -11   1   6    1.35    0.35
  11   1  -6    0.58    0.26
 -11  -1   6    0.98    0.35
  11  -1  -6    1.05    0.33
 -11  -1   6    0.86    0.30
  11  -1  -6    1.19    0.27
 -11   1   5   69.62    4.34
 -11   1   5   71.04    4.28
 -11  -1   5   71.02    4.18
 -11  -1   5   70.38    4.29
  11  -1  -5   62.54    4.49
  11  -1  -5   79.05    4.09
 -11   1   4    4.94    0.59
 -11   1   4    4.60    0.69
  11  -1  -4    4.92    0.48
 -11  -1   4    5.03    0.59
 -11  -1   4    5.08    0.52
  11  -1  -4    4.92    0.54
 -11  -1   4    5.51    0.63
 -11   1   3   48.29    2.82
 -11   1   3   44.84    2.66
  11  -1  -3   37.56    2.41
 -11  -1   3   36.59    2.67
 -11   1   2   20.65    1.33
 -11   1   2   18.87    1.45
 -11   1   2   18.60    1.33
 -11   1   2   18.94    1.33
 -11  -1   2   19.84    1.48
  11  -1  -2   18.34    1.18
 -11  -1   2   17.71    1.23
 -11  -1   2   18.04    1.37
  11  -1  -2   15.88    1.12
 -11  -1   2   17.09    1.22
 -11   1   1   22.36    1.52
 -11   1   1   22.11    1.52
 -11   1   1   22.26    1.64
 -11   1   1   24.22    1.50
 -11  -1   1   19.77    1.40
 -11  -1   1   19.43    1.39
  11  -1  -1   21.62    1.32
 -11  -1   1   20.03    1.56
 -11  -1   1   21.22    1.60
  11  -1  -1   26.10    1.50
 -11   1   0    3.27    0.43
 -11   1   0    4.34    0.55
 -11   1   0    3.33    0.47
  11  -1   0    2.67    0.29
 -11  -1   0    3.31    0.53
 -11  -1   0    3.03    0.40
 -11  -1   0    3.56    0.50
 -11   1  -1    7.55    0.77
 -11   1  -1    7.14    0.74
  11   1   1    7.49    0.77
 -11  -1  -1    6.89    0.72
 -11  -1  -1    6.74    0.64
 -11   1  -2    0.48    0.27
 -11   1  -2    1.25    0.35
  11   1   2    0.41    0.27
 -11  -1  -2    1.15    0.28
  11  -1   2    0.74    0.18
 -11  -1  -2    0.19    0.21
  11  -1   2    0.63    0.31
  11   1   3   12.89    1.00
 -11   1  -3   13.16    1.14
  11  -1   3   12.10    0.88
 -11  -1  -3   14.02    1.11
  11  -1   3   12.66    0.93
  11   1   4    1.11    0.31
 -11   1  -4    0.67    0.33
  11   1   4    1.78    0.41
 -11  -1  -4    0.89    0.32
  11  -1   4    0.76    0.26
 -11   2   8   12.89    1.18
  11   2  -8   10.88    0.86
 -11   2   8   11.95    1.14
  11  -2  -8   12.16    1.00
 -11  -2   8   13.65    1.16
 -11   2   7    4.82    0.67
 -11   2   7    4.09    0.66
  11  -2  -7    4.67    0.54
 -11  -2   7    5.03    0.63
 -11   2   6   57.02    3.59
 -11   2   6   55.49    3.55
  11  -2  -6   61.13    3.36
 -11  -2   6   56.85    3.52
 -11  -2   6   53.61    3.39
  11  -2  -6   51.80    3.44
 -11   2   5    1.60    0.40
 -11   2   5    2.59    0.45
  11  -2  -5    1.65    0.33
 -11  -2   5    1.82    0.39
  11  -2  -5    1.55    0.37
 -11   2   4   64.76    3.95
 -11   2   4   63.34    3.89
  11  -2  -4   66.44    3.79
 -11  -2   4   62.74    3.86
 -11  -2   4   65.19    3.69
  11  -2  -4   57.45    3.66
 -11   2   3    2.61    0.55
 -11   2   3    2.23    0.46
 -11  -2   3    2.55    0.48
 -11  -2   3    2.44    0.48
  11  -2  -3    2.98    0.40
  11  -2  -3    2.88    0.51
 -11  -2   3    2.19    0.31
 -11   2   2   39.89    2.59
 -11   2   2   41.04    2.70
 -11   2   2   42.40    2.62
 -11   2   2   40.88    2.46
 -11  -2   2   41.85    2.69
 -11  -2   2   41.22    2.68
  11  -2  -2   45.10    2.54
  11  -2  -2   39.78    2.48
 -11  -2   2   37.31    2.37
 -11   2   1    5.67    0.56
 -11   2   1    7.00    0.69
 -11   2   1    6.55    0.70
 -11   2   1    6.34    0.72
  11  -2  -1    7.21    0.64
  11  -2  -1    6.64    0.59
 -11  -2   1    7.93    0.81
 -11  -2   1    6.52    0.73
 -11  -2   1    6.30    0.53
 -11  -2   1    6.23    0.52
 -11   2   0   26.97    1.88
 -11   2   0   27.17    1.80
 -11  -2   0   23.70    1.75
  11  -2   0   27.85    2.07
 -11  -2   0   22.73    1.57
 -11  -2   0   23.43    1.84
  11  -2   0   29.40    1.70
  11  -2   0   27.05    1.66
 -11   2  -1    1.66    0.40
 -11   2  -1    1.71    0.38
  11  -2   1    0.98    0.36
 -11  -2  -1    1.36    0.27
  11  -2   1    1.45    0.40
  11  -2   1    1.63    0.30
 -11  -2  -1    1.66    0.33
 -11   2  -2    2.16    0.46
 -11   2  -2    2.89    0.55
  11   2   2    2.92    0.43
 -11  -2  -2    3.19    0.48
  11  -2   2    3.50    0.42
  11  -2   2    2.81    0.46
 -11  -2  -2    3.19    0.46
 -11   2  -3    5.82    0.69
  11   2   3    4.35    0.55
  11  -2   3    4.03    0.48
 -11  -2  -3    4.04    0.61
  11  -2   3    4.50    0.56
 -11  -2  -3    3.39    0.54
  11   2   4   22.35    1.57
 -11   2  -4   21.56    1.64
 -11  -2  -4   20.51    1.47
  11  -2   4   21.40    1.48
  11  -2   4   20.46    1.43
 -11   3   8    3.71    0.65
 -11  -3   8    4.59    0.63
  11  -3  -8    4.40    0.55
 -11   3   7   12.41    1.15
 -11   3   7   10.37    1.11
 -11  -3   7   14.18    1.10
  11  -3  -7   12.59    1.03
  11  -3  -7   10.13    1.24
 -11   3   6    2.51    0.51
 -11   3   6    2.54    0.70
  11  -3  -6    3.12    0.45
 -11   3   5   25.52    1.87
 -11   3   5   23.62    1.85
 -11  -3   5   25.70    1.65
 -11  -3   5   24.22    1.76
  11  -3  -5   26.12    1.71
  11  -3  -5   23.07    1.78
 -11   3   4   11.36    1.08
 -11   3   4   11.27    1.03
 -11  -3   4   11.41    0.84
 -11  -3   4   11.41    1.00
 -11  -3   4   10.97    1.05
  11  -3  -4    9.41    0.95
  11  -3  -4   12.31    0.95
 -11   3   3   43.66    2.72
 -11   3   3   43.45    2.77
 -11  -3   3   41.69    2.73
  11  -3  -3   43.11    2.61
  11  -3  -3   39.88    2.62
 -11  -3   3   39.16    2.40
 -11  -3   3   40.62    2.66
 -11   3   2    1.10    0.30
 -11   3   2    1.15    0.23
 -11  -3   2    0.82    0.37
  11  -3  -2    1.49    0.35
  11  -3  -2    0.97    0.38
  11  -3  -2    0.78    0.27
 -11  -3   2    1.29    0.37
 -11   3   1   21.22    1.22
 -11   3   1   16.21    1.41
 -11   3   1   20.61    1.54
  11  -3  -1   20.52    1.42
 -11  -3   1   16.64    1.40
 -11   3   0    6.30    0.76
 -11   3   0    6.71    0.76
 -11  -3   0    7.46    0.70
 -11  -3   0    6.42    0.87
  11  -3   0    7.36    0.71
  11  -3   0    6.84    0.67
 -11   3  -1   12.35    1.28
 -11   3  -1   16.17    1.27
  11  -3   1   14.11    1.10
 -11  -3  -1   13.11    0.95
 -11  -3  -1   13.97    1.06
  11  -3   1   13.85    1.06
 -11   3  -2    4.67    0.64
  11   3   2    4.30    0.54
  11  -3   2    3.56    0.50
 -11  -3  -2    3.59    0.48
  11  -3   2    3.70    0.56
 -11  -3  -2    3.45    0.46
  11   3   3   23.18    1.61
 -11   3  -3   21.80    1.66
 -11  -3  -3   21.88    1.49
  11  -3   3   21.33    1.53
  11  -3   3   22.44    1.57
 -11  -3  -3   20.83    1.52
 -11   4   7    1.53    0.47
 -11   4   7    0.86    0.36
  11  -4  -7    1.19    0.32
 -11  -4   7    1.63    0.37
 -11   4   6   17.24    1.47
 -11   4   6   15.64    1.40
  11  -4  -6   16.26    1.31
 -11  -4   6   20.31    1.34
 -11   4   5   10.11    1.17
 -11   4   5    9.67    1.01
  11  -4  -5    9.43    0.86
 -11  -4   5   11.62    0.86
  11  -4  -5    8.89    1.02
 -11   4   4   20.63    2.01
 -11   4   4   21.19    1.69
  11  -4  -4   25.02    1.65
 -11  -4   4   22.83    1.64
 -11  -4   4   23.03    1.45
 -11   4   3    7.28    0.81
 -11   4   3    7.90    0.80
 -11  -4   3    7.15    0.74
  11  -4  -3    5.59    0.75
  11  -4  -3    7.26    0.87
  11  -4  -3    7.81    0.75
 -11   4   2   33.68    2.29
 -11   4   2   33.18    1.95
 -11   4   2   35.77    2.36
 -11  -4   2   29.81    2.37
  11  -4  -2   36.71    2.52
 -11  -4   2   32.54    2.21
  11  -4  -2   33.51    2.22
 -11   4   1    8.06    1.06
  11  -4  -1   10.06    0.90
 -11  -4   1    8.97    1.07
  11  -4  -1    7.70    0.85
 -11  -4   1   10.01    0.87
 -11   4   0   12.48    1.15
  11  -4   0   12.19    1.06
  11  -4   0   12.68    1.08
 -11  -4   0   12.53    1.00
 -11   4  -1    2.07    0.45
  11  -4   1    2.13    0.46
 -11  -4  -1    1.87    0.32
  11   4   2   22.25    1.70
 -11   4  -2   24.16    1.81
 -11  -4  -2   22.85    1.53
  11  -4   2   25.35    1.81
  11  -4   2   25.65    1.78
 -11  -4  -2   22.16    1.49
 -11   4  -3    2.57    0.50
  11   4   3    3.74    0.52
 -11  -4  -3    3.14    0.48
  11  -4   3    3.69    0.55
 -11   5   6    0.28    0.27
 -11   5   6    0.14    0.26
  11  -5  -6    0.37    0.21
 -11  -5   6    0.41    0.24
 -11   5   5   19.95    1.52
 -11   5   5   17.98    1.55
 -11  -5   5   20.48    1.36
  11  -5  -5   19.66    1.49
 -11   5   4    1.54    0.39
 -11   5   4    0.80    0.30
  11  -5  -4    0.47    0.24
 -11  -5   4    1.16    0.40
 -11   5   3    6.57    0.76
 -11   5   3    7.70    0.84
  11  -5  -3    6.35    0.71
 -11  -5   3    6.31    0.70
  11  -5  -3    8.33    0.89
 -11   5   2    9.51    0.95
 -11  -5   2    9.24    0.85
  11  -5  -2    8.20    1.19
  11  -5  -2    8.05    0.90
 -11   5   1   35.20    2.30
 -11  -5   1   34.61    2.15
  11  -5  -1   30.58    2.21
  11  -5  -1   28.62    2.40
 -11   5   0    0.87    0.35
  11  -5   0    1.48    0.37
 -11  -5   0    0.93    0.25
  11  -5   0    0.62    0.41
 -11   5  -1   21.09    1.66
  11  -5   1   21.84    1.59
 -11  -5  -1   19.48    1.35
  11   5   2    0.68    0.31
 -11   5  -2    0.79    0.34
  11  -5   2    0.52    0.32
 -11  -5  -2    0.54    0.25
 -11  -5  -2    0.52    0.22
 -11   6   5    1.36    0.39
 -11   6   5    1.33    0.39
 -11  -6   5    2.16    0.36
  11  -6  -5    1.65    0.39
 -11   6   4    5.32    0.73
 -11   6   4    5.64    0.76
 -11  -6   4    7.20    0.73
 -11  -6   4    6.14    0.66
  11  -6  -4    5.66    0.70
 -11   6   3    2.86    0.50
 -11   6   3    1.90    0.46
  11  -6  -3    1.93    0.44
 -11  -6   3    2.00    0.39
 -11   6   2   12.10    1.19
  11  -6  -2   14.62    1.22
 -11  -6   2   14.47    1.12
 -11   6   1    2.19    0.46
  11  -6  -1    2.39    0.52
 -11  -6   1    2.52    0.44
 -11   6   0   29.93    2.15
  11  -6   0   30.02    2.12
 -11  -6   0   29.12    1.88
  12   0  -8   59.40    3.09
 -12   0   8   49.14    3.32
 -12   0   8   50.05    3.32
  12   0  -8   48.55    3.14
 -12   0   7    2.15    0.44
 -12   0   7    1.38    0.52
  12   0  -7    1.38    0.26
  12   0  -6   28.78    1.77
 -12   0   6   31.14    2.02
 -12   0   6   25.71    2.01
  12   0  -6   27.87    1.72
 -12   0   5    1.13    0.41
 -12   0   5    0.94    0.27
 -12   0   4   31.31    2.21
 -12   0   4   29.88    2.01
 -12   0   3    0.01    0.18
 -12   0   3    0.13    0.27
 -12   0   3    0.82    0.27
 -12   0   2   13.99    1.12
 -12   0   2   15.29    1.12
 -12   0   2   15.55    1.19
 -12   0   2   16.18    1.30
 -12   0   1    1.00    0.25
 -12   0   1    0.62    0.28
 -12   0   1    0.81    0.22
 -12   0   1    1.10    0.31
 -12   0   0   -0.13    0.22
 -12   0   0   -0.04    0.17
  12   0   0   -0.12    0.26
  12   0   1    0.26    0.26
 -12   0  -1    0.60    0.25
 -12   0  -1    0.24    0.22
 -12   0  -2   46.02    3.03
 -12   0  -2   43.30    2.75
 -12   0  -3    0.48    0.32
 -12   1   8    0.93    0.34
  12   1  -8    0.59    0.41
  12   1  -8    0.93    0.22
 -12   1   8    0.49    0.30
  12  -1  -8    1.15    0.30
 -12  -1   8    1.03    0.37
 -12  -1   8    0.70    0.30
 -12   1   7   29.11    2.16
 -12   1   7   28.90    2.15
  12  -1  -7   29.61    2.07
 -12  -1   7   31.89    2.19
  12  -1  -7   33.28    1.96
 -12  -1   7   31.19    2.13
 -12   1   6    4.04    0.60
 -12   1   6    4.38    0.62
  12  -1  -6    4.15    0.47
  12  -1  -6    4.48    0.57
 -12  -1   6    4.28    0.57
 -12  -1   6    4.34    0.63
 -12   1   5   32.14    2.21
 -12   1   5   33.02    2.67
  12  -1  -5   33.30    2.06
 -12  -1   5   33.19    2.11
  12  -1  -5   31.65    1.97
 -12  -1   5   30.33    2.67
 -12   1   4    2.84    0.46
 -12   1   4    3.26    0.66
 -12  -1   4    2.54    0.40
 -12  -1   4    2.00    0.47
  12  -1  -4    2.77    0.38
  12  -1  -4    2.70    0.44
 -12   1   3   20.88    1.51
 -12   1   3   26.56    1.63
 -12  -1   3   21.35    1.67
 -12  -1   3   18.51    1.54
  12  -1  -3   22.15    1.34
 -12  -1   3   22.14    1.47
 -12   1   2    5.65    0.71
 -12   1   2    5.26    0.58
 -12   1   2    6.43    0.62
 -12   1   2    5.78    0.65
 -12  -1   2    6.02    0.57
 -12  -1   2    5.43    0.69
 -12  -1   2    5.30    0.68
 -12  -1   2    5.55    0.54
 -12   1   1    9.53    0.94
 -12   1   1   10.24    0.90
 -12   1   1    9.64    0.85
 -12   1   1   10.42    0.86
 -12  -1   1    9.73    0.78
 -12  -1   1   10.14    0.97
 -12  -1   1    9.51    0.80
 -12  -1   1   11.33    0.97
  12  -1  -1   10.10    0.98
 -12   1   0    4.05    0.58
 -12   1   0    4.41    0.80
 -12   1   0    4.23    0.53
 -12  -1   0    4.53    0.62
 -12  -1   0    5.19    0.51
  12  -1   0    3.06    0.66
 -12  -1   0    3.29    0.53
 -12   1  -1   25.87    2.07
 -12   1  -1   22.34    1.59
 -12  -1  -1   20.90    1.57
 -12  -1  -1   20.33    1.46
 -12   1  -2    0.67    0.40
  12   1   2    1.50    0.39
 -12   1  -2    1.46    0.40
 -12  -1  -2    1.84    0.38
 -12  -1  -2    1.79    0.37
 -12   1  -3   25.68    1.78
 -12  -1  -3   23.84    1.69
 -12  -1  -3   22.80    1.78
 -12   2   8   13.24    1.28
 -12   2   8   14.22    1.28
  12  -2  -8   10.04    1.63
 -12  -2   8   16.17    1.28
 -12  -2   8   16.01    1.31
  12  -2  -8   15.17    1.13
 -12   2   7    3.22    0.58
 -12   2   7    2.32    0.50
  12  -2  -7    2.47    0.40
 -12  -2   7    1.30    0.38
 -12  -2   7    2.29    0.44
 -12   2   6   29.45    2.19
 -12   2   6   26.79    2.09
  12  -2  -6   29.76    1.87
  12  -2  -6   27.25    1.95
 -12  -2   6   30.59    1.97
 -12  -2   6   27.96    2.03
 -12   2   5    6.00    0.72
 -12   2   5    5.40    0.76
  12  -2  -5    4.62    0.62
 -12  -2   5    5.78    0.74
  12  -2  -5    6.31    0.60
 -12  -2   5    5.58    0.59
 -12   2   4   38.06    2.56
 -12   2   4   36.96    2.46
 -12  -2   4   38.29    2.27
 -12  -2   4   36.85    2.47
  12  -2  -4   31.42    2.24
  12  -2  -4   40.65    2.37
 -12   2   3    2.87    0.53
 -12   2   3    2.95    0.43
 -12   2   3    3.49    0.49
 -12  -2   3    2.84    0.54
  12  -2  -3    3.76    0.42
 -12  -2   3    2.82    0.37
 -12  -2   3    2.72    0.52
  12  -2  -3    3.95    0.79
 -12   2   2    2.24    0.40
 -12   2   2    1.44    0.41
 -12   2   2    2.16    0.37
 -12   2   2    1.88    0.46
 -12  -2   2    2.46    0.30
  12  -2  -2    1.99    0.35
 -12  -2   2    1.93    0.47
  12  -2  -2    1.77    0.32
 -12  -2   2    1.00    0.40
 -12   2   1    1.41    0.38
 -12   2   1    2.25    0.58
 -12   2   1    2.58    0.36
 -12  -2   1    2.37    0.48
  12  -2  -1    1.22    0.39
 -12  -2   1    2.45    0.46
  12  -2  -1    1.95    0.30
  12  -2  -1    2.32    0.37
 -12  -2   1    2.28    0.30
 -12  -2   1    1.78    0.32
 -12   2   0   24.37    1.75
 -12   2   0   23.37    1.93
  12  -2   0   27.94    1.62
  12  -2   0   26.89    1.59
 -12  -2   0   22.54    1.98
 -12  -2   0   24.17    1.71
 -12  -2   0   23.53    1.57
 -12   2  -1    4.41    0.69
 -12   2  -1    5.52    0.67
 -12  -2  -1    5.05    0.60
  12  -2   1    5.67    0.53
  12  -2   1    4.58    0.49
 -12  -2  -1    4.94    0.53
 -12   2  -2    5.41    0.71
 -12  -2  -2    4.96    0.60
  12  -2   2    5.25    0.50
 -12  -2  -2    4.35    0.57
 -12   2  -3    2.38    0.54
 -12  -2  -3    1.93    0.41
  12  -2   3    2.27    0.38
  12  -2   3    2.06    0.37
 -12  -2  -3    2.84    0.52
 -12   3   7   21.33    1.76
 -12   3   7   21.81    1.76
  12  -3  -7   23.37    1.59
 -12  -3   7   23.53    1.66
 -12   3   6    1.36    0.39
 -12   3   6    1.64    0.40
  12  -3  -6    2.47    0.42
 -12  -3   6    2.52    0.45
 -12  -3   6    1.86    0.38
 -12   3   5   16.40    1.34
 -12   3   5   15.38    1.34
 -12  -3   5   16.64    1.31
  12  -3  -5   14.60    1.25
  12  -3  -5   14.59    1.18
 -12  -3   5   17.17    1.16
 -12   3   4   12.03    1.07
 -12   3   4   12.56    1.11
  12  -3  -4   10.26    0.98
  12  -3  -4   12.25    0.95
 -12  -3   4    9.88    1.01
 -12   3   3   31.13    2.39
 -12   3   3   33.56    2.21
 -12  -3   3   30.71    2.24
 -12  -3   3   32.15    2.20
  12  -3  -3   36.69    2.17
  12  -3  -3   33.02    2.10
 -12  -3   3   29.21    1.91
 -12   3   2    4.48    0.57
 -12   3   2    4.23    0.61
 -12   3   2    4.15    0.42
  12  -3  -2    3.75    0.57
  12  -3  -2    3.45    0.50
 -12  -3   2    4.63    0.73
 -12  -3   2    3.37    0.57
 -12   3   1    7.95    0.94
 -12   3   1   10.11    0.99
 -12  -3   1    9.72    0.91
 -12  -3   1   10.22    1.02
  12  -3  -1   11.02    0.89
  12  -3  -1    9.78    0.85
 -12   3   0    0.38    0.20
 -12  -3   0    0.03    0.15
 -12  -3   0    0.45    0.39
  12  -3   0    0.40    0.24
 -12   3  -1   22.17    1.66
 -12  -3  -1   21.62    1.48
  12  -3   1   21.80    1.50
  12  -3   1   21.51    1.47
 -12  -3  -1   19.83    1.36
 -12   3  -2    5.94    0.76
 -12  -3  -2    3.94    0.58
  12  -3   2    5.43    0.66
  12  -3   2    6.11    0.60
 -12  -3  -2    4.65    0.59
 -12   4   6    9.73    1.04
 -12   4   6   11.19    1.10
  12  -4  -6   10.63    0.93
 -12   4   5    4.91    0.67
 -12   4   5    4.09    0.65
  12  -4  -5    4.24    0.73
  12  -4  -5    4.86    0.60
 -12  -4   5    3.74    0.57
 -12   4   4   16.67    1.39
 -12   4   4   16.25    1.38
 -12  -4   4   18.74    1.41
 -12  -4   4   16.11    1.11
  12  -4  -4   16.68    1.28
 -12   4   3    9.89    0.97
 -12   4   3    8.89    0.91
 -12  -4   3   10.93    0.94
  12  -4  -3    8.63    0.84
 -12   4   2   30.76    2.16
 -12   4   2   29.68    1.77
 -12   4   2   29.40    2.10
 -12  -4   2   31.82    2.10
  12  -4  -2   29.97    2.04
 -12   4   1    0.86    0.33
  12  -4  -1    1.03    0.30
 -12  -4   1    1.58    0.36
  12  -4  -1    1.07    0.32
 -12   4   0    7.99    0.90
  12  -4   0    8.68    0.82
 -12  -4   0    7.44    0.75
 -12   4  -1   13.42    1.19
  12  -4   1   12.02    1.06
 -12  -4  -1   13.18    0.99
 -12   4  -2   15.45    1.33
  12  -4   2   15.94    1.23
 -12  -4  -2   14.36    1.09
 -12  -4  -2   13.76    1.09
  12  -4   2   17.26    1.31
 -12   5   5   24.36    1.85
 -12   5   5   24.23    1.89
 -12  -5   5   25.41    1.78
  12  -5  -5   24.90    1.80
 -12  -5   5   27.22    1.66
 -12   5   4    0.95    0.38
 -12   5   4    0.00    0.27
 -12  -5   4    0.75    0.21
 -12  -5   4    0.75    0.27
  12  -5  -4    0.93    0.30
 -12   5   3   11.19    1.07
 -12   5   3   10.34    1.01
 -12  -5   3    9.96    1.02
  12  -5  -3   10.53    0.98
 -12   5   2    3.66    0.65
  12  -5  -2    2.87    0.51
 -12  -5   2    2.97    0.51
 -12   5   1   28.22    2.10
 -12  -5   1   28.85    1.98
  12  -5  -1   31.32    2.10
 -12   5   0    2.08    0.51
 -12  -5   0    2.33    0.40
  12  -5   0    2.34    0.47
  13   0  -7    0.55    0.20
 -13   0   7    1.00    0.33
  13   0  -7    0.45    0.24
 -13   0   7    0.48    0.31
 -13   0   6   23.22    1.70
 -13   0   5    0.45    0.26
 -13   0   5    0.00    0.17
 -13   0   4    2.73    0.61
 -13   0   4    4.24    0.53
 -13   0   4    3.58    0.62
 -13   0   3    0.66    0.28
 -13   0   3    0.13    0.16
 -13   0   3   -0.20    0.22
 -13   0   2   28.68    1.96
 -13   0   2   30.53    2.04
 -13   0   2   30.94    2.32
 -13   0   2   31.25    1.96
 -13   0   1   -0.10    0.24
 -13   0   1    0.13    0.37
 -13   0   1    0.57    0.23
 -13   0   0   10.19    0.88
 -13   0   0    9.88    1.03
 -13   0  -1   -0.01    0.22
 -13   0  -1    0.16    0.26
 -13   0  -2   63.33    3.85
 -13   1   7   16.24    1.43
 -13   1   7   17.13    1.42
 -13  -1   7   17.18    1.72
 -13  -1   7   17.76    1.44
  13  -1  -7   17.71    1.29
  13  -1  -7   16.71    1.19
 -13   1   6    2.51    0.70
 -13   1   6    4.32    0.69
  13  -1  -6    3.70    0.62
 -13  -1   6    3.95    0.55
  13  -1  -6    5.10    0.47
 -13  -1   6    4.72    0.63
 -13   1   5   17.30    1.57
 -13   1   5   19.12    1.49
 -13  -1   5   22.47    1.46
 -13  -1   5   22.53    1.63
  13  -1  -5   19.62    1.30
  13  -1  -5   16.69    1.23
 -13   1   4    6.09    0.68
 -13   1   4    4.79    0.70
 -13   1   4    6.53    0.65
 -13  -1   4    5.97    0.71
 -13  -1   4    6.56    0.82
  13  -1  -4    5.74    0.48
 -13  -1   4    6.04    0.62
 -13   1   3    7.45    0.72
 -13   1   3    7.23    0.70
 -13  -1   3    5.44    0.58
 -13  -1   3    5.54    0.72
 -13  -1   3    5.50    0.88
 -13   1   2    1.45    0.39
 -13   1   2    1.84    0.38
 -13   1   2    2.02    0.40
 -13   1   2    2.21    0.45
 -13  -1   2    1.43    0.40
 -13  -1   2    1.71    0.31
 -13  -1   2    1.36    0.41
 -13   1   1   29.98    1.80
 -13   1   1   27.91    1.92
 -13   1   1   25.09    2.03
 -13  -1   1   24.61    1.71
 -13  -1   1   27.90    1.92
 -13  -1   1   25.15    1.87
 -13   1   0    3.38    0.56
 -13   1   0    2.58    0.56
 -13  -1   0    4.18    0.49
 -13  -1   0    3.39    0.50
 -13  -1   0    4.11    0.66
 -13   1  -1   35.81    2.36
 -13   1  -1   36.14    2.51
 -13  -1  -1   32.41    2.17
 -13   1  -2    1.65    0.38
 -13  -1  -2    1.36    0.39
 -13  -1  -2    1.49    0.38
 -13   2   7    1.18    0.36
 -13   2   7    1.10    0.41
 -13  -2   7    1.48    0.40
  13  -2  -7    1.64    0.33
 -13  -2   7    1.40    0.36
 -13   2   6   15.15    1.38
 -13   2   6   15.67    1.33
  13  -2  -6   16.55    1.16
 -13  -2   6   15.03    1.34
 -13  -2   6   15.83    1.23
  13  -2  -6   16.09    1.25
 -13   2   5    4.55    0.65
 -13   2   5    4.60    0.84
  13  -2  -5    4.51    0.60
 -13  -2   5    4.49    0.53
 -13  -2   5    4.78    0.65
  13  -2  -5    3.40    0.46
 -13   2   4   15.48    1.28
 -13   2   4   15.78    1.37
 -13  -2   4   15.14    1.11
  13  -2  -4   18.71    1.19
  13  -2  -4   13.60    1.09
 -13  -2   4   15.60    1.32
 -13   2   3    1.47    0.35
 -13   2   3    1.85    0.35
 -13   2   3    1.95    0.47
 -13  -2   3    1.64    0.31
 -13  -2   3    0.85    0.37
  13  -2  -3    1.57    0.32
  13  -2  -3    1.50    0.30
 -13  -2   3    1.47    0.55
 -13   2   2    7.23    0.73
 -13   2   2    7.08    0.81
 -13   2   2    7.23    0.66
 -13   2   2    6.80    0.77
 -13  -2   2    6.98    0.58
 -13  -2   2    8.84    0.86
  13  -2  -2    6.15    0.60
  13  -2  -2    5.97    0.56
 -13  -2   2    7.50    0.88
 -13   2   1    9.73    0.88
 -13   2   1    9.31    0.76
 -13   2   1    8.02    0.91
 -13  -2   1   10.55    0.91
  13  -2  -1    8.04    0.66
 -13  -2   1    9.32    0.92
  13  -2  -1    7.77    0.68
 -13  -2   1    8.07    0.69
 -13   2   0   45.36    2.93
  13  -2   0   46.57    2.62
 -13  -2   0   41.85    2.65
 -13  -2   0   41.80    2.80
  13  -2   0   49.02    2.65
 -13  -2   0   44.76    2.93
 -13   2  -1    1.12    0.35
  13  -2   1    0.35    0.21
 -13  -2  -1    0.52    0.25
  13  -2   1    0.65    0.20
 -13  -2  -1    0.94    0.28
 -13   2  -2   14.48    1.22
 -13  -2  -2   12.70    1.19
  13  -2   2   13.57    0.93
 -13  -2  -2   11.59    1.15
 -13   3   6    0.38    0.25
 -13   3   6    0.56    0.34
 -13  -3   6    0.52    0.28
 -13  -3   6    0.30    0.27
  13  -3  -6    0.38    0.24
 -13   3   5    7.86    0.92
 -13   3   5    6.54    0.91
 -13  -3   5    9.62    0.92
  13  -3  -5    9.31    0.90
  13  -3  -5    9.38    0.80
 -13  -3   5    9.98    0.78
 -13   3   4    1.58    0.43
 -13   3   4    2.90    0.52
 -13  -3   4    2.86    0.35
  13  -3  -4    2.49    0.47
 -13  -3   4    2.64    0.52
  13  -3  -4    2.41    0.43
 -13   3   3   17.65    1.20
 -13   3   3   19.54    1.47
 -13   3   3   16.90    1.40
 -13  -3   3   15.84    1.12
  13  -3  -3   16.61    1.27
 -13  -3   3   19.16    1.67
  13  -3  -3   16.86    1.25
 -13   3   2    6.37    0.76
 -13   3   2    5.06    0.93
 -13  -3   2    6.27    0.73
  13  -3  -2    5.67    0.63
  13  -3  -2    6.63    0.62
 -13   3   1   17.64    1.44
  13  -3  -1   17.51    1.24
  13  -3  -1   19.41    1.32
 -13  -3   1   15.35    1.32
 -13   3   0    1.53    0.39
  13  -3   0    1.50    0.37
 -13  -3   0    1.41    0.34
  13  -3   0    1.34    0.31
 -13   3  -1   18.64    1.48
 -13  -3  -1   16.80    1.30
  13  -3   1   19.05    1.29
  13  -3   1   20.47    1.32
 -13  -3  -1   16.02    1.19
 -13   4   6   10.22    1.05
 -13   4   5    0.75    0.36
 -13   4   5    1.14    0.38
  13  -4  -5    0.40    0.25
  13  -4  -5    0.27    0.40
 -13  -4   5    0.60    0.28
 -13  -4   5    0.71    0.24
 -13   4   4   16.17    1.30
 -13   4   4   15.01    1.28
 -13  -4   4   13.54    1.04
  13  -4  -4   17.14    1.56
 -13  -4   4   15.40    1.24
  13  -4  -4   13.02    1.21
 -13   4   3    4.55    0.61
 -13   4   3    4.26    0.49
 -13   4   3    5.20    0.71
 -13  -4   3    4.66    0.64
  13  -4  -3    4.38    0.60
 -13   4   2   26.71    1.94
  13  -4  -2   26.03    1.83
 -13  -4   2   26.46    1.93
 -13   4   1    7.68    0.89
  13  -4  -1    7.51    0.78
 -13  -4   1    7.22    0.78
 -13   4   0    1.75    0.42
 -13  -4   0    2.11    0.40
  13  -4   0    2.78    0.49
 -13   5   4    1.57    0.46
 -13   5   3    6.42    0.80
 -13   5   3    8.28    0.89
  13  -5  -3    7.17    0.78
 -13  -5   3    7.72    0.80
 -13   5   2    0.46    0.30
 -13  -5   2    0.29    0.32
  13  -5  -2    0.47    0.29
 -14   0   7    0.33    0.27
 -14   0   6   10.73    1.06
 -14   0   6    7.25    0.97
 -14   0   5    0.53    0.30
 -14   0   5    0.20    0.18
 -14   0   4   14.12    1.18
 -14   0   4   15.01    1.34
 -14   0   4   16.43    1.26
 -14   0   3    0.23    0.19
 -14   0   3    0.20    0.22
 -14   0   2   55.26    3.30
 -14   0   2   55.88    3.39
 -14   0   2   54.11    3.46
 -14   0   1    1.53    0.52
 -14   0   1    1.18    0.35
 -14   0   1    1.87    0.43
 -14   0   0   13.66    1.13
 -14   0   0   14.91    1.22
 -14   0  -1    0.93    0.33
 -14   1   6    1.03    0.39
 -14   1   6    1.56    0.39
  14  -1  -6    1.38    0.25
  14  -1  -6    1.12    0.30
 -14  -1   6    1.17    0.34
 -14  -1   6    0.67    0.38
 -14   1   5    5.90    0.78
 -14   1   5    6.95    0.90
 -14   1   4    7.15    0.73
 -14   1   4    6.58    0.83
 -14   1   4    6.75    0.74
 -14  -1   4    6.71    0.68
 -14  -1   4    6.62    0.81
 -14   1   3   21.88    1.49
 -14   1   3   23.39    1.63
 -14   1   3   19.75    1.47
 -14  -1   3   18.49    1.54
 -14  -1   3   19.40    1.53
 -14  -1   3   17.95    1.35
 -14   1   2    2.84    0.50
 -14   1   2    1.76    0.41
 -14   1   2    2.25    0.43
 -14  -1   2    2.08    0.36
 -14  -1   2    1.45    0.40
 -14  -1   2    2.03    0.51
 -14   1   1   45.89    2.67
 -14   1   1   43.53    2.81
 -14   1   1   41.42    2.71
 -14  -1   1   41.75    2.62
 -14  -1   1   41.48    2.76
 -14  -1   1   43.71    2.80
 -14   1   0    0.39    0.26
 -14  -1   0    0.48    0.26
 -14  -1   0    0.17    0.24
 -14   1  -1   16.57    1.36
 -14  -1  -1   16.41    1.26
 -14  -1  -1   17.12    1.33
 -14   2   6   10.23    1.03
 -14   2   6    9.53    0.96
  14  -2  -6    8.05    0.83
  14  -2  -6    9.04    0.76
 -14  -2   6    8.22    0.83
 -14  -2   6    9.46    1.00
 -14   2   5    1.96    0.46
 -14   2   5    2.11    0.45
 -14  -2   5    1.13    0.28
  14  -2  -5    1.08    0.26
  14  -2  -5    1.05    0.34
 -14  -2   5    0.94    0.35
 -14   2   4   21.79    1.64
 -14   2   4   24.78    1.80
 -14   2   4   25.72    1.86
  14  -2  -4   23.10    1.54
  14  -2  -4   26.97    1.64
 -14  -2   4   23.08    1.58
 -14  -2   4   24.50    1.85
 -14   2   3    4.15    0.64
 -14   2   3    4.05    0.57
 -14   2   3    3.65    0.55
 -14  -2   3    2.78    0.61
  14  -2  -3    3.50    0.38
  14  -2  -3    3.09    0.43
 -14  -2   3    3.16    0.42
 -14   2   2    6.89    0.85
 -14   2   2    8.14    0.79
 -14   2   2    7.72    0.74
 -14  -2   2    8.30    0.85
 -14  -2   2    8.25    0.66
 -14   2   1    0.44    0.29
 -14   2   1    0.73    0.30
 -14  -2   1    0.84    0.25
 -14  -2   1    0.52    0.23
 -14   2   0   51.81    3.12
 -14  -2   0   47.45    2.97
 -14  -2   0   44.29    2.79
 -14   3   5    2.70    0.55
 -14   3   5    3.00    0.57
  14  -3  -5    2.95    0.51
 -14  -3   5    3.45    0.44
 -14  -3   5    2.42    0.52
  14  -3  -5    4.26    0.62
 -14   3   4    0.72    0.29
 -14   3   4    0.56    0.28
 -14   3   4    0.63    0.29
 -14  -3   4    0.76    0.25
  14  -3  -4    0.38    0.26
  14  -3  -4    0.06    0.26
 -14  -3   4    1.02    0.36
 -14   3   3   27.96    1.75
 -14   3   3   27.76    2.01
 -14   3   3   29.20    1.96
  14  -3  -3   26.34    1.78
 -14  -3   3   23.49    1.77
  14  -3  -3   30.92    1.86
 -14  -3   3   24.87    1.95
 -14   3   2    4.12    0.61
 -14   3   2    6.00    0.76
  14  -3  -2    5.74    0.57
  14  -3  -2    5.86    0.64
 -14  -3   2    4.99    0.48
 -14  -3   2    7.25    0.73
 -14   3   1   18.95    1.56
 -14  -3   1   19.40    1.48
  14  -3  -1   19.71    1.35
  14  -3  -1   23.50    1.41
 -14  -3   1   17.72    1.26
 -14   4   3    5.16    0.75
 -14   4   3    5.11    0.69
 -14   4   3    6.37    0.58
 -14  -4   3    6.20    0.76
  14  -4  -3    6.91    0.83
 -15   0   5    0.59    0.37
 -15   0   5    1.32    0.35
 -15   0   4   13.40    1.24
 -15   0   4   13.33    1.09
 -15   0   3    2.13    0.46
 -15   0   3    0.74    0.28
 -15   0   3    0.99    0.33
 -15   0   2   53.08    3.29
 -15   0   2   51.15    3.35
 -15   0   2   53.87    3.20
 -15   0   1    0.45    0.31
 -15   0   1    0.99    0.34
 -15   0   1    0.76    0.42
 -15   1   5   18.17    1.51
 -15   1   5   20.31    1.67
 -15  -1   5   21.92    1.50
 -15  -1   5   20.90    1.70
 -15   1   4    4.11    0.68
 -15   1   4    2.76    0.68
 -15  -1   4    2.26    0.56
 -15  -1   4    2.85    0.46
 -15   1   3   32.27    2.13
 -15   1   3   35.94    2.31
 -15   1   3   30.98    2.27
 -15  -1   3   32.50    2.06
 -15  -1   3   30.08    2.25
 -15   1   2    1.92    0.45
 -15   1   2    1.26    0.34
 -15   1   2    2.33    0.44
 -15  -1   2    1.21    0.36
 -15  -1   2    1.91    0.35
 -15   1   1   17.74    1.24
 -15   1   1   16.46    1.35
 -15  -1   1   15.52    1.30
 -15  -1   1   13.04    1.47
 -15   2   4   21.42    1.56
 -15   2   4   22.69    1.66
 -15   2   4   21.64    1.74
 -15  -2   4   22.62    1.52
 -15  -2   4   24.03    1.79
 -15   2   3    3.48    0.54
 -15   2   3    3.28    0.62
 -15   2   3    3.97    0.58
 -15  -2   3    3.20    0.45
 -15  -2   3    3.48    0.63
 -15   2   2   13.08    0.96
 -15   2   2   13.15    1.14
 -15  -2   2   10.56    0.84
 -15  -2   2    9.14    1.00
   0   0   0    0.00    0.00
;
_shelx_hkl_checksum              26588
loop_
_space_group_symop_operation_xyz
'x, y, z'
'-x, y+1/2, -z+1/2'
'-x, -y, -z'
'x, -y-1/2, z-1/2'
loop_
_atom_site_label
_atom_site_type_symbol
_atom_site_fract_x
_atom_site_fract_y
_atom_site_fract_z
_atom_site_U_iso_or_equiv
_atom_site_adp_type
_atom_site_occupancy
_atom_site_site_symmetry_order
_atom_site_calc_flag
_atom_site_refinement_flags_posn
_atom_site_refinement_flags_adp
_atom_site_refinement_flags_occupancy
Cd1 Cd 0.5000 0.0000 0.5000 0.02257(18) Uani 1 2 d S . P
Cl1 Cl 0.28024(12) 0.06418(18) 0.42051(19) 0.0247(3) Uani 1 1 d . . .
Cl2 Cl 0.53405(12) 0.21373(18) 0.8011(2) 0.0251(3) Uani 1 1 d . . .
N1 N 0.2984(5) 0.4949(6) 0.3501(8) 0.0256(12) Uani 1 1 d . . .
H1A H 0.3537 0.5445 0.4496 0.038 Uiso 1 1 calc R U .
H1B H 0.3216 0.5090 0.2486 0.038 Uiso 1 1 calc R U .
H1C H 0.2902 0.3732 0.3702 0.038 Uiso 1 1 calc R U .
C1 C 0.1868(6) 0.5870(9) 0.3210(11) 0.0387(16) Uani 1 1 d . . .
H1 H 0.1830 0.7181 0.2808 0.046 Uiso 1 1 calc R U .
C2 C 0.0761(6) 0.4806(9) 0.2499(8) 0.0297(15) Uani 1 1 d . . .
H2A H 0.0059 0.5439 0.1670 0.036 Uiso 1 1 calc R U .
H2B H 0.0822 0.3485 0.2240 0.036 Uiso 1 1 calc R U .
C3 C 0.1212(9) 0.5417(19) 0.4427(12) 0.076(4) Uani 1 1 d . . .
H3A H 0.0784 0.6423 0.4812 0.092 Uiso 1 1 calc R U .
H3B H 0.1546 0.4473 0.5381 0.092 Uiso 1 1 calc R U .
loop_
_atom_site_aniso_label
_atom_site_aniso_U_11
_atom_site_aniso_U_22
_atom_site_aniso_U_33
_atom_site_aniso_U_23
_atom_site_aniso_U_13
_atom_site_aniso_U_12
Cd1 0.0241(3) 0.0200(3) 0.0244(4) 0.00032(18) 0.0087(4) 0.00033(17)
Cl1 0.0240(5) 0.0232(6) 0.0260(7) 0.0002(5) 0.0066(5) 0.0004(5)
Cl2 0.0282(6) 0.0221(5) 0.0252(6) -0.0029(5) 0.0087(5) -0.0006(5)
N1 0.030(3) 0.033(3) 0.020(3) -0.0035(17) 0.016(2) -0.0029(18)
C1 0.037(3) 0.026(3) 0.041(4) 0.001(3) -0.005(3) 0.007(2)
C2 0.033(3) 0.045(4) 0.016(3) 0.004(2) 0.015(2) 0.006(2)
C3 0.052(5) 0.161(12) 0.020(4) 0.000(5) 0.019(4) 0.047(7)
loop_
_atom_type_symbol
_atom_type_description
_atom_type_scat_dispersion_real
_atom_type_scat_dispersion_imag
_atom_type_scat_source
C C 0.0033 0.0016 'International Tables Vol C Tables 4.2.6.8 and 6.1.1.4'
H H 0.0000 0.0000 'International Tables Vol C Tables 4.2.6.8 and 6.1.1.4'
N N 0.0061 0.0033 'International Tables Vol C Tables 4.2.6.8 and 6.1.1.4'
Cl Cl 0.1484 0.1585 'International Tables Vol C Tables 4.2.6.8 and 6.1.1.4'
Cd Cd -0.8075 1.2024 'International Tables Vol C Tables 4.2.6.8 and 6.1.1.4'
loop_
_geom_angle_atom_site_label_1
_geom_angle_atom_site_label_2
_geom_angle_atom_site_label_3
_geom_angle
_geom_angle_site_symmetry_1
_geom_angle_site_symmetry_3
Cl1 Cd1 Cl1 180.000(19) 3_656 .
Cl1 Cd1 Cl2 86.98(4) 3_656 4_565
Cl1 Cd1 Cl2 93.02(4) . 4_565
Cl1 Cd1 Cl2 93.02(4) 3_656 2_646
Cl1 Cd1 Cl2 86.98(4) . 2_646
Cl2 Cd1 Cl2 180.0 4_565 2_646
Cl1 Cd1 Cl2 92.16(4) 3_656 .
Cl1 Cd1 Cl2 87.84(4) . .
Cl2 Cd1 Cl2 91.627(13) 4_565 .
Cl2 Cd1 Cl2 88.373(13) 2_646 .
Cl1 Cd1 Cl2 87.84(4) 3_656 3_656
Cl1 Cd1 Cl2 92.16(4) . 3_656
Cl2 Cd1 Cl2 88.373(13) 4_565 3_656
Cl2 Cd1 Cl2 91.627(13) 2_646 3_656
Cl2 Cd1 Cl2 180.0 . 3_656
Cd1 Cl2 Cd1 157.07(6) 2_656 .
C1 N1 H1A 109.5 . .
C1 N1 H1B 109.5 . .
H1A N1 H1B 109.5 . .
C1 N1 H1C 109.5 . .
H1A N1 H1C 109.5 . .
H1B N1 H1C 109.5 . .
C3 C1 N1 117.5(7) . .
C3 C1 C2 60.6(6) . .
N1 C1 C2 119.2(5) . .
C3 C1 H1 116.1 . .
N1 C1 H1 116.1 . .
C2 C1 H1 116.1 . .
C3 C2 C1 58.2(6) . .
C3 C2 H2A 118.0 . .
C1 C2 H2A 118.0 . .
C3 C2 H2B 118.0 . .
C1 C2 H2B 118.0 . .
H2A C2 H2B 115.1 . .
C1 C3 C2 61.2(5) . .
C1 C3 H3A 117.6 . .
C2 C3 H3A 117.6 . .
C1 C3 H3B 117.6 . .
C2 C3 H3B 117.6 . .
H3A C3 H3B 114.8 . .
loop_
_geom_bond_atom_site_label_1
_geom_bond_atom_site_label_2
_geom_bond_distance
_geom_bond_site_symmetry_2
Cd1 Cl1 2.5428(14) 3_656
Cd1 Cl1 2.5429(14) .
Cd1 Cl2 2.6878(14) 4_565
Cd1 Cl2 2.6878(14) 2_646
Cd1 Cl2 2.7036(14) .
Cd1 Cl2 2.7036(14) 3_656
Cl2 Cd1 2.6878(14) 2_656
N1 C1 1.446(8) .
N1 H1A 0.9100 .
N1 H1B 0.9100 .
N1 H1C 0.9100 .
C1 C3 1.433(13) .
C1 C2 1.478(10) .
C1 H1 1.0000 .
C2 C3 1.470(11) .
C2 H2A 0.9900 .
C2 H2B 0.9900 .
C3 H3A 0.9900 .
C3 H3B 0.9900 .
loop_
_geom_hbond_atom_site_label_D
_geom_hbond_atom_site_label_H
_geom_hbond_atom_site_label_A
_geom_hbond_distance_DH
_geom_hbond_distance_HA
_geom_hbond_distance_DA
_geom_hbond_angle_DHA
_geom_hbond_site_symmetry_A
N1 H1A Cl2 0.91 2.31 3.207(6) 168.7 2_656
N1 H1B Cl1 0.91 2.46 3.256(5) 146.2 4_565
N1 H1B Cl2 0.91 2.76 3.365(5) 125.1 3_666
N1 H1C Cl1 0.91 2.29 3.201(5) 176.7 .
C1 H1 Cl1 1.00 2.84 3.655(6) 139.4 1_565
C3 H3B Cl1 0.99 2.84 3.630(9) 137.7 4_566
N1 H1A Cl2 0.91 2.31 3.207(6) 168.7 2_656
N1 H1B Cl1 0.91 2.46 3.256(5) 146.2 4_565
N1 H1B Cl2 0.91 2.76 3.365(5) 125.1 3_666
N1 H1C Cl1 0.91 2.29 3.201(5) 176.7 .
C1 H1 Cl1 1.00 2.84 3.655(6) 139.4 1_565
C3 H3B Cl1 0.99 2.84 3.630(9) 137.7 4_566
