#------------------------------------------------------------------------------
#$Date: 2019-11-24 10:28:28 +0200 (Sun, 24 Nov 2019) $
#$Revision: 237634 $
#$URL: file:///home/coder/svn-repositories/cod/cif/7/23/73/7237372.cif $
#------------------------------------------------------------------------------
#
# This file is available in the Crystallography Open Database (COD),
# http://www.crystallography.net/
#
# All data on this site have been placed in the public domain by the
# contributors.
#
data_7237372
loop_
_publ_author_name
'Lu, Bo'
'Zhang, Yujian'
'Yang, Xiaogang'
'Wang, Kai'
'Zou, Bo'
'Yan, Dongpeng'
_publ_section_title
;
 Piezochromic luminescence of AIE-active molecular co-crystals: tunable
 multiple hydrogen bonding and molecular packing
;
_journal_issue                   36
_journal_name_full               'Journal of Materials Chemistry C'
_journal_page_first              9660
_journal_paper_doi               10.1039/C8TC02444H
_journal_volume                  6
_journal_year                    2018
_chemical_formula_sum            'C38 H20 F8 N2 O6'
_chemical_formula_weight         752.56
_chemical_melting_point          530.15
_chemical_properties_physical    Light-sensitive
_space_group_crystal_system      triclinic
_space_group_IT_number           2
_space_group_name_Hall           '-P 1'
_space_group_name_H-M_alt        'P -1'
_atom_sites_solution_hydrogens   geom
_audit_creation_method           SHELXL-2014/7
_audit_update_record
;
2018-05-09 deposited with the CCDC.
2018-08-13 downloaded from the CCDC.
;
_cell_angle_alpha                63.940(3)
_cell_angle_beta                 77.306(3)
_cell_angle_gamma                80.095(3)
_cell_formula_units_Z            1
_cell_length_a                   9.3317(16)
_cell_length_b                   9.3436(16)
_cell_length_c                   10.5310(18)
_cell_measurement_reflns_used    1133
_cell_measurement_temperature    296(2)
_cell_measurement_theta_max      24.47
_cell_measurement_theta_min      2.45
_cell_volume                     801.7(2)
_computing_cell_refinement       'Bruker SMART'
_computing_data_collection       'Bruker SMART'
_computing_data_reduction        'Bruker SAINT'
_computing_molecular_graphics    'Bruker SHELXTL'
_computing_publication_material  'Bruker SHELXTL'
_computing_structure_refinement  'SHELXL-2014/7 (Sheldrick, 2014)'
_computing_structure_solution    'Bruker SHELXTL'
_diffrn_ambient_temperature      296(2)
_diffrn_measured_fraction_theta_full 0.986
_diffrn_measured_fraction_theta_max 0.986
_diffrn_measurement_device_type  'CCD area detector'
_diffrn_measurement_method       'phi and omega scans'
_diffrn_radiation_type           MoK\a
_diffrn_radiation_wavelength     0.71073
_diffrn_reflns_av_R_equivalents  0.0182
_diffrn_reflns_av_unetI/netI     0.0368
_diffrn_reflns_Laue_measured_fraction_full 0.986
_diffrn_reflns_Laue_measured_fraction_max 0.986
_diffrn_reflns_limit_h_max       11
_diffrn_reflns_limit_h_min       -10
_diffrn_reflns_limit_k_max       10
_diffrn_reflns_limit_k_min       -11
_diffrn_reflns_limit_l_max       12
_diffrn_reflns_limit_l_min       -12
_diffrn_reflns_number            4307
_diffrn_reflns_point_group_measured_fraction_full 0.986
_diffrn_reflns_point_group_measured_fraction_max 0.986
_diffrn_reflns_theta_full        25.242
_diffrn_reflns_theta_max         25.498
_diffrn_reflns_theta_min         2.182
_exptl_absorpt_coefficient_mu    0.137
_exptl_absorpt_correction_T_max  0.75
_exptl_absorpt_correction_T_min  0.55
_exptl_absorpt_correction_type   multi-scan
_exptl_absorpt_process_details   SADABS
_exptl_crystal_colour            green
_exptl_crystal_density_diffrn    1.559
_exptl_crystal_description       block
_exptl_crystal_F_000             382
_exptl_crystal_preparation       Luminescent
_exptl_crystal_recrystallization_method
'Re-crystallisation from solvent: CHCl3 and CH3OH'
_exptl_crystal_size_max          0.250
_exptl_crystal_size_mid          0.250
_exptl_crystal_size_min          0.200
_refine_diff_density_max         0.197
_refine_diff_density_min         -0.207
_refine_diff_density_rms         0.046
_refine_ls_extinction_method     none
_refine_ls_goodness_of_fit_ref   1.032
_refine_ls_hydrogen_treatment    constr
_refine_ls_matrix_type           full
_refine_ls_number_parameters     246
_refine_ls_number_reflns         2952
_refine_ls_number_restraints     0
_refine_ls_restrained_S_all      1.032
_refine_ls_R_factor_all          0.0770
_refine_ls_R_factor_gt           0.0456
_refine_ls_shift/su_max          0.000
_refine_ls_shift/su_mean         0.000
_refine_ls_structure_factor_coef Fsqd
_refine_ls_weighting_details
'w=1/[\s^2^(Fo^2^)+(0.0654P)^2^+0.1632P] where P=(Fo^2^+2Fc^2^)/3'
_refine_ls_weighting_scheme      calc
_refine_ls_wR_factor_gt          0.1137
_refine_ls_wR_factor_ref         0.1379
_reflns_Friedel_coverage         0.000
_reflns_number_gt                1918
_reflns_number_total             2952
_reflns_threshold_expression     'I > 2\s(I)'
_cod_data_source_file            c8tc02444h2.cif
_cod_data_source_block           1
_cod_database_code               7237372
_shelx_shelxl_version_number     2014/7
_shelx_space_group_comment
; 
The symmetry employed for this shelxl refinement is uniquely defined 
by the following loop, which should always be used as a source of 
symmetry information in preference to the above space-group names. 
They are only intended as comments. 
;
_shelx_estimated_absorpt_t_min   0.967
_shelx_estimated_absorpt_t_max   0.973
_shelx_res_file
; 
  
    1.res created by SHELXL-2014/7 
  
TITL 1 in P-1 
CELL 0.71073   9.3317   9.3436  10.5310  63.940  77.306  80.095 
ZERR   1.00   0.0016   0.0016   0.0018   0.003   0.003   0.003 
LATT 1 
SFAC C  H  N  O  F 
UNIT 38  20  2  6  8 
OMIT -3 51 
L.S. 8 
ACTA 
BOND $H 
FMAP 2 
PLAN 5 
SIZE 0.2 0.25 0.25 
TEMP 23.000 
WGHT    0.065400    0.163200 
FVAR       0.15608 
MOLE 1 
C1    1    0.202966    0.918600    0.484387    11.00000    0.03946    0.06320 = 
         0.04738   -0.02115   -0.00054   -0.01402 
C2    1    0.361811    0.860270    0.465170    11.00000    0.03243    0.05443 = 
         0.04469   -0.02123    0.00072   -0.01184 
C3    1    0.417639    0.705393    0.541365    11.00000    0.04056    0.05410 = 
         0.04325   -0.01718    0.00428   -0.02160 
C4    1    0.565718    0.656137    0.524428    11.00000    0.04567    0.04437 = 
         0.05012   -0.01522   -0.00370   -0.01047 
C5    1    0.667533    0.760594    0.426936    11.00000    0.03392    0.05208 = 
         0.04732   -0.01999   -0.00022   -0.00854 
C6    1    0.612997    0.914668    0.350495    11.00000    0.03526    0.05201 = 
         0.04125   -0.01358    0.00723   -0.01701 
C7    1    0.465903    0.964114    0.368911    11.00000    0.04021    0.04715 = 
         0.04311   -0.01335   -0.00340   -0.00770 
C8    1   -0.285814    0.509809    0.909729    11.00000    0.03408    0.05778 = 
         0.07546   -0.02049   -0.01179    0.00856 
AFIX  43 
H8    2   -0.379832    0.562106    0.901392    11.00000   -1.20000 
AFIX   0 
C9    1   -0.257112    0.391227    1.039407    11.00000    0.03871    0.05871 = 
         0.06392   -0.01788    0.00521    0.00280 
AFIX  43 
H9    2   -0.331283    0.365605    1.119018    11.00000   -1.20000 
AFIX   0 
C10   1   -0.118601    0.309839    1.052143    11.00000    0.03820    0.04966 = 
         0.05387   -0.01145   -0.00222    0.00177 
AFIX  43 
H10   2   -0.099755    0.230276    1.140229    11.00000   -1.20000 
AFIX   0 
C11   1   -0.007429    0.347123    0.932994    11.00000    0.03372    0.03961 = 
         0.05109   -0.01438   -0.00585   -0.00280 
C12   1   -0.038039    0.469944    0.805003    11.00000    0.04290    0.05148 = 
         0.05273   -0.01150   -0.00028   -0.00483 
AFIX  43 
H12   2    0.036015    0.498625    0.725311    11.00000   -1.20000 
AFIX   0 
C13   1   -0.176412    0.550782    0.793276    11.00000    0.05048    0.05390 = 
         0.05794   -0.00865   -0.01573    0.00345 
AFIX  43 
H13   2   -0.195070    0.632928    0.706293    11.00000   -1.20000 
AFIX   0 
C14   1    0.142093    0.267546    0.935829    11.00000    0.03276    0.04997 = 
         0.05011   -0.01632   -0.00074   -0.00697 
AFIX  43 
H14   2    0.213651    0.327910    0.864533    11.00000   -1.20000 
AFIX   0 
C15   1    0.193221    0.122003    1.024124    11.00000    0.02922    0.04603 = 
         0.04555   -0.01740   -0.00251   -0.00464 
C16   1    0.094649    0.011874    1.134814    11.00000    0.02713    0.04293 = 
         0.05650   -0.01516   -0.00488    0.00060 
C17   1    0.350829    0.059920    1.012257    11.00000    0.02726    0.04423 = 
         0.04222   -0.01663   -0.00337   -0.00314 
C18   1    0.391914   -0.102945    1.073327    11.00000    0.02869    0.04582 = 
         0.05743   -0.01566    0.00067   -0.00855 
AFIX  43 
H18   2    0.319466   -0.173689    1.124437    11.00000   -1.20000 
AFIX   0 
C19   1    0.462666    0.162383    0.939896    11.00000    0.03211    0.03998 = 
         0.05994   -0.01353   -0.00188   -0.00386 
AFIX  43 
H19   2    0.438800    0.272347    0.900007    11.00000   -1.20000 
AFIX   0 
F1    5    0.329164    0.594139    0.639079    11.00000    0.04922    0.06191 = 
         0.06603   -0.01090    0.00947   -0.02323 
F2    5    0.611310    0.504272    0.603901    11.00000    0.05555    0.04841 = 
         0.07457   -0.01018   -0.00655   -0.00887 
F3    5    0.707954    1.021045    0.255668    11.00000    0.03819    0.06009 = 
         0.06684   -0.00563    0.00978   -0.01462 
F4    5    0.426961    1.117409    0.288793    11.00000    0.04406    0.05522 = 
         0.06427   -0.00678    0.00006   -0.00493 
N1    3    0.021069   -0.081288    1.223027    11.00000    0.03481    0.05324 = 
         0.07527   -0.00968    0.00186   -0.00391 
O1    4    0.113587    0.808464    0.552096    11.00000    0.03520    0.06949 = 
         0.10022   -0.01165    0.00554   -0.01681 
AFIX 147 
H1    2    0.030123    0.849105    0.567017    11.00000   -1.50000 
AFIX   0 
O2    4    0.163373    1.060127    0.437601    11.00000    0.03864    0.06205 = 
         0.11517   -0.02873    0.00293   -0.00891 
O3    4    0.810509    0.706538    0.412796    11.00000    0.03759    0.05366 = 
         0.07000   -0.01608    0.00509   -0.00683 
AFIX 147 
H3    2    0.859161    0.779694    0.353085    11.00000   -1.50000 
AFIX   0 
HKLF 4 
  
REM  1 in P-1 
REM R1 =  0.0456 for    1918 Fo > 4sig(Fo)  and  0.0770 for all    2952 data 
REM    246 parameters refined using      0 restraints 
  
END 
  
WGHT      0.0661      0.1610 
  
REM Highest difference peak  0.197,  deepest hole -0.207,  1-sigma level  0.046 
Q1    1   0.1616  1.0095  0.3805  11.00000  0.05    0.20 
Q2    1   0.5694  0.4059  0.5658  11.00000  0.05    0.16 
Q3    1   0.3989  1.0496  0.2038  11.00000  0.05    0.16 
Q4    1   0.1710  0.1965  1.0380  11.00000  0.05    0.15 
Q5    1   0.1473  0.9432  0.3214  11.00000  0.05    0.15 
;
_shelx_res_checksum              50410
_shelx_hkl_file
; 
  -1   0   0   14.32    0.24 
   1   0   0   14.66    0.24 
   2   0   0    2.21    0.06 
   3   0   0    2.21    0.07 
   4   0   0   32.43    0.57 
   4   0   0   33.27    0.57 
   5   0   0   12.15    0.26 
   5   0   0   12.03    0.25 
   6   0   0    2.93    0.11 
   6   0   0    3.07    0.12 
   7   0   0    3.73    0.14 
   7   0   0    3.92    0.15 
   8   0   0    0.29    0.06 
   8   0   0    0.28    0.06 
   9   0   0    0.12    0.05 
   9   0   0    0.07    0.06 
  10   0   0    0.56    0.09 
  11   0   0    1.03    0.13 
  11  -1   0    0.06    0.07 
  10  -1   0    0.05    0.06 
   9  -1   0    0.20    0.07 
   8  -1   0    0.08    0.04 
   8  -1   0   -0.03    0.04 
   7  -1   0    3.47    0.13 
   7  -1   0    3.63    0.15 
   6  -1   0    0.21    0.04 
   6  -1   0    0.20    0.05 
   5  -1   0    0.43    0.06 
   5  -1   0    0.38    0.04 
   4  -1   0   57.85    0.95 
   4  -1   0   57.15    0.97 
   3  -1   0   14.02    0.26 
   3  -1   0   13.80    0.27 
   2  -1   0    3.08    0.08 
   1  -1   0    0.24    0.02 
  -1   1   0    0.21    0.02 
   0  -1   0   41.74    0.68 
   0  -1   0   41.45    0.66 
   0   1   0   40.25    0.68 
   1   1   0   13.81    0.23 
   1   1   0   13.77    0.24 
   2   1   0    2.94    0.07 
   2   1   0    2.87    0.08 
   3   1   0    4.84    0.12 
   3   1   0    4.84    0.11 
   4   1   0   23.90    0.43 
   4   1   0   23.66    0.43 
   5   1   0   -0.01    0.02 
   5   1   0   -0.02    0.02 
   6   1   0    0.09    0.04 
   6   1   0    0.09    0.04 
   7   1   0    6.18    0.19 
   8   1   0   -0.11    0.03 
   9   1   0    0.81    0.10 
  10   1   0    1.01    0.12 
  11   1   0    2.72    0.17 
  10  -2   0    0.33    0.09 
   9  -2   0    1.74    0.13 
   8  -2   0    0.12    0.05 
   8  -2   0    0.19    0.06 
   7  -2   0    0.07    0.04 
   7  -2   0    0.05    0.04 
   6  -2   0    0.91    0.06 
   6  -2   0    0.83    0.08 
   5  -2   0    0.32    0.05 
   5  -2   0    0.35    0.04 
   4  -2   0    2.05    0.08 
   4  -2   0    2.13    0.09 
   3  -2   0   31.42    0.56 
   2  -2   0   17.85    0.33 
   1  -2   0   -0.01    0.04 
  -1   2   0   -0.03    0.04 
   0  -2   0   49.02    0.80 
   0   2   0   49.37    0.82 
   0   2   0   48.85    0.80 
   1   2   0   16.66    0.29 
   1   2   0   16.75    0.28 
   1   2   0   16.62    0.30 
   2   2   0    2.56    0.09 
   2   2   0    2.67    0.08 
   3   2   0   20.00    0.36 
   3   2   0   19.70    0.37 
   4   2   0    1.97    0.09 
   4   2   0    1.93    0.08 
   5   2   0    0.08    0.03 
   5   2   0    0.08    0.03 
   6   2   0    1.00    0.07 
   6   2   0    1.10    0.08 
   7   2   0    0.74    0.08 
   7   2   0    0.73    0.08 
   8   2   0   -0.02    0.04 
   8   2   0    0.03    0.04 
   9   2   0    3.18    0.15 
   9   2   0    3.47    0.17 
  10   2   0    0.04    0.05 
  11   2   0    2.18    0.15 
  10  -3   0    0.02    0.07 
   9  -3   0   -0.03    0.06 
   8  -3   0   -0.01    0.05 
   7  -3   0    0.11    0.04 
   7  -3   0    0.17    0.06 
   6  -3   0    0.02    0.04 
   6  -3   0   -0.04    0.03 
   5  -3   0    2.62    0.10 
   5  -3   0    2.64    0.12 
   4  -3   0    2.64    0.11 
   3  -3   0    3.28    0.11 
   2  -3   0   -0.02    0.02 
   1  -3   0    0.40    0.04 
  -1   3   0    0.54    0.05 
  -1   3   0    0.53    0.04 
   0  -3   0    0.41    0.04 
   0   3   0    0.37    0.04 
   0   3   0    0.47    0.04 
  -1  -3   0   17.11    0.31 
   1   3   0   16.88    0.32 
   1   3   0   16.86    0.30 
   2   3   0    7.64    0.18 
   2   3   0    8.03    0.15 
   2   3   0    7.61    0.16 
   3   3   0   21.05    0.39 
   3   3   0   21.60    0.41 
   4   3   0   37.30    0.64 
   4   3   0   36.99    0.67 
   5   3   0    1.03    0.07 
   5   3   0    1.09    0.08 
   6   3   0    1.67    0.09 
   6   3   0    2.01    0.11 
   7   3   0    8.41    0.25 
   7   3   0    8.81    0.23 
   8   3   0    1.15    0.10 
   8   3   0    1.17    0.11 
   9   3   0    1.87    0.13 
   9   3   0    1.82    0.12 
  10   3   0    0.44    0.09 
  10   3   0    0.41    0.08 
  11   3   0    0.35    0.09 
  10  -4   0    0.00    0.07 
   9  -4   0    0.24    0.08 
   8  -4   0    0.17    0.07 
   7  -4   0   -0.05    0.05 
   6  -4   0    0.50    0.08 
   6  -4   0    0.61    0.07 
   4  -4   0    0.41    0.06 
   3  -4   0    0.07    0.03 
   2  -4   0    0.46    0.05 
   1  -4   0   17.09    0.34 
  -1   4   0   16.92    0.34 
  -1   4   0   17.26    0.33 
   0  -4   0    0.02    0.02 
   0   4   0    0.04    0.02 
   0   4   0    0.04    0.03 
  -1  -4   0    0.10    0.03 
   1   4   0    0.10    0.03 
   1   4   0    0.06    0.02 
  -2  -4   0    5.78    0.15 
   2   4   0    6.04    0.13 
   2   4   0    6.06    0.17 
   3   4   0    1.23    0.08 
   3   4   0    1.27    0.07 
   3   4   0    1.18    0.04 
   4   4   0    2.04    0.10 
   4   4   0    2.03    0.09 
   5   4   0    0.14    0.04 
   5   4   0    0.10    0.04 
   6   4   0    0.27    0.06 
   6   4   0    0.40    0.06 
   7   4   0    0.38    0.07 
   7   4   0    0.47    0.07 
   8   4   0    0.12    0.05 
   8   4   0    0.14    0.06 
   9   4   0    1.01    0.11 
   9   4   0    0.67    0.10 
  10   4   0    0.06    0.06 
  10   4   0    0.06    0.06 
   9  -5   0    1.27    0.15 
   8  -5   0    0.00    0.06 
   7  -5   0    0.97    0.11 
   6  -5   0    0.37    0.08 
   6  -5   0    0.40    0.06 
   5  -5   0   44.10    0.83 
   4  -5   0    4.36    0.16 
   3  -5   0    0.32    0.05 
   2  -5   0    0.03    0.03 
   1  -5   0    7.22    0.19 
  -1   5   0    7.09    0.20 
  -1   5   0    7.21    0.19 
   0  -5   0   17.67    0.36 
   0   5   0   17.63    0.36 
   0   5   0   17.47    0.35 
  -1  -5   0    0.57    0.06 
   1   5   0    0.61    0.05 
   1   5   0    0.56    0.06 
  -2  -5   0    7.21    0.18 
   2   5   0    7.34    0.20 
   2   5   0    7.52    0.16 
  -3  -5   0    1.00    0.08 
   3   5   0    0.91    0.08 
   3   5   0    0.99    0.05 
   4   5   0    0.29    0.05 
   4   5   0    0.21    0.05 
   5   5   0    2.95    0.14 
   5   5   0    2.78    0.11 
   6   5   0    0.05    0.05 
   6   5   0    0.04    0.04 
   7   5   0    0.38    0.08 
   8   5   0    0.03    0.05 
   8   5   0    0.06    0.06 
   9   5   0    0.22    0.07 
   9   5   0    0.27    0.07 
  10   5   0    0.10    0.08 
   8  -6   0   -0.05    0.06 
   7  -6   0   -0.03    0.06 
   6  -6   0    0.11    0.06 
   5  -6   0    2.46    0.14 
   4  -6   0    2.70    0.14 
   3  -6   0    0.95    0.09 
   2  -6   0    0.81    0.09 
   1  -6   0    2.61    0.12 
  -1   6   0    2.74    0.12 
   0  -6   0    0.13    0.04 
   0   6   0    0.11    0.04 
   0   6   0    0.11    0.04 
  -1  -6   0    2.57    0.11 
   1   6   0    2.41    0.10 
   1   6   0    2.60    0.12 
  -2  -6   0    4.24    0.15 
   2   6   0    4.55    0.17 
   2   6   0    4.22    0.12 
  -3  -6   0    2.45    0.11 
   3   6   0    2.31    0.12 
  -4  -6   0    0.10    0.05 
   4   6   0    0.08    0.04 
   5   6   0    0.26    0.05 
   5   6   0    0.18    0.06 
   6   6   0    6.04    0.19 
   6   6   0    6.14    0.23 
   7   6   0    2.16    0.12 
   7   6   0    2.03    0.14 
   8   6   0    0.06    0.05 
   8   6   0   -0.02    0.06 
   9   6   0    0.21    0.08 
   7  -7   0    0.03    0.07 
   6  -7   0    0.07    0.06 
   5  -7   0    0.40    0.08 
   4  -7   0    0.22    0.07 
   3  -7   0    3.73    0.17 
   2  -7   0    0.77    0.09 
   1  -7   0    0.03    0.04 
  -1   7   0    0.00    0.04 
   0  -7   0    0.07    0.04 
   0   7   0    0.04    0.05 
  -1  -7   0    0.08    0.05 
   1   7   0    0.05    0.05 
  -2  -7   0    0.06    0.05 
   2   7   0    0.18    0.07 
  -3  -7   0    0.25    0.06 
   3   7   0    0.37    0.07 
  -4  -7   0    0.07    0.05 
   4   7   0   -0.04    0.05 
   5   7   0    0.35    0.08 
   6   7   0    0.90    0.10 
   6   7   0    0.84    0.11 
   7   7   0    0.03    0.05 
   7   7   0    0.12    0.07 
   8   7   0    0.15    0.08 
   9   7   0    0.00    0.07 
   6  -8   0    0.00    0.06 
   5  -8   0    0.05    0.07 
   4  -8   0    0.04    0.06 
   3  -8   0    1.19    0.13 
   2  -8   0    1.65    0.14 
   1  -8   0    2.08    0.13 
   0  -8   0    0.14    0.06 
   0   8   0    0.15    0.06 
  -1  -8   0    0.01    0.05 
   1   8   0   -0.06    0.05 
  -2  -8   0    4.72    0.18 
   2   8   0    4.46    0.19 
  -3  -8   0    0.96    0.10 
   3   8   0    0.75    0.10 
  -4  -8   0    0.13    0.06 
   4   8   0    0.10    0.06 
   5   8   0   -0.10    0.05 
   6   8   0    1.59    0.15 
   7   8   0    0.04    0.07 
   8   8   0    0.04    0.07 
   4  -9   0   -0.03    0.06 
   3  -9   0    0.04    0.06 
   2  -9   0    0.31    0.08 
   1  -9   0    0.46    0.09 
   0  -9   0    0.15    0.07 
   0   9   0    0.17    0.07 
  -1  -9   0    0.09    0.06 
   1   9   0    0.00    0.06 
  -2  -9   0   -0.03    0.05 
   2   9   0   -0.01    0.06 
  -3  -9   0    0.22    0.07 
   3   9   0    0.22    0.07 
  -4  -9   0    0.10    0.07 
   4   9   0    0.05    0.07 
   5   9   0    0.16    0.08 
   6   9   0   -0.07    0.06 
   2 -10   0   -0.02    0.06 
   1 -10   0   -0.01    0.06 
   0 -10   0    0.08    0.07 
  -1 -10   0    0.03    0.06 
   1  10   0   -0.06    0.06 
  -2 -10   0    0.46    0.09 
   2  10   0    0.54    0.11 
  -3 -10   0    0.01    0.06 
   3  10   0    0.05    0.07 
   4  10   0    0.07    0.08 
   2  10  -1   -0.01    0.07 
   1  10  -1    0.01    0.07 
  -1 -10   1   -0.11    0.08 
   0  10  -1    0.16    0.08 
   0 -10   1    0.17    0.08 
   5   9  -1    1.55    0.16 
   4   9  -1    0.07    0.07 
   3   9  -1    0.07    0.07 
   2   9  -1    0.08    0.07 
  -2  -9   1    0.17    0.07 
   1   9  -1    0.18    0.07 
  -1  -9   1    0.18    0.07 
   0   9  -1    0.25    0.08 
   0  -9   1    0.11    0.07 
   1  -9   1    0.14    0.07 
   2  -9   1   -0.02    0.06 
   3  -9   1    0.04    0.07 
   4  -9   1   -0.04    0.07 
   7   8  -1    0.07    0.07 
   6   8  -1   -0.03    0.06 
   5   8  -1    0.05    0.07 
   4   8  -1   -0.06    0.05 
   3   8  -1    0.14    0.07 
   2   8  -1    0.14    0.07 
  -2  -8   1    0.19    0.06 
   1   8  -1    0.94    0.11 
  -1  -8   1    0.99    0.10 
   0   8  -1    1.10    0.12 
   0  -8   1    1.11    0.11 
  -1   8  -1    1.40    0.13 
   1  -8   1    1.74    0.13 
   2  -8   1    0.60    0.09 
   3  -8   1    0.53    0.10 
   4  -8   1    0.22    0.08 
   5  -8   1   -0.05    0.06 
   6  -8   1    0.01    0.07 
   8   7  -1    0.09    0.07 
   7   7  -1    0.23    0.08 
   6   7  -1   -0.07    0.05 
   5   7  -1    0.94    0.12 
  -5  -7   1    1.19    0.10 
   4   7  -1    2.88    0.16 
  -4  -7   1    2.92    0.14 
   3   7  -1    2.84    0.15 
   2   7  -1    0.46    0.08 
   1   7  -1   -0.01    0.05 
   1   7  -1   -0.02    0.04 
  -1  -7   1   -0.01    0.04 
   0   7  -1    0.32    0.07 
   0   7  -1    0.56    0.08 
   0  -7   1    0.58    0.08 
  -1   7  -1    1.59    0.11 
   1  -7   1    1.50    0.11 
   2  -7   1    2.98    0.15 
   3  -7   1    1.47    0.13 
   4  -7   1    0.50    0.09 
   5  -7   1    0.13    0.07 
   6  -7   1    0.24    0.08 
   7  -7   1    0.08    0.07 
   9   6  -1   -0.11    0.06 
   8   6  -1    0.07    0.07 
   7   6  -1    0.16    0.07 
   6   6  -1    3.39    0.17 
   5   6  -1    3.28    0.17 
  -5  -6   1    3.58    0.15 
   4   6  -1    0.66    0.09 
  -4  -6   1    0.72    0.08 
   3   6  -1    0.52    0.08 
   2   6  -1    5.79    0.19 
   2   6  -1    5.70    0.23 
   1   6  -1    5.90    0.18 
   1   6  -1    5.78    0.19 
  -1  -6   1    5.94    0.18 
   0   6  -1    0.47    0.07 
   0   6  -1    0.45    0.07 
   0  -6   1    0.47    0.06 
  -1   6  -1    1.18    0.09 
   1  -6   1    1.11    0.09 
  -2   6  -1    0.03    0.04 
   2  -6   1    0.10    0.05 
   3  -6   1    1.09    0.10 
   4  -6   1    0.67    0.09 
   5  -6   1    0.60    0.09 
   6  -6   1    0.10    0.07 
   7  -6   1    0.06    0.07 
   8  -6   1    0.21    0.09 
   9   5  -1    0.37    0.10 
   8   5  -1    1.64    0.15 
   7   5  -1    0.10    0.06 
   6   5  -1    0.03    0.05 
   5   5  -1    0.24    0.06 
   4   5  -1    0.51    0.07 
   4   5  -1    0.58    0.08 
   3   5  -1    1.55    0.07 
   3   5  -1    1.72    0.10 
  -3  -5   1    1.54    0.08 
   2   5  -1    1.53    0.09 
   2   5  -1    1.67    0.08 
   1   5  -1    9.80    0.24 
   1   5  -1    9.61    0.22 
  -1  -5   1    9.39    0.22 
   0   5  -1    0.00    0.03 
   0   5  -1    0.04    0.03 
   0  -5   1    0.04    0.03 
  -1   5  -1    0.60    0.06 
  -1   5  -1    0.53    0.07 
   1  -5   1    0.49    0.06 
  -2   5  -1   13.81    0.33 
   2  -5   1   13.51    0.31 
  -3   5  -1    0.02    0.04 
   3  -5   1   -0.01    0.03 
   4  -5   1    0.90    0.09 
   5  -5   1    3.89    0.17 
   6  -5   1    0.95    0.11 
   7  -5   1    0.09    0.06 
   8  -5   1    0.29    0.08 
   9  -5   1    0.09    0.07 
  10   4  -1    1.94    0.17 
   9   4  -1    0.55    0.10 
   8   4  -1    1.00    0.11 
   7   4  -1    0.12    0.06 
   6   4  -1    1.14    0.11 
   5   4  -1   19.12    0.42 
   4   4  -1    0.23    0.05 
   4   4  -1    0.27    0.05 
   3   4  -1    4.05    0.14 
   3   4  -1    4.17    0.11 
   3   4  -1    3.95    0.12 
   2   4  -1    2.75    0.11 
   2   4  -1    2.82    0.09 
  -2  -4   1    2.65    0.09 
   1   4  -1    3.59    0.11 
   1   4  -1    3.49    0.12 
   0   4  -1    9.19    0.22 
   0   4  -1    9.29    0.21 
   0  -4   1    8.84    0.20 
  -1   4  -1    0.95    0.06 
  -1   4  -1    1.01    0.07 
   1  -4   1    1.01    0.07 
  -2   4  -1    4.35    0.15 
   2  -4   1    4.60    0.14 
  -3   4  -1    1.75    0.11 
   3  -4   1    1.85    0.10 
   4  -4   1    0.72    0.08 
   5  -4   1    2.89    0.14 
   6  -4   1    0.38    0.08 
   7  -4   1    0.49    0.08 
   8  -4   1    0.03    0.06 
   9  -4   1    0.04    0.07 
  10  -4   1   -0.07    0.07 
  10   3  -1    0.03    0.06 
   9   3  -1    4.44    0.18 
   9   3  -1    4.55    0.20 
   8   3  -1    3.36    0.17 
   8   3  -1    3.23    0.14 
   7   3  -1    5.24    0.17 
   7   3  -1    5.90    0.21 
   6   3  -1    1.06    0.08 
   6   3  -1    1.05    0.10 
   5   3  -1    0.46    0.06 
   5   3  -1    0.51    0.05 
   4   3  -1   34.36    0.63 
   4   3  -1   33.12    0.64 
   3   3  -1   27.08    0.51 
   3   3  -1   26.75    0.50 
   2   3  -1    0.20    0.04 
   2   3  -1    0.26    0.03 
  -2  -3   1    0.19    0.03 
   1   3  -1   19.17    0.35 
   1   3  -1   19.57    0.37 
  -1  -3   1   19.14    0.35 
   0   3  -1   10.01    0.21 
   0  -3   1    9.67    0.20 
  -1   3  -1   46.46    0.80 
   1  -3   1   46.95    0.79 
  -2   3  -1   41.92    0.73 
   2  -3   1   40.35    0.71 
  -3   3  -1    1.55    0.09 
   3  -3   1    1.58    0.08 
  -4   3  -1    6.05    0.19 
   4  -3   1    6.34    0.18 
   5  -3   1    6.86    0.16 
   5  -3   1    6.49    0.20 
   6  -3   1    1.52    0.11 
   6  -3   1    1.53    0.08 
   7  -3   1    2.72    0.14 
   8  -3   1    0.12    0.06 
   9  -3   1    0.05    0.06 
  10  -3   1   -0.04    0.06 
  11   2  -1    0.00    0.07 
  10   2  -1    0.52    0.09 
  10   2  -1    0.60    0.11 
   9   2  -1    0.22    0.06 
   9   2  -1    0.33    0.08 
   8   2  -1    0.13    0.05 
   8   2  -1    0.06    0.06 
   7   2  -1    0.16    0.05 
   7   2  -1    0.14    0.06 
   6   2  -1    0.93    0.09 
   6   2  -1    0.81    0.07 
   5   2  -1    3.68    0.11 
   5   2  -1    3.87    0.14 
   4   2  -1    0.47    0.06 
   4   2  -1    0.68    0.05 
   3   2  -1   18.85    0.37 
   2   2  -1    0.16    0.03 
   1   2  -1    3.58    0.10 
   1   2  -1    3.59    0.09 
  -1  -2   1    3.49    0.08 
   0   2  -1    1.07    0.05 
  -1   2  -1    1.97    0.06 
  -1   2  -1    2.09    0.08 
   1  -2   1    2.05    0.07 
  -2   2  -1    2.67    0.10 
   2  -2   1    2.82    0.09 
  -3   2  -1   18.06    0.37 
  -4   2  -1    2.72    0.12 
   4  -2   1    2.57    0.10 
   4  -2   1    2.70    0.08 
   5  -2   1    0.17    0.04 
   5  -2   1    0.27    0.03 
   6  -2   1    6.37    0.16 
   6  -2   1    6.33    0.20 
   7  -2   1    0.02    0.03 
   7  -2   1   -0.03    0.04 
   8  -2   1    5.92    0.22 
   9  -2   1    0.40    0.08 
  10  -2   1   -0.01    0.06 
  11   1  -1    0.99    0.12 
  10   1  -1    0.68    0.10 
  10   1  -1    0.62    0.12 
   9   1  -1    0.40    0.08 
   9   1  -1    0.35    0.07 
   8   1  -1    2.37    0.12 
   8   1  -1    2.38    0.15 
   7   1  -1   -0.02    0.03 
   7   1  -1    0.02    0.04 
   6   1  -1    0.98    0.09 
   6   1  -1    0.91    0.07 
   5   1  -1    0.01    0.02 
   5   1  -1    0.08    0.03 
   4   1  -1   26.77    0.47 
   4   1  -1   26.54    0.49 
   3   1  -1    7.82    0.18 
   3   1  -1    8.10    0.16 
   2   1  -1    1.82    0.07 
   2   1  -1    1.90    0.06 
   1   1  -1   58.30    0.93 
   1   1  -1   55.90    0.92 
   0   1  -1    3.55    0.08 
   0  -1   1    3.59    0.07 
  -1   1  -1   25.49    0.40 
  -1   1  -1   24.83    0.43 
   1  -1   1   23.76    0.41 
  -2   1  -1    0.18    0.04 
   2  -1   1    0.20    0.03 
  -3   1  -1    0.13    0.03 
   3  -1   1    0.25    0.03 
   3  -1   1    0.22    0.02 
   4  -1   1    6.87    0.14 
   4  -1   1    6.88    0.17 
   5  -1   1    1.62    0.07 
   5  -1   1    1.61    0.09 
   6  -1   1    4.83    0.13 
   6  -1   1    4.74    0.16 
   7  -1   1    1.25    0.07 
   7  -1   1    1.14    0.09 
   8  -1   1    0.27    0.06 
   9  -1   1    0.58    0.09 
  10  -1   1    0.18    0.07 
  11  -1   1    0.08    0.08 
  11   0  -1    0.16    0.08 
  10   0  -1   -0.04    0.05 
   9   0  -1    0.03    0.05 
   8   0  -1    5.26    0.19 
   8   0  -1    5.47    0.19 
   7   0  -1    0.79    0.08 
   7   0  -1    0.84    0.08 
   6   0  -1    2.71    0.11 
   6   0  -1    2.51    0.11 
   5   0  -1    0.05    0.03 
   5   0  -1    0.04    0.03 
   4   0  -1    0.76    0.05 
   4   0  -1    0.65    0.06 
   3   0  -1   44.06    0.75 
   3   0  -1   44.82    0.73 
   2   0  -1    3.58    0.10 
   2   0  -1    3.61    0.08 
   1   0  -1   34.86    0.55 
  -1   0   1   34.53    0.55 
   0   0  -1   14.49    0.24 
   0   0  -1   14.28    0.23 
   0   0   1   14.31    0.23 
   0   0   1   14.65    0.24 
  -1   0  -1   65.91    1.08 
   1   0   1   65.15    1.05 
  -2   0  -1    0.14    0.03 
  -2   0  -1    0.10    0.02 
   2   0   1    0.07    0.02 
   2   0   1    0.10    0.03 
  -3   0  -1   13.62    0.27 
   3   0   1   13.70    0.26 
   4   0   1   64.00    1.07 
   4   0   1   65.37    1.04 
   5   0   1   25.19    0.45 
   5   0   1   25.27    0.48 
   6   0   1    6.32    0.16 
   6   0   1    6.08    0.18 
   7   0   1    0.17    0.05 
   7   0   1    0.22    0.04 
   8   0   1    0.10    0.05 
   8   0   1    0.25    0.05 
   9   0   1    0.29    0.07 
  10   0   1    0.03    0.06 
  11   0   1    0.14    0.08 
  11  -1  -1    0.19    0.08 
  10  -1  -1    0.47    0.09 
   9  -1  -1    0.38    0.08 
   8  -1  -1    3.99    0.17 
   7  -1  -1    1.84    0.10 
   6  -1  -1    0.00    0.03 
   5  -1  -1    2.48    0.10 
   5  -1  -1    2.43    0.10 
   4  -1  -1    7.32    0.17 
   4  -1  -1    7.50    0.18 
   3  -1  -1   52.35    0.87 
   3  -1  -1   53.52    0.87 
   2  -1  -1   18.94    0.33 
   2  -1  -1   18.48    0.33 
   1  -1  -1   17.68    0.30 
   0  -1  -1    3.09    0.07 
  -1  -1  -1    6.97    0.12 
   1   1   1    7.35    0.13 
  -2  -1  -1    4.24    0.09 
   2   1   1    4.13    0.10 
   2   1   1    4.16    0.10 
   3   1   1    0.54    0.04 
   3   1   1    0.49    0.03 
   4   1   1    0.05    0.02 
   4   1   1    0.06    0.02 
   5   1   1    7.18    0.18 
   5   1   1    7.13    0.17 
   6   1   1    2.95    0.11 
   6   1   1    3.04    0.12 
   7   1   1    6.48    0.18 
   7   1   1    6.48    0.20 
   8   1   1    5.40    0.19 
   8   1   1    5.55    0.18 
   9   1   1    0.07    0.06 
  10   1   1    0.16    0.07 
  11   1   1    0.09    0.07 
  10  -2  -1   -0.03    0.06 
   9  -2  -1    0.84    0.11 
   8  -2  -1    2.08    0.13 
   8  -2  -1    1.87    0.11 
   7  -2  -1    0.39    0.06 
   7  -2  -1    0.37    0.06 
   6  -2  -1    1.11    0.09 
   5  -2  -1   -0.02    0.02 
   4  -2  -1   11.24    0.25 
   3  -2  -1   70.46    1.14 
   3  -2  -1   68.00    1.13 
   2  -2  -1   16.78    0.31 
   1  -2  -1   41.94    0.69 
   0  -2  -1   14.87    0.26 
   1   2   1   88.31    1.46 
   1   2   1   90.02    1.43 
   2   2   1   82.89    1.37 
   2   2   1   85.14    1.35 
   3   2   1    1.46    0.06 
   3   2   1    1.47    0.06 
   4   2   1   12.03    0.25 
   4   2   1   11.95    0.25 
   5   2   1    3.38    0.11 
   6   2   1    0.44    0.06 
   7   2   1    5.38    0.18 
   8   2   1    3.17    0.15 
   8   2   1    3.11    0.16 
   9   2   1    0.29    0.06 
   9   2   1    0.30    0.07 
  10   2   1    0.20    0.07 
  11   2   1    0.07    0.07 
  10  -3  -1    0.07    0.07 
   9  -3  -1    0.36    0.09 
   8  -3  -1   -0.04    0.04 
   8  -3  -1    0.03    0.05 
   7  -3  -1    0.43    0.07 
   7  -3  -1    0.32    0.06 
   6  -3  -1    0.30    0.05 
   6  -3  -1    0.19    0.05 
   5  -3  -1    1.86    0.10 
   5  -3  -1    1.70    0.12 
   4  -3  -1    0.31    0.05 
   3  -3  -1    8.92    0.21 
   2  -3  -1   49.38    0.83 
   1  -3  -1    6.27    0.15 
   0  -3  -1    6.49    0.15 
   0   3   1    6.48    0.15 
  -1  -3  -1   78.83    1.27 
   1   3   1   77.91    1.27 
   2   3   1   13.16    0.25 
   2   3   1   12.81    0.26 
   3   3   1   51.99    0.87 
   3   3   1   52.35    0.88 
   4   3   1   13.71    0.28 
   4   3   1   14.11    0.29 
   5   3   1    2.09    0.09 
   5   3   1    2.13    0.10 
   6   3   1    4.35    0.15 
   6   3   1    4.57    0.15 
   7   3   1   10.29    0.26 
   7   3   1    9.55    0.26 
   8   3   1   74.90    1.29 
   8   3   1   72.83    1.28 
   9   3   1    0.17    0.06 
  10   3   1    0.21    0.07 
  11   3   1   -0.02    0.06 
  10  -4  -1    0.10    0.08 
   9  -4  -1    0.04    0.07 
   8  -4  -1    0.51    0.09 
   7  -4  -1    0.13    0.05 
   7  -4  -1    0.08    0.06 
   6  -4  -1    2.36    0.11 
   6  -4  -1    2.14    0.13 
   5  -4  -1   -0.02    0.03 
   5  -4  -1    0.03    0.05 
   4  -4  -1    0.77    0.07 
   3  -4  -1    1.07    0.07 
   2  -4  -1    2.34    0.10 
   1  -4  -1    1.86    0.08 
   0  -4  -1    0.52    0.05 
   0   4   1    0.56    0.05 
  -1  -4  -1   17.83    0.34 
   1   4   1   18.03    0.35 
   2   4   1    3.18    0.11 
   2   4   1    3.11    0.10 
   3   4   1    3.10    0.10 
   3   4   1    3.17    0.12 
   4   4   1    9.49    0.22 
   4   4   1    9.25    0.23 
   5   4   1    1.87    0.10 
   5   4   1    1.72    0.09 
   6   4   1    0.54    0.07 
   6   4   1    0.52    0.06 
   7   4   1   -0.03    0.04 
   7   4   1   -0.11    0.04 
   8   4   1    1.60    0.12 
   8   4   1    1.90    0.13 
   9   4   1    0.04    0.06 
   9   4   1   -0.03    0.05 
  10   4   1    0.03    0.06 
  10   4   1    0.07    0.06 
  11   4   1    0.05    0.07 
   9  -5  -1   -0.02    0.07 
   8  -5  -1    0.57    0.10 
   7  -5  -1    1.15    0.11 
   7  -5  -1    1.18    0.13 
   6  -5  -1    2.10    0.11 
   6  -5  -1    1.91    0.13 
   5  -5  -1    4.27    0.17 
   4  -5  -1    0.02    0.04 
   3  -5  -1    0.33    0.06 
   2  -5  -1   13.55    0.30 
   1  -5  -1   15.43    0.32 
   0  -5  -1    0.44    0.05 
   0   5   1    0.31    0.05 
  -1  -5  -1    0.36    0.05 
   1   5   1    0.37    0.05 
  -2  -5  -1    0.02    0.03 
   2   5   1    0.00    0.03 
   3   5   1    0.76    0.07 
   3   5   1    0.82    0.07 
   4   5   1    4.52    0.16 
   4   5   1    4.19    0.14 
   5   5   1    7.48    0.22 
   5   5   1    7.11    0.20 
   6   5   1    1.69    0.10 
   6   5   1    1.48    0.10 
   7   5   1    0.45    0.08 
   7   5   1    0.33    0.07 
   8   5   1    0.16    0.07 
   8   5   1    0.10    0.05 
   9   5   1    0.04    0.05 
   9   5   1    0.07    0.06 
  10   5   1    0.02    0.06 
  10   5   1   -0.01    0.06 
   8  -6  -1    1.52    0.15 
   7  -6  -1   -0.04    0.06 
   6  -6  -1    0.28    0.07 
   5  -6  -1    0.58    0.09 
   4  -6  -1    3.82    0.16 
   3  -6  -1    0.43    0.07 
   2  -6  -1   -0.02    0.03 
   1  -6  -1    0.04    0.03 
   0  -6  -1    0.01    0.03 
   0   6   1    0.03    0.03 
  -1  -6  -1    0.19    0.04 
   1   6   1    0.06    0.04 
  -2  -6  -1    2.29    0.11 
   2   6   1    2.29    0.11 
  -3  -6  -1    5.56    0.17 
   3   6   1    5.47    0.18 
   4   6   1   -0.02    0.03 
   4   6   1   -0.01    0.03 
   5   6   1    0.94    0.10 
   5   6   1    0.99    0.09 
   6   6   1    0.19    0.05 
   6   6   1    0.23    0.06 
   7   6   1    0.81    0.10 
   7   6   1    0.67    0.09 
   8   6   1    0.18    0.07 
   8   6   1    0.18    0.06 
   9   6   1    0.55    0.09 
   9   6   1    0.56    0.10 
  10   6   1    0.08    0.07 
  10   6   1    0.05    0.07 
   6  -7  -1    0.40    0.09 
   5  -7  -1    0.28    0.08 
   4  -7  -1   -0.04    0.05 
   3  -7  -1    0.98    0.10 
   2  -7  -1   -0.01    0.04 
   1  -7  -1    1.06    0.09 
   0  -7  -1    0.22    0.05 
   0   7   1    0.22    0.06 
  -1  -7  -1    0.04    0.04 
   1   7   1    0.06    0.04 
  -2  -7  -1    4.06    0.15 
   2   7   1    3.78    0.16 
  -3  -7  -1    8.77    0.24 
   3   7   1    8.22    0.25 
  -4  -7  -1    0.01    0.05 
   4   7   1   -0.01    0.05 
   5   7   1    0.19    0.06 
   5   7   1    0.18    0.06 
   6   7   1    0.00    0.05 
   6   7   1    0.01    0.04 
   7   7   1    1.47    0.12 
   7   7   1    1.16    0.12 
   8   7   1    0.11    0.06 
   8   7   1    0.03    0.06 
   9   7   1    0.13    0.06 
   9   7   1    0.00    0.06 
   6  -8  -1    0.14    0.08 
   5  -8  -1    0.19    0.08 
   4  -8  -1    0.04    0.06 
   3  -8  -1   -0.01    0.05 
   2  -8  -1    4.88    0.20 
   1  -8  -1    1.02    0.11 
   0  -8  -1    0.05    0.05 
   0   8   1    0.02    0.05 
  -1  -8  -1    0.04    0.05 
   1   8   1    0.07    0.06 
  -2  -8  -1    2.04    0.13 
   2   8   1    2.05    0.14 
  -3  -8  -1   33.52    0.66 
   3   8   1   32.97    0.69 
  -4  -8  -1    0.62    0.09 
   4   8   1    0.49    0.09 
  -5  -8  -1   -0.09    0.05 
   5   8   1   -0.09    0.05 
  -6  -8  -1    0.14    0.07 
   6   8   1    0.06    0.06 
   7   8   1    0.87    0.12 
   7   8   1    0.96    0.11 
   8   8   1    0.02    0.07 
   8   8   1    0.08    0.06 
   5  -9  -1    0.27    0.09 
   4  -9  -1    0.61    0.11 
   3  -9  -1    0.12    0.07 
   2  -9  -1    0.52    0.09 
   1  -9  -1    0.97    0.11 
   0  -9  -1    0.04    0.06 
  -1  -9  -1   -0.03    0.05 
   1   9   1    0.00    0.06 
  -2  -9  -1    0.08    0.06 
   2   9   1    0.15    0.07 
  -3  -9  -1    0.26    0.07 
   3   9   1    0.24    0.08 
  -4  -9  -1    0.06    0.06 
   4   9   1    0.04    0.06 
  -5  -9  -1    0.31    0.08 
   5   9   1    0.25    0.08 
  -6  -9  -1   -0.01    0.06 
   6   9   1    0.07    0.07 
   7   9   1    0.13    0.08 
   3 -10  -1   -0.02    0.06 
   2 -10  -1    0.24    0.09 
   1 -10  -1    0.05    0.07 
   0 -10  -1    0.74    0.11 
  -1 -10  -1   -0.06    0.05 
   1  10   1    0.06    0.07 
  -2 -10  -1   -0.05    0.05 
   2  10   1    0.09    0.07 
  -3 -10  -1    0.09    0.07 
   3  10   1    0.12    0.08 
  -4 -10  -1    0.12    0.07 
   4  10   1   -0.14    0.06 
  -5 -10  -1    0.24    0.08 
   5  10   1    0.23    0.09 
   4   9  -2   -0.02    0.07 
   3   9  -2    0.57    0.11 
   2   9  -2   -0.04    0.06 
   1   9  -2    0.06    0.07 
   0   9  -2    0.16    0.07 
   0  -9   2    0.24    0.08 
  -1   9  -2    0.10    0.07 
   1  -9   2   -0.06    0.06 
   2  -9   2   -0.07    0.06 
   3  -9   2    0.03    0.07 
   6   8  -2    0.04    0.07 
   5   8  -2    1.47    0.15 
   4   8  -2    1.31    0.14 
   3   8  -2   -0.06    0.06 
   2   8  -2    0.53    0.09 
   1   8  -2    0.01    0.06 
   0   8  -2    0.02    0.06 
   0  -8   2    0.06    0.06 
  -1   8  -2    0.94    0.11 
   1  -8   2    0.97    0.11 
  -2   8  -2   -0.04    0.06 
   2  -8   2   -0.02    0.06 
   3  -8   2    0.07    0.07 
   4  -8   2    0.01    0.07 
   5  -8   2    0.12    0.08 
   7   7  -2   -0.09    0.06 
   6   7  -2    0.25    0.08 
   5   7  -2    0.79    0.11 
   4   7  -2    0.35    0.08 
   3   7  -2    0.32    0.07 
  -3  -7   2    0.36    0.06 
   2   7  -2    2.99    0.16 
  -2  -7   2    3.36    0.14 
   1   7  -2    0.01    0.05 
   1   7  -2    0.01    0.05 
   0   7  -2    0.04    0.05 
   0   7  -2    0.01    0.05 
   0  -7   2    0.07    0.05 
  -1   7  -2   -0.01    0.06 
   1  -7   2    0.00    0.05 
  -2   7  -2    0.98    0.12 
   2  -7   2    0.84    0.10 
  -3   7  -2    0.22    0.08 
   3  -7   2    0.33    0.08 
   4  -7   2    0.04    0.06 
   5  -7   2    0.56    0.11 
   6  -7   2    0.04    0.07 
   7  -7   2    0.02    0.07 
   8   6  -2    0.11    0.08 
   7   6  -2    0.10    0.07 
   6   6  -2    2.23    0.16 
   5   6  -2    1.61    0.14 
   4   6  -2    0.10    0.06 
  -4  -6   2    0.25    0.06 
   3   6  -2    2.16    0.13 
  -3  -6   2    1.98    0.10 
   2   6  -2   51.66    0.96 
   2   6  -2   53.92    0.94 
  -2  -6   2   52.55    0.92 
   1   6  -2    7.86    0.22 
   1   6  -2    7.46    0.23 
   0   6  -2    0.21    0.06 
   0   6  -2    0.19    0.06 
   0  -6   2    0.21    0.06 
  -1   6  -2   -0.03    0.04 
   1  -6   2   -0.02    0.04 
  -2   6  -2    0.73    0.09 
   2  -6   2    0.66    0.08 
  -3   6  -2    3.55    0.18 
   3  -6   2    3.66    0.16 
  -4   6  -2    0.08    0.07 
   4  -6   2    0.16    0.06 
   5  -6   2    0.37    0.08 
   6  -6   2    0.24    0.08 
   7  -6   2    0.29    0.08 
   8  -6   2    0.06    0.07 
   9   5  -2   -0.15    0.05 
   8   5  -2    0.61    0.10 
   7   5  -2   -0.05    0.05 
   6   5  -2    1.84    0.13 
   5   5  -2    0.39    0.08 
   4   5  -2    0.32    0.07 
  -4  -5   2    0.33    0.05 
   3   5  -2    0.89    0.09 
   3   5  -2    1.04    0.11 
  -3  -5   2    1.03    0.07 
   2   5  -2   10.01    0.27 
   2   5  -2   10.26    0.24 
  -2  -5   2   10.20    0.23 
   1   5  -2    1.35    0.09 
   1   5  -2    1.29    0.09 
  -1  -5   2    1.32    0.07 
   0   5  -2    0.05    0.03 
  -1   5  -2    0.10    0.04 
   1  -5   2    0.08    0.04 
  -2   5  -2    3.84    0.16 
   2  -5   2    4.08    0.15 
  -3   5  -2    0.18    0.06 
   3  -5   2    0.25    0.06 
  -4   5  -2    4.33    0.19 
   4  -5   2    4.04    0.17 
   5  -5   2    0.06    0.05 
   6  -5   2   -0.06    0.05 
   7  -5   2    0.36    0.09 
   8  -5   2    0.93    0.12 
   9  -5   2    1.69    0.17 
  10   4  -2    0.08    0.08 
   9   4  -2   -0.06    0.06 
   8   4  -2    0.33    0.08 
   7   4  -2    0.77    0.10 
   6   4  -2    0.20    0.06 
   5   4  -2    2.05    0.12 
   4   4  -2    4.80    0.17 
   3   4  -2    0.85    0.08 
   3   4  -2    0.74    0.06 
  -3  -4   2    0.72    0.06 
   2   4  -2    1.98    0.09 
   2   4  -2    1.91    0.10 
  -2  -4   2    1.92    0.08 
   1   4  -2    7.77    0.20 
   1   4  -2    7.67    0.19 
  -1  -4   2    7.18    0.17 
   0   4  -2    0.02    0.03 
   0  -4   2    0.03    0.02 
  -1   4  -2    0.01    0.03 
  -1   4  -2    0.00    0.02 
   1  -4   2    0.01    0.03 
  -2   4  -2    0.56    0.07 
   2  -4   2    0.70    0.07 
  -3   4  -2    0.06    0.04 
   3  -4   2    0.00    0.03 
  -4   4  -2    3.28    0.16 
   4  -4   2    3.90    0.15 
  -5   4  -2    8.94    0.28 
   5  -4   2    7.99    0.24 
   6  -4   2    0.24    0.06 
   7  -4   2    0.07    0.06 
   8  -4   2    0.18    0.07 
   9  -4   2    1.37    0.15 
  10   3  -2    0.90    0.13 
   9   3  -2    0.52    0.10 
   8   3  -2    0.08    0.06 
   7   3  -2    0.07    0.06 
   6   3  -2   -0.01    0.04 
   5   3  -2    4.09    0.16 
   4   3  -2    4.95    0.17 
   3   3  -2    4.61    0.15 
   2   3  -2    0.10    0.03 
   2   3  -2    0.08    0.03 
  -2  -3   2    0.07    0.02 
   1   3  -2    1.47    0.07 
   1   3  -2    1.38    0.08 
  -1  -3   2    1.48    0.06 
   0   3  -2    1.51    0.07 
   0   3  -2    1.63    0.08 
   0  -3   2    1.66    0.07 
  -1   3  -2    0.07    0.04 
   1  -3   2    0.08    0.03 
  -2   3  -2   28.36    0.54 
  -2   3  -2   28.41    0.52 
   2  -3   2   28.99    0.52 
  -3   3  -2   12.56    0.30 
   3  -3   2   12.76    0.28 
  -4   3  -2    6.45    0.20 
   4  -3   2    6.13    0.18 
  -5   3  -2    1.98    0.12 
   5  -3   2    2.01    0.11 
   6  -3   2    5.49    0.20 
   7  -3   2    2.04    0.13 
   8  -3   2    0.71    0.10 
   9  -3   2    0.58    0.10 
  10  -3   2   -0.04    0.07 
  10   2  -2   -0.09    0.06 
   9   2  -2    0.14    0.07 
   8   2  -2    0.04    0.05 
   7   2  -2   14.15    0.36 
   6   2  -2    0.23    0.06 
   5   2  -2    2.46    0.12 
   4   2  -2    2.20    0.10 
   3   2  -2   33.48    0.61 
   2   2  -2    6.77    0.17 
   1   2  -2   12.78    0.26 
  -1  -2   2   12.80    0.23 
   0   2  -2   45.57    0.76 
   0   2  -2   45.59    0.77 
   0  -2   2   44.75    0.74 
  -1   2  -2    4.83    0.14 
  -2   2  -2    0.01    0.01 
  -2   2  -2    0.01    0.02 
   2  -2   2    0.02    0.02 
  -3   2  -2   -0.02    0.03 
   3  -2   2   -0.02    0.02 
  -4   2  -2    2.27    0.11 
   4  -2   2    2.42    0.10 
  -5   2  -2    0.01    0.04 
   5  -2   2   -0.01    0.03 
   5  -2   2    0.01    0.02 
   6  -2   2    2.06    0.09 
   6  -2   2    1.94    0.11 
   7  -2   2    0.17    0.06 
   8  -2   2    0.07    0.05 
   9  -2   2    0.37    0.08 
  10  -2   2    0.15    0.07 
  10   1  -2    0.08    0.06 
   9   1  -2    0.59    0.09 
   9   1  -2    0.46    0.08 
   8   1  -2    0.01    0.05 
   8   1  -2   -0.04    0.04 
   7   1  -2   98.48    1.68 
   6   1  -2   14.62    0.34 
   5   1  -2    2.80    0.12 
   4   1  -2    4.68    0.15 
   3   1  -2    0.74    0.07 
   2   1  -2   40.08    0.69 
   1   1  -2    6.17    0.14 
   0   1  -2    5.56    0.13 
   0   1  -2    5.84    0.14 
   0  -1   2    5.63    0.11 
  -1   1  -2   10.13    0.21 
  -1   1  -2   10.19    0.19 
  -2   1  -2   18.50    0.35 
  -2   1  -2   17.93    0.29 
   2  -1   2   17.21    0.33 
  -3   1  -2   70.76    1.17 
   3  -1   2   69.27    1.15 
  -4   1  -2    9.39    0.25 
   4  -1   2    9.15    0.17 
   4  -1   2    9.34    0.22 
  -5   1  -2    2.54    0.12 
   5  -1   2    2.69    0.11 
   5  -1   2    2.71    0.07 
   6  -1   2    1.80    0.10 
   6  -1   2    1.88    0.07 
   7  -1   2    1.63    0.11 
   8  -1   2    0.37    0.07 
   9  -1   2    0.01    0.05 
  10  -1   2    0.37    0.09 
  11  -1   2    0.11    0.07 
  10   0  -2   -0.06    0.06 
  10   0  -2    0.06    0.06 
   9   0  -2    0.31    0.08 
   9   0  -2    0.30    0.07 
   8   0  -2    0.73    0.09 
   8   0  -2    0.63    0.08 
   7   0  -2    0.37    0.06 
   7   0  -2    0.28    0.06 
   6   0  -2    4.73    0.14 
   6   0  -2    4.58    0.16 
   5   0  -2    0.00    0.02 
   5   0  -2   -0.01    0.03 
   4   0  -2    0.52    0.06 
   3   0  -2   27.17    0.49 
   2   0  -2    7.91    0.18 
   1   0  -2    6.08    0.14 
   0   0  -2  118.45    1.95 
   0   0  -2  123.75    1.90 
   0   0   2  119.51    1.90 
  -1   0  -2   39.56    0.63 
  -1   0  -2   39.74    0.66 
   1   0   2   39.89    0.63 
  -2   0  -2   10.41    0.21 
   2   0   2   10.73    0.21 
  -3   0  -2    7.70    0.23 
   3   0   2    7.86    0.17 
   4   0   2   92.89    1.55 
   4   0   2   97.27    1.50 
   5   0   2    8.14    0.17 
   5   0   2    8.30    0.21 
   6   0   2    0.92    0.05 
   6   0   2    0.99    0.09 
   7   0   2    2.52    0.09 
   7   0   2    2.54    0.12 
   8   0   2    1.05    0.11 
   9   0   2    3.77    0.18 
  10   0   2    0.28    0.08 
  11   0   2    0.00    0.07 
  10  -1  -2    0.97    0.11 
   9  -1  -2    0.10    0.06 
   9  -1  -2    0.01    0.05 
   8  -1  -2    0.04    0.05 
   8  -1  -2   -0.01    0.04 
   7  -1  -2    3.31    0.14 
   7  -1  -2    3.19    0.13 
   6  -1  -2   11.09    0.27 
   6  -1  -2   11.16    0.26 
   5  -1  -2    0.07    0.03 
   5  -1  -2    0.10    0.03 
   4  -1  -2    4.59    0.12 
   4  -1  -2    4.39    0.14 
   3  -1  -2    4.72    0.13 
   3  -1  -2    4.95    0.12 
   2  -1  -2    3.50    0.10 
   2  -1  -2    3.53    0.08 
   1  -1  -2    0.21    0.02 
   1  -1  -2    0.19    0.03 
   0   1   2    4.42    0.09 
   1   1   2   13.71    0.25 
  -2  -1  -2    5.10    0.12 
   2   1   2    5.21    0.10 
   2   1   2    5.10    0.12 
  -3  -1  -2   13.79    0.26 
   3   1   2   13.83    0.27 
  -4  -1  -2   13.57    0.27 
   4   1   2   13.44    0.25 
   4   1   2   13.27    0.27 
   5   1   2    6.43    0.14 
   5   1   2    6.27    0.17 
   6   1   2    0.28    0.04 
   6   1   2    0.24    0.05 
   7   1   2    0.08    0.03 
   7   1   2    0.03    0.04 
   8   1   2   -0.01    0.04 
   8   1   2    0.01    0.03 
   9   1   2    0.10    0.06 
  10   1   2    0.21    0.07 
  11   1   2    0.10    0.08 
  10  -2  -2    0.41    0.09 
   9  -2  -2   -0.03    0.05 
   8  -2  -2    0.46    0.07 
   8  -2  -2    0.38    0.07 
   7  -2  -2    0.01    0.04 
   7  -2  -2   -0.05    0.03 
   6  -2  -2    4.75    0.16 
   6  -2  -2    4.49    0.15 
   5  -2  -2    2.40    0.11 
   5  -2  -2    2.53    0.10 
   4  -2  -2   13.92    0.29 
   4  -2  -2   13.78    0.29 
   3  -2  -2   48.08    0.82 
   3  -2  -2   48.96    0.81 
   2  -2  -2    7.97    0.17 
   1  -2  -2    0.04    0.02 
   0  -2  -2   69.75    1.12 
   1   2   2    1.65    0.06 
  -2  -2  -2   65.20    1.04 
   2   2   2   65.27    1.06 
  -3  -2  -2    0.50    0.03 
   3   2   2    0.58    0.04 
   3   2   2    0.55    0.04 
  -4  -2  -2   21.94    0.39 
   4   2   2   21.84    0.41 
   4   2   2   22.25    0.39 
   5   2   2    0.32    0.04 
   5   2   2    0.29    0.05 
   6   2   2    0.00    0.03 
   6   2   2    0.00    0.03 
   7   2   2    2.91    0.13 
   7   2   2    2.97    0.11 
   8   2   2    0.00    0.04 
   8   2   2    0.01    0.04 
   9   2   2    3.38    0.17 
  10   2   2   -0.03    0.06 
  11   2   2    0.02    0.06 
  10  -3  -2    0.13    0.07 
   9  -3  -2    0.25    0.08 
   8  -3  -2    1.22    0.12 
   7  -3  -2    1.21    0.11 
   7  -3  -2    1.16    0.11 
   6  -3  -2    3.59    0.14 
   6  -3  -2    3.75    0.15 
   5  -3  -2    4.96    0.16 
   5  -3  -2    5.06    0.16 
   4  -3  -2    1.03    0.07 
   4  -3  -2    0.86    0.06 
   3  -3  -2    6.61    0.17 
   2  -3  -2    0.59    0.05 
   1  -3  -2    0.62    0.04 
   0  -3  -2    9.39    0.19 
   1   3   2   12.22    0.24 
   1   3   2   11.90    0.24 
   2   3   2   16.49    0.31 
   2   3   2   16.09    0.31 
   3   3   2    3.32    0.10 
   3   3   2    3.25    0.10 
   4   3   2    3.30    0.11 
   4   3   2    3.46    0.11 
   5   3   2    6.90    0.17 
   6   3   2    0.12    0.04 
   7   3   2    0.38    0.06 
   7   3   2    0.42    0.09 
   8   3   2    1.53    0.10 
   8   3   2    1.57    0.12 
   9   3   2    1.24    0.12 
   9   3   2    0.91    0.10 
  10   3   2    0.34    0.08 
  11   3   2    0.56    0.10 
   9  -4  -2    0.14    0.08 
   8  -4  -2    0.03    0.06 
   7  -4  -2    4.54    0.19 
   6  -4  -2    1.24    0.11 
   6  -4  -2    0.76    0.08 
   5  -4  -2    1.20    0.09 
   5  -4  -2    1.23    0.09 
   4  -4  -2    0.01    0.03 
   3  -4  -2    3.36    0.12 
   2  -4  -2   14.41    0.30 
   1  -4  -2    7.50    0.18 
   0  -4  -2   14.09    0.28 
  -1  -4  -2    7.78    0.18 
   1   4   2    7.73    0.18 
   2   4   2    5.24    0.14 
   2   4   2    5.19    0.14 
   3   4   2    3.46    0.12 
   3   4   2    3.44    0.11 
   4   4   2    6.17    0.17 
   4   4   2    6.17    0.17 
   5   4   2    2.40    0.11 
   5   4   2    2.29    0.10 
   6   4   2    1.23    0.09 
   6   4   2    1.31    0.09 
   7   4   2    0.63    0.08 
   7   4   2    0.70    0.08 
   8   4   2    0.10    0.06 
   8   4   2    0.00    0.06 
   9   4   2    0.07    0.06 
  10   4   2    0.09    0.07 
  11   4   2   -0.05    0.06 
   9  -5  -2    0.21    0.08 
   8  -5  -2    0.20    0.07 
   7  -5  -2   -0.04    0.05 
   6  -5  -2    0.99    0.11 
   5  -5  -2    3.94    0.16 
   4  -5  -2   10.33    0.27 
   3  -5  -2    7.25    0.20 
   2  -5  -2    0.59    0.06 
   1  -5  -2   24.27    0.46 
   0  -5  -2   14.69    0.31 
  -1  -5  -2    0.79    0.07 
   1   5   2    0.57    0.06 
  -2  -5  -2    5.61    0.16 
   3   5   2    3.26    0.12 
   3   5   2    3.32    0.13 
   4   5   2   14.92    0.33 
   4   5   2   15.12    0.32 
   5   5   2    6.67    0.20 
   5   5   2    6.85    0.19 
   6   5   2    0.36    0.06 
   6   5   2    0.37    0.06 
   7   5   2    0.45    0.08 
   7   5   2    0.55    0.08 
   8   5   2    1.41    0.12 
   8   5   2    1.51    0.13 
   9   5   2    1.07    0.11 
   9   5   2    0.96    0.12 
  10   5   2    4.14    0.20 
  10   5   2    4.27    0.20 
  11   5   2   -0.01    0.07 
   8  -6  -2    0.06    0.07 
   7  -6  -2    0.08    0.06 
   6  -6  -2    0.20    0.07 
   5  -6  -2    0.35    0.08 
   4  -6  -2    0.01    0.05 
   3  -6  -2   -0.03    0.03 
   2  -6  -2    1.88    0.10 
   1  -6  -2    1.83    0.10 
   0  -6  -2    0.50    0.06 
  -1  -6  -2    1.41    0.09 
   1   6   2    1.38    0.09 
  -2  -6  -2    0.00    0.03 
   2   6   2    0.05    0.03 
  -3  -6  -2    0.17    0.05 
   3   6   2    0.16    0.05 
   3   6   2    0.22    0.05 
   4   6   2    0.00    0.04 
   4   6   2    0.02    0.03 
   5   6   2    0.06    0.04 
   5   6   2    0.06    0.04 
   6   6   2    5.15    0.19 
   6   6   2    5.42    0.19 
   7   6   2    0.19    0.06 
   7   6   2    0.23    0.06 
   8   6   2    0.26    0.07 
   8   6   2    0.40    0.08 
   9   6   2    1.06    0.12 
   9   6   2    1.31    0.13 
  10   6   2   -0.01    0.06 
  10   6   2   -0.01    0.06 
   7  -7  -2    0.12    0.08 
   6  -7  -2    0.11    0.06 
   5  -7  -2    1.10    0.12 
   4  -7  -2    0.10    0.06 
   3  -7  -2    0.02    0.05 
   2  -7  -2    0.31    0.06 
   1  -7  -2    3.52    0.14 
   0  -7  -2    1.19    0.09 
  -1  -7  -2    0.31    0.06 
   1   7   2    0.36    0.07 
  -2  -7  -2    4.77    0.17 
   2   7   2    4.68    0.17 
  -3  -7  -2    0.04    0.04 
   3   7   2   -0.02    0.04 
  -4  -7  -2    2.10    0.12 
   4   7   2    2.24    0.13 
   5   7   2   -0.01    0.04 
   5   7   2   -0.03    0.04 
   6   7   2    0.43    0.07 
   6   7   2    0.45    0.08 
   7   7   2    0.41    0.08 
   7   7   2    0.35    0.08 
   8   7   2   -0.07    0.05 
   8   7   2    0.05    0.06 
   9   7   2    0.27    0.08 
   9   7   2    0.13    0.07 
   6  -8  -2    0.10    0.07 
   5  -8  -2    0.19    0.08 
   4  -8  -2   -0.03    0.05 
   3  -8  -2    0.05    0.05 
   2  -8  -2    0.05    0.05 
   1  -8  -2    0.02    0.04 
   0  -8  -2    0.47    0.07 
  -1  -8  -2    0.75    0.09 
   1   8   2    0.39    0.08 
  -2  -8  -2    4.09    0.17 
   2   8   2    4.17    0.18 
  -3  -8  -2    2.89    0.15 
   3   8   2    2.84    0.16 
  -4  -8  -2    0.05    0.06 
   4   8   2    0.08    0.06 
  -5  -8  -2    0.09    0.06 
   5   8   2   -0.02    0.05 
   6   8   2    2.54    0.16 
   6   8   2    2.45    0.15 
   7   8   2    0.82    0.11 
   7   8   2    1.16    0.12 
   8   8   2    0.17    0.07 
   8   8   2    0.14    0.07 
   9   8   2    0.06    0.07 
   9   8   2    0.05    0.06 
   5  -9  -2    0.37    0.10 
   4  -9  -2    0.00    0.06 
   3  -9  -2    0.50    0.10 
   2  -9  -2    0.36    0.08 
   1  -9  -2    2.53    0.15 
   0  -9  -2    1.09    0.11 
  -1  -9  -2    0.10    0.06 
  -2  -9  -2    0.02    0.06 
   2   9   2    0.07    0.06 
  -3  -9  -2    0.68    0.10 
   3   9   2    0.43    0.09 
  -4  -9  -2    0.84    0.11 
   4   9   2    0.82    0.11 
  -5  -9  -2    0.82    0.11 
   5   9   2    0.51    0.09 
  -6  -9  -2    0.03    0.06 
   6   9   2   -0.04    0.06 
  -7  -9  -2    0.40    0.10 
   7   9   2    0.29    0.09 
   3 -10  -2    0.16    0.08 
   2 -10  -2    0.57    0.11 
   1 -10  -2    0.06    0.07 
   0 -10  -2    0.33    0.08 
  -1 -10  -2    0.23    0.07 
  -2 -10  -2    0.50    0.10 
   2  10   2    0.53    0.10 
  -3 -10  -2    0.28    0.08 
   3  10   2    0.11    0.07 
  -4 -10  -2    0.01    0.06 
   4  10   2    0.03    0.07 
  -5 -10  -2    0.13    0.08 
   5  10   2   -0.03    0.07 
  -6 -10  -2    0.20    0.08 
   6  10   2    0.10    0.08 
   0 -11  -2    0.25    0.08 
  -1 -11  -2    0.00    0.07 
  -2 -11  -2    0.05    0.07 
  -3 -11  -2    0.21    0.08 
   3  11   2    0.25    0.09 
   1   9  -3    0.19    0.08 
   0   9  -3    0.99    0.13 
   5   8  -3    0.73    0.12 
   4   8  -3    0.00    0.06 
   3   8  -3    0.00    0.07 
   2   8  -3   -0.02    0.06 
   1   8  -3    0.90    0.12 
   0   8  -3    0.04    0.06 
   1  -8   3    0.37    0.10 
  -2   8  -3    0.14    0.08 
   2  -8   3    0.19    0.07 
  -3   8  -3    0.07    0.08 
   3  -8   3    0.14    0.07 
   4  -8   3    0.17    0.08 
   6   7  -3    0.07    0.07 
   5   7  -3    0.16    0.08 
   4   7  -3    0.20    0.08 
   3   7  -3    0.45    0.09 
   2   7  -3    0.48    0.09 
   1   7  -3    0.03    0.06 
  -1  -7   3    0.11    0.05 
   0   7  -3    0.24    0.07 
   0   7  -3    0.26    0.07 
  -1   7  -3    0.49    0.09 
   1  -7   3    0.59    0.10 
  -2   7  -3   -0.02    0.07 
   2  -7   3    0.07    0.06 
  -3   7  -3    0.10    0.08 
   3  -7   3    0.16    0.07 
  -4   7  -3    0.49    0.11 
   4  -7   3    0.44    0.09 
   5  -7   3   -0.04    0.06 
   6  -7   3    0.17    0.08 
   7   6  -3    0.13    0.08 
   6   6  -3    0.08    0.07 
   5   6  -3    2.12    0.15 
   4   6  -3    0.19    0.07 
   3   6  -3    1.18    0.12 
   2   6  -3    4.12    0.18 
   2   6  -3    4.25    0.17 
   1   6  -3    5.97    0.21 
   1   6  -3    6.39    0.21 
  -1  -6   3    6.34    0.19 
   0   6  -3    0.03    0.05 
   0  -6   3   -0.05    0.04 
  -1   6  -3    1.45    0.12 
  -2   6  -3    1.42    0.14 
   2  -6   3    1.59    0.12 
  -3   6  -3    2.71    0.17 
   3  -6   3    2.94    0.16 
  -4   6  -3    0.25    0.09 
   4  -6   3    0.20    0.07 
  -5   6  -3   -0.04    0.06 
   5  -6   3   -0.05    0.05 
   6  -6   3    0.12    0.07 
   7  -6   3    0.11    0.07 
   8   5  -3   -0.02    0.07 
   7   5  -3    0.68    0.11 
   6   5  -3    0.02    0.06 
   5   5  -3    1.36    0.13 
   4   5  -3    0.73    0.09 
   3   5  -3    1.70    0.12 
   3   5  -3    1.79    0.10 
   2   5  -3    4.61    0.16 
   2   5  -3    4.75    0.18 
  -2  -5   3    4.56    0.14 
   1   5  -3    0.00    0.04 
   1   5  -3   -0.03    0.04 
  -1  -5   3   -0.03    0.03 
   0   5  -3   -0.06    0.03 
   0  -5   3    0.00    0.03 
  -1   5  -3    0.00    0.04 
  -2   5  -3    0.09    0.05 
   2  -5   3    0.15    0.05 
  -3   5  -3    1.52    0.13 
   3  -5   3    1.55    0.11 
  -4   5  -3    6.39    0.24 
   4  -5   3    6.09    0.21 
  -5   5  -3    0.04    0.07 
   5  -5   3    0.00    0.05 
  -6   5  -3    1.51    0.16 
   6  -5   3    1.45    0.14 
   7  -5   3    0.25    0.09 
   8  -5   3    0.08    0.08 
   9   4  -3    0.02    0.06 
   8   4  -3    0.15    0.08 
   7   4  -3    0.14    0.07 
   6   4  -3    3.43    0.17 
   5   4  -3    4.98    0.19 
   4   4  -3    0.31    0.06 
   4   4  -3    0.35    0.07 
   3   4  -3    0.02    0.04 
   3   4  -3    0.02    0.04 
  -3  -4   3    0.06    0.03 
   2   4  -3    0.41    0.06 
   2   4  -3    0.49    0.07 
  -2  -4   3    0.46    0.05 
   1   4  -3    0.06    0.04 
  -1  -4   3    0.09    0.03 
   0   4  -3    6.73    0.19 
   0   4  -3    6.95    0.20 
   0  -4   3    6.94    0.17 
  -1   4  -3   -0.01    0.04 
  -2   4  -3    1.91    0.12 
  -2   4  -3    1.68    0.11 
   2  -4   3    1.75    0.09 
  -3   4  -3    2.70    0.14 
  -3   4  -3    2.63    0.10 
   3  -4   3    2.56    0.12 
  -4   4  -3    1.14    0.11 
   4  -4   3    1.24    0.09 
  -5   4  -3    3.64    0.19 
   5  -4   3    4.13    0.17 
  -6   4  -3    7.14    0.27 
   6  -4   3    6.82    0.24 
   7  -4   3    0.07    0.07 
   8  -4   3   -0.06    0.06 
   9  -4   3   -0.01    0.07 
   9   3  -3    0.16    0.08 
   8   3  -3   -0.02    0.06 
   7   3  -3    0.09    0.06 
   6   3  -3    0.15    0.06 
   5   3  -3    0.00    0.04 
   4   3  -3    3.72    0.16 
   3   3  -3    1.33    0.09 
  -3  -3   3    1.45    0.06 
   2   3  -3    0.66    0.07 
   2   3  -3    0.65    0.06 
  -2  -3   3    0.64    0.04 
   1   3  -3   11.35    0.26 
  -1  -3   3   11.59    0.23 
   0   3  -3    1.87    0.09 
   0   3  -3    1.86    0.09 
   0  -3   3    1.85    0.07 
  -1   3  -3   21.11    0.44 
  -1   3  -3   20.21    0.42 
   1  -3   3   19.89    0.38 
  -2   3  -3   16.09    0.36 
  -2   3  -3   16.12    0.31 
   2  -3   3   16.27    0.33 
  -3   3  -3    1.77    0.11 
  -3   3  -3    1.86    0.07 
   3  -3   3    1.92    0.10 
  -4   3  -3   -0.02    0.04 
   4  -3   3    0.06    0.04 
  -5   3  -3    3.73    0.17 
   5  -3   3    4.28    0.16 
  -6   3  -3   28.84    0.62 
   6  -3   3   27.91    0.58 
   7  -3   3    1.70    0.13 
   8  -3   3    0.57    0.09 
   9  -3   3    0.01    0.06 
  10  -3   3    0.58    0.11 
  10   2  -3    0.22    0.08 
   9   2  -3   -0.02    0.06 
   8   2  -3    1.73    0.15 
   7   2  -3    0.51    0.09 
   6   2  -3    0.80    0.09 
   5   2  -3    0.02    0.04 
   4   2  -3    0.03    0.04 
   3   2  -3    0.05    0.03 
   3   2  -3    0.05    0.02 
   2   2  -3    2.67    0.11 
  -2  -2   3    2.47    0.06 
   1   2  -3   11.50    0.25 
   1   2  -3   11.52    0.25 
  -1  -2   3   11.50    0.21 
   0   2  -3    1.73    0.07 
   0   2  -3    1.78    0.08 
   0  -2   3    1.74    0.06 
  -1   2  -3    0.20    0.04 
   1  -2   3    0.19    0.03 
  -2   2  -3    2.93    0.12 
  -2   2  -3    3.03    0.08 
   2  -2   3    2.99    0.10 
  -3   2  -3    0.01    0.03 
   3  -2   3   -0.02    0.03 
  -4   2  -3    0.15    0.05 
   4  -2   3    0.14    0.04 
  -5   2  -3    2.62    0.13 
   5  -2   3    2.47    0.12 
  -6   2  -3   13.05    0.34 
   6  -2   3   12.02    0.31 
   7  -2   3    0.22    0.07 
   8  -2   3    0.17    0.06 
   9  -2   3    0.39    0.09 
  10  -2   3    0.32    0.09 
  10   1  -3    0.64    0.11 
   9   1  -3    0.34    0.09 
   8   1  -3    0.17    0.07 
   7   1  -3    3.51    0.17 
   6   1  -3    8.69    0.26 
   5   1  -3    2.39    0.12 
   4   1  -3    3.01    0.12 
   3   1  -3   27.70    0.52 
   2   1  -3   21.85    0.42 
   1   1  -3    2.48    0.09 
   0   1  -3    3.42    0.11 
   0   1  -3    3.48    0.10 
   0  -1   3    3.54    0.08 
  -1   1  -3   12.17    0.26 
   1  -1   3   11.94    0.22 
  -2   1  -3    0.13    0.03 
  -2   1  -3    0.13    0.02 
   2  -1   3    0.12    0.03 
  -3   1  -3   10.49    0.25 
   3  -1   3   10.38    0.23 
  -4   1  -3    2.37    0.11 
   4  -1   3    2.54    0.10 
  -5   1  -3    0.90    0.09 
   5  -1   3    0.98    0.08 
  -6   1  -3    0.10    0.05 
   6  -1   3    0.11    0.04 
   7  -1   3    0.21    0.06 
   8  -1   3   -0.01    0.05 
   9  -1   3   -0.03    0.05 
  10  -1   3    0.01    0.07 
  11  -1   3    0.05    0.08 
  10   0  -3    2.72    0.18 
   9   0  -3    0.38    0.09 
   8   0  -3    1.33    0.13 
   7   0  -3    0.67    0.09 
   6   0  -3    1.22    0.10 
   5   0  -3    0.09    0.04 
   4   0  -3    0.80    0.07 
   3   0  -3    0.50    0.06 
   2   0  -3   28.12    0.51 
   1   0  -3   37.13    0.64 
   0   0  -3    3.32    0.09 
  -1   0  -3   22.54    0.42 
  -1   0  -3   22.97    0.38 
   1   0   3   22.92    0.38 
  -2   0  -3   10.44    0.23 
  -2   0  -3   10.60    0.18 
   2   0   3   10.51    0.22 
   3   0   3   12.38    0.25 
   4   0   3    3.48    0.12 
   5   0   3   -0.01    0.03 
   6   0   3    0.05    0.04 
   7   0   3    0.98    0.09 
   8   0   3    0.12    0.05 
   9   0   3    0.23    0.07 
  10   0   3    1.31    0.14 
  11   0   3    0.28    0.09 
  10  -1  -3    1.59    0.15 
   9  -1  -3    0.89    0.10 
   9  -1  -3    0.85    0.11 
   8  -1  -3    1.52    0.10 
   8  -1  -3    1.75    0.13 
   7  -1  -3    0.84    0.09 
   7  -1  -3    0.65    0.07 
   6  -1  -3    1.93    0.11 
   6  -1  -3    1.85    0.12 
   5  -1  -3    1.38    0.09 
   4  -1  -3    0.05    0.03 
   3  -1  -3    3.33    0.11 
   2  -1  -3   21.44    0.40 
   1  -1  -3    0.00    0.01 
   0  -1  -3   12.57    0.24 
   0   1   3   12.93    0.22 
  -1  -1  -3  179.16    2.89 
   1   1   3  179.08    2.87 
  -2  -1  -3    0.77    0.05 
   2   1   3    0.91    0.05 
  -3  -1  -3    0.38    0.04 
   3   1   3    0.34    0.04 
  -4  -1  -3    4.56    0.13 
   4   1   3    4.66    0.13 
   4   1   3    4.56    0.09 
  -5  -1  -3   31.06    0.58 
   5   1   3   31.72    0.58 
   5   1   3   31.36    0.52 
  -6  -1  -3    0.33    0.06 
   6   1   3    0.43    0.06 
   6   1   3    0.37    0.04 
   7   1   3    0.52    0.07 
   7   1   3    0.53    0.05 
   8   1   3    0.81    0.10 
   9   1   3    0.10    0.06 
  10   1   3    0.02    0.06 
  11   1   3    0.11    0.08 
  10  -2  -3    0.53    0.10 
  10  -2  -3    0.50    0.09 
   9  -2  -3    0.11    0.06 
   9  -2  -3    0.09    0.06 
   8  -2  -3    0.00    0.04 
   8  -2  -3    0.05    0.05 
   7  -2  -3   -0.01    0.04 
   7  -2  -3    0.07    0.05 
   6  -2  -3   12.03    0.30 
   6  -2  -3   12.42    0.29 
   5  -2  -3    6.51    0.17 
   5  -2  -3    6.49    0.19 
   4  -2  -3   12.01    0.27 
   4  -2  -3   11.89    0.25 
   3  -2  -3   42.30    0.74 
   3  -2  -3   42.63    0.72 
   2  -2  -3    5.48    0.15 
   2  -2  -3    5.43    0.13 
   1  -2  -3    0.48    0.03 
   0  -2  -3   19.65    0.34 
   1   2   3 1000.00   17.31 
  -2  -2  -3   15.42    0.28 
   2   2   3   15.15    0.29 
  -3  -2  -3    1.44    0.06 
   3   2   3    1.43    0.05 
   3   2   3    1.51    0.07 
  -4  -2  -3    1.18    0.06 
   4   2   3    1.24    0.05 
   4   2   3    1.23    0.07 
  -5  -2  -3    1.72    0.08 
   5   2   3    1.70    0.09 
   5   2   3    1.58    0.06 
   6   2   3    2.99    0.12 
   6   2   3    3.00    0.10 
   7   2   3    0.02    0.03 
   7   2   3    0.02    0.04 
   8   2   3    0.23    0.06 
   9   2   3    0.66    0.09 
  10   2   3    0.29    0.08 
  11   2   3    1.10    0.14 
  10  -3  -3    0.14    0.07 
   9  -3  -3    0.02    0.06 
   9  -3  -3    0.04    0.06 
   8  -3  -3    0.37    0.08 
   8  -3  -3    0.24    0.07 
   7  -3  -3    1.01    0.10 
   7  -3  -3    0.96    0.10 
   6  -3  -3    0.60    0.08 
   6  -3  -3    0.52    0.07 
   5  -3  -3    0.36    0.06 
   5  -3  -3    0.43    0.06 
   4  -3  -3    0.02    0.03 
   4  -3  -3    0.04    0.03 
   3  -3  -3    7.34    0.19 
   3  -3  -3    7.45    0.18 
   2  -3  -3    1.89    0.07 
   1  -3  -3    4.29    0.11 
   0  -3  -3    3.12    0.09 
   1   3   3    0.01    0.02 
   2   3   3    1.21    0.06 
   2   3   3    1.08    0.05 
  -3  -3  -3    0.19    0.02 
   3   3   3    0.13    0.03 
  -4  -3  -3    0.09    0.02 
   4   3   3    0.15    0.03 
   4   3   3    0.11    0.04 
  -5  -3  -3   12.22    0.24 
   5   3   3   11.88    0.27 
   5   3   3   11.77    0.25 
   6   3   3    0.82    0.06 
   6   3   3    1.03    0.09 
   7   3   3    2.05    0.11 
   7   3   3    1.69    0.09 
   8   3   3    4.63    0.18 
   8   3   3    4.64    0.16 
   9   3   3    0.13    0.06 
  10   3   3    0.12    0.06 
  11   3   3    0.03    0.07 
   9  -4  -3    0.44    0.09 
   9  -4  -3    0.35    0.11 
   8  -4  -3    0.48    0.08 
   8  -4  -3    0.51    0.09 
   7  -4  -3    0.19    0.06 
   7  -4  -3    0.17    0.06 
   6  -4  -3    0.07    0.04 
   6  -4  -3    0.01    0.04 
   5  -4  -3    0.67    0.08 
   5  -4  -3    0.71    0.08 
   4  -4  -3    1.73    0.10 
   4  -4  -3    1.85    0.10 
   3  -4  -3    0.55    0.06 
   2  -4  -3   26.39    0.49 
   1  -4  -3    3.53    0.11 
   0  -4  -3    1.57    0.07 
  -1  -4  -3   12.82    0.27 
   2   4   3   17.56    0.34 
   2   4   3   17.54    0.34 
  -3  -4  -3    4.86    0.10 
   3   4   3    4.94    0.14 
   3   4   3    5.05    0.14 
   4   4   3    0.59    0.06 
   4   4   3    0.67    0.06 
   5   4   3    1.19    0.08 
   5   4   3    1.25    0.08 
   6   4   3    0.09    0.04 
   7   4   3   -0.03    0.05 
   7   4   3   -0.06    0.03 
   8   4   3    0.05    0.06 
   8   4   3    0.13    0.05 
   9   4   3    0.24    0.06 
   9   4   3    0.20    0.07 
  10   4   3    0.35    0.08 
  11   4   3    0.20    0.08 
   9  -5  -3   -0.07    0.06 
   8  -5  -3    0.09    0.06 
   8  -5  -3    0.03    0.08 
   7  -5  -3    0.02    0.06 
   7  -5  -3    0.10    0.05 
   6  -5  -3    0.34    0.07 
   6  -5  -3    0.34    0.07 
   5  -5  -3    0.00    0.04 
   5  -5  -3   -0.01    0.04 
   4  -5  -3    2.39    0.12 
   3  -5  -3    0.24    0.05 
   2  -5  -3    1.43    0.09 
   1  -5  -3    2.82    0.11 
   0  -5  -3    0.43    0.05 
  -1  -5  -3    0.04    0.03 
   2   5   3   20.48    0.41 
   2   5   3   20.69    0.40 
   3   5   3    0.33    0.05 
   3   5   3    0.25    0.04 
   4   5   3    3.75    0.14 
   4   5   3    3.66    0.14 
   5   5   3   10.40    0.26 
   5   5   3   10.74    0.26 
   6   5   3    0.60    0.07 
   6   5   3    0.61    0.07 
   7   5   3    0.18    0.06 
   7   5   3    0.08    0.05 
   8   5   3    4.47    0.19 
   8   5   3    4.17    0.18 
   9   5   3    0.28    0.08 
  10   5   3    1.96    0.16 
  11   5   3    0.35    0.09 
   8  -6  -3   -0.04    0.06 
   7  -6  -3    0.00    0.05 
   7  -6  -3   -0.14    0.05 
   6  -6  -3    0.01    0.05 
   6  -6  -3    0.14    0.07 
   5  -6  -3    1.27    0.12 
   4  -6  -3   15.49    0.37 
   3  -6  -3    0.08    0.04 
   2  -6  -3    0.00    0.03 
   1  -6  -3    2.11    0.10 
   0  -6  -3    7.44    0.20 
  -1  -6  -3    0.18    0.04 
  -2  -6  -3    3.32    0.13 
   2   6   3    3.40    0.13 
   3   6   3    1.85    0.10 
   3   6   3    1.71    0.10 
   4   6   3    0.15    0.04 
   4   6   3    0.16    0.04 
   5   6   3    0.94    0.09 
   5   6   3    1.04    0.10 
   6   6   3    0.19    0.05 
   6   6   3    0.26    0.06 
   7   6   3    0.67    0.09 
   7   6   3    0.66    0.09 
   8   6   3    0.25    0.07 
   8   6   3    0.18    0.07 
   9   6   3    0.05    0.06 
   9   6   3   -0.01    0.06 
  10   6   3    0.08    0.07 
  10   6   3    0.05    0.06 
   7  -7  -3   -0.04    0.05 
   7  -7  -3    0.14    0.08 
   6  -7  -3    0.64    0.09 
   6  -7  -3    0.59    0.10 
   5  -7  -3   -0.01    0.05 
   4  -7  -3   22.14    0.49 
   3  -7  -3    2.87    0.14 
   2  -7  -3    1.17    0.10 
   1  -7  -3    0.91    0.08 
   0  -7  -3    0.35    0.06 
  -1  -7  -3    5.21    0.18 
  -2  -7  -3    0.07    0.04 
   2   7   3    0.13    0.05 
  -3  -7  -3    0.05    0.04 
   3   7   3    0.00    0.04 
   4   7   3    0.19    0.05 
   4   7   3    0.21    0.05 
   5   7   3    0.18    0.06 
   5   7   3    0.25    0.06 
   6   7   3    1.04    0.11 
   6   7   3    1.15    0.11 
   7   7   3    0.47    0.08 
   7   7   3    0.56    0.09 
   8   7   3    0.34    0.08 
   8   7   3    0.42    0.08 
   9   7   3    0.06    0.06 
   9   7   3    0.00    0.06 
  10   7   3    0.03    0.07 
  10   7   3    0.14    0.08 
   6  -8  -3    0.00    0.06 
   5  -8  -3    0.07    0.07 
   4  -8  -3    0.17    0.07 
   3  -8  -3    0.59    0.09 
   2  -8  -3    0.06    0.05 
   1  -8  -3    0.10    0.05 
   0  -8  -3    1.05    0.10 
  -1  -8  -3    0.08    0.05 
  -2  -8  -3   -0.02    0.04 
   2   8   3   -0.03    0.04 
  -3  -8  -3    5.11    0.19 
   3   8   3    5.17    0.20 
  -4  -8  -3    2.06    0.13 
   4   8   3    1.88    0.13 
   5   8   3    0.04    0.05 
   5   8   3    0.03    0.05 
   6   8   3   -0.08    0.05 
   6   8   3   -0.01    0.05 
   7   8   3    2.73    0.16 
   7   8   3    2.36    0.16 
   8   8   3    0.81    0.11 
   8   8   3    0.94    0.12 
   9   8   3    0.02    0.06 
   9   8   3    0.07    0.07 
   5  -9  -3    0.01    0.07 
   4  -9  -3    0.01    0.06 
   3  -9  -3   -0.04    0.05 
   2  -9  -3    0.41    0.08 
   1  -9  -3    0.00    0.05 
   0  -9  -3    0.15    0.06 
  -1  -9  -3    0.02    0.05 
  -2  -9  -3    0.03    0.05 
   2   9   3    0.00    0.06 
  -3  -9  -3    0.23    0.07 
   3   9   3    0.24    0.08 
  -4  -9  -3    0.05    0.06 
   4   9   3    0.13    0.07 
  -5  -9  -3   -0.05    0.05 
   5   9   3    0.06    0.06 
  -6  -9  -3    0.01    0.06 
   6   9   3    0.17    0.07 
   7   9   3    0.15    0.08 
   7   9   3    0.34    0.09 
   8   9   3   -0.05    0.06 
   8   9   3    0.07    0.07 
   4 -10  -3    0.02    0.06 
   3 -10  -3    0.17    0.08 
   2 -10  -3    0.19    0.08 
   1 -10  -3    0.41    0.09 
   0 -10  -3    0.39    0.08 
  -1 -10  -3   -0.01    0.06 
  -2 -10  -3   -0.09    0.05 
  -3 -10  -3    1.42    0.13 
   3  10   3    1.55    0.14 
  -4 -10  -3   -0.06    0.06 
   4  10   3    0.01    0.07 
  -5 -10  -3    0.05    0.07 
   5  10   3    0.13    0.07 
  -6 -10  -3   -0.04    0.06 
   6  10   3   -0.03    0.07 
   1 -11  -3    0.17    0.07 
   0 -11  -3    0.47    0.10 
  -1 -11  -3   -0.03    0.06 
  -2 -11  -3    0.00    0.06 
  -3 -11  -3   -0.04    0.06 
  -4 -11  -3   -0.02    0.06 
   4  11   3   -0.04    0.07 
   3   8  -4    0.04    0.07 
   2   8  -4    0.08    0.07 
   1   8  -4    0.06    0.07 
   0   8  -4   -0.08    0.06 
  -2   8  -4    0.15    0.09 
  -3   8  -4    0.02    0.09 
   5   7  -4    0.38    0.10 
   4   7  -4    1.09    0.14 
   3   7  -4    0.19    0.08 
   2   7  -4    0.19    0.07 
   1   7  -4    0.07    0.06 
   0   7  -4    0.28    0.08 
  -1   7  -4    0.10    0.07 
  -2   7  -4   -0.01    0.07 
  -3   7  -4    0.03    0.08 
   3  -7   4    0.12    0.07 
  -4   7  -4    0.09    0.08 
   4  -7   4   -0.06    0.06 
  -5   7  -4   -0.03    0.08 
   5  -7   4    0.02    0.07 
   6   6  -4    0.00    0.07 
   5   6  -4    0.39    0.09 
   4   6  -4    0.00    0.06 
   3   6  -4    0.09    0.07 
   2   6  -4    0.76    0.14 
   2   6  -4    0.72    0.10 
   1   6  -4    1.05    0.11 
   1   6  -4    1.08    0.11 
   0   6  -4    0.63    0.10 
   0  -6   4    0.81    0.09 
  -1   6  -4    1.57    0.14 
   1  -6   4    1.42    0.10 
  -2   6  -4    3.66    0.19 
  -3   6  -4    1.87    0.17 
   3  -6   4    1.50    0.13 
  -4   6  -4   -0.04    0.07 
   4  -6   4   -0.03    0.06 
  -5   6  -4    0.25    0.09 
   5  -6   4    0.15    0.08 
  -6   6  -4    0.17    0.10 
   6  -6   4    0.18    0.07 
   7  -6   4    0.05    0.08 
   7   5  -4    0.08    0.07 
   6   5  -4    0.08    0.06 
   5   5  -4    0.02    0.06 
   4   5  -4    2.37    0.15 
   3   5  -4    3.80    0.16 
   3   5  -4    3.61    0.17 
   2   5  -4    2.17    0.13 
   2   5  -4    1.76    0.12 
   1   5  -4   -0.06    0.06 
   0   5  -4    0.12    0.05 
   0   5  -4    0.05    0.06 
   0  -5   4    0.08    0.05 
  -1   5  -4    0.14    0.06 
   1  -5   4    0.19    0.05 
  -2   5  -4    0.71    0.10 
  -2   5  -4    0.88    0.09 
  -3   5  -4    0.65    0.10 
   3  -5   4    0.63    0.08 
  -4   5  -4    0.24    0.08 
   4  -5   4    0.28    0.07 
  -5   5  -4    0.04    0.08 
   5  -5   4    0.11    0.06 
  -6   5  -4    0.05    0.08 
   6  -5   4    0.01    0.06 
  -7   5  -4    0.10    0.10 
   7  -5   4    0.28    0.09 
   8  -5   4   -0.02    0.07 
   8   4  -4    0.06    0.07 
   7   4  -4    0.26    0.09 
   6   4  -4    0.35    0.09 
   5   4  -4    3.90    0.19 
   4   4  -4    1.34    0.11 
   4   4  -4    1.20    0.11 
   3   4  -4    2.96    0.15 
   3   4  -4    2.96    0.14 
   2   4  -4    1.66    0.11 
   1   4  -4    5.52    0.24 
   1   4  -4    5.24    0.18 
  -1  -4   4    5.01    0.14 
   0   4  -4    2.59    0.13 
   0   4  -4    2.42    0.11 
   0  -4   4    2.49    0.10 
  -1   4  -4   -0.05    0.03 
   1  -4   4    0.01    0.03 
  -2   4  -4    0.93    0.08 
  -2   4  -4    0.93    0.10 
  -3   4  -4    1.73    0.13 
   3  -4   4    1.98    0.11 
  -4   4  -4    0.27    0.07 
   4  -4   4    0.37    0.07 
  -5   4  -4    1.12    0.13 
   5  -4   4    0.94    0.10 
  -6   4  -4    0.72    0.12 
   6  -4   4    0.90    0.11 
  -7   4  -4    0.32    0.10 
   7  -4   4    0.31    0.08 
   8  -4   4    0.12    0.07 
   9  -4   4    0.41    0.11 
   9   3  -4    0.52    0.12 
   8   3  -4    0.55    0.11 
   7   3  -4    2.17    0.16 
   6   3  -4    0.55    0.09 
   5   3  -4    0.42    0.08 
   4   3  -4    0.48    0.08 
   3   3  -4    2.02    0.12 
   2   3  -4    0.08    0.04 
  -2  -3   4    0.17    0.03 
   1   3  -4    8.24    0.22 
   1   3  -4    7.79    0.22 
  -1  -3   4    8.15    0.17 
   0   3  -4    1.59    0.10 
   0   3  -4    1.71    0.09 
   0  -3   4    1.60    0.07 
  -1   3  -4    0.07    0.04 
   1  -3   4    0.04    0.03 
  -2   3  -4    0.04    0.03 
  -2   3  -4    0.00    0.04 
   2  -3   4    0.02    0.03 
  -3   3  -4    6.66    0.22 
  -3   3  -4    6.93    0.16 
   3  -3   4    7.06    0.19 
  -4   3  -4    0.18    0.06 
   4  -3   4    0.10    0.05 
  -5   3  -4    2.15    0.14 
   5  -3   4    1.95    0.12 
  -6   3  -4    7.38    0.27 
   6  -3   4    7.71    0.25 
  -7   3  -4    0.96    0.13 
   7  -3   4    0.84    0.11 
   8  -3   4    0.04    0.07 
   9  -3   4    0.53    0.11 
   9   2  -4    0.91    0.13 
   8   2  -4    2.36    0.17 
   7   2  -4   -0.03    0.06 
   6   2  -4    0.07    0.06 
   5   2  -4    0.97    0.10 
   4   2  -4   15.36    0.37 
   3   2  -4    0.93    0.09 
   2   2  -4    3.74    0.14 
   1   2  -4    0.05    0.04 
   1   2  -4    0.02    0.03 
  -1  -2   4    0.05    0.02 
   0   2  -4    0.69    0.07 
   0   2  -4    0.53    0.05 
   0  -2   4    0.57    0.04 
  -1   2  -4    7.95    0.22 
  -1   2  -4    8.33    0.22 
   1  -2   4    8.25    0.18 
  -2   2  -4    0.02    0.04 
  -2   2  -4    0.04    0.02 
   2  -2   4    0.02    0.03 
  -3   2  -4    3.06    0.08 
  -3   2  -4    2.96    0.14 
   3  -2   4    3.18    0.12 
  -4   2  -4    0.53    0.08 
   4  -2   4    0.46    0.06 
  -5   2  -4    5.00    0.19 
   5  -2   4    4.58    0.17 
  -6   2  -4    8.35    0.27 
   6  -2   4    8.84    0.26 
  -7   2  -4    0.53    0.10 
   8  -2   4    0.78    0.11 
   9  -2   4    0.01    0.06 
  10  -2   4   -0.01    0.07 
   9   1  -4    0.09    0.07 
   8   1  -4    0.92    0.12 
   7   1  -4    4.52    0.20 
   6   1  -4    6.94    0.24 
   5   1  -4    0.63    0.08 
   4   1  -4    0.09    0.02 
   4   1  -4    0.07    0.04 
   3   1  -4   30.00    0.58 
   2   1  -4   26.83    0.51 
   1   1  -4    0.01    0.03 
   0   1  -4   17.68    0.34 
   0   1  -4   17.06    0.36 
   0  -1   4   17.26    0.30 
  -1   1  -4   10.21    0.25 
   1  -1   4   10.53    0.20 
  -2   1  -4   37.93    0.70 
  -2   1  -4   39.20    0.64 
   2  -1   4   39.06    0.66 
  -3   1  -4    9.84    0.17 
  -3   1  -4    9.98    0.25 
   3  -1   4    9.94    0.22 
  -4   1  -4    0.27    0.05 
   4  -1   4    0.38    0.05 
  -5   1  -4    0.54    0.08 
   5  -1   4    0.44    0.06 
  -6   1  -4    0.51    0.08 
   6  -1   4    0.41    0.06 
  -7   1  -4    0.00    0.05 
   7  -1   4   -0.05    0.05 
  -8   1  -4    1.34    0.14 
   8  -1   4    1.47    0.13 
   9  -1   4   -0.03    0.05 
  10  -1   4   -0.08    0.05 
  10   0  -4   -0.09    0.06 
   9   0  -4    1.94    0.17 
   8   0  -4    0.57    0.10 
   7   0  -4    0.21    0.07 
   6   0  -4    0.07    0.05 
   5   0  -4    1.37    0.10 
   4   0  -4    1.59    0.06 
   4   0  -4    1.59    0.10 
   3   0  -4    0.75    0.03 
   3   0  -4    0.77    0.07 
   2   0  -4    6.57    0.18 
   1   0  -4    0.03    0.03 
   0   0  -4    1.90    0.07 
   0   0   4    1.81    0.05 
  -1   0  -4    7.19    0.18 
   1   0   4    7.18    0.14 
  -2   0  -4    2.57    0.10 
  -2   0  -4    2.65    0.07 
   2   0   4    2.62    0.08 
  -3   0  -4    0.02    0.05 
   3   0   4    0.00    0.02 
   4   0   4    4.50    0.14 
   5   0   4    0.36    0.05 
   6   0   4   -0.02    0.03 
   7   0   4    1.77    0.11 
   8   0   4    0.04    0.05 
   9   0   4    2.94    0.17 
  10   0   4    0.60    0.11 
  11   0   4    0.04    0.08 
  10  -1  -4    0.52    0.11 
   9  -1  -4    0.16    0.07 
   8  -1  -4    0.01    0.05 
   7  -1  -4    1.57    0.13 
   6  -1  -4    0.38    0.07 
   5  -1  -4    0.77    0.09 
   4  -1  -4    0.83    0.08 
   3  -1  -4   17.56    0.37 
   2  -1  -4    7.02    0.18 
   1  -1  -4    0.98    0.06 
   0  -1  -4   24.68    0.44 
   0   1   4   25.31    0.41 
   1   1   4    1.93    0.06 
  -2  -1  -4    5.90    0.12 
  -3  -1  -4    0.03    0.01 
   3   1   4    0.00    0.02 
   4   1   4    0.14    0.04 
  -5  -1  -4    0.08    0.03 
   5   1   4    0.00    0.03 
  -6  -1  -4    1.16    0.09 
   6   1   4    1.12    0.09 
  -7  -1  -4    1.97    0.12 
   7   1   4    1.88    0.11 
   8   1   4    0.33    0.07 
   9   1   4    0.10    0.06 
  10   1   4    0.00    0.06 
  11   1   4    0.21    0.09 
   9  -2  -4    0.03    0.06 
   8  -2  -4    0.06    0.06 
   7  -2  -4    1.12    0.11 
   6  -2  -4    0.62    0.08 
   5  -2  -4    0.10    0.04 
   4  -2  -4    0.44    0.06 
   3  -2  -4    2.53    0.11 
   2  -2  -4   16.32    0.33 
   1  -2  -4    0.41    0.04 
   0   2   4   -0.01    0.01 
  -2  -2  -4   23.25    0.42 
   2   2   4   22.94    0.41 
  -3  -2  -4    0.06    0.03 
   3   2   4    0.10    0.03 
  -4  -2  -4    8.49    0.20 
   4   2   4    8.29    0.20 
  -5  -2  -4   12.05    0.26 
   5   2   4   11.59    0.27 
   5   2   4   11.72    0.22 
  -6  -2  -4   12.81    0.29 
   6   2   4   12.81    0.30 
   6   2   4   13.05    0.25 
  -7  -2  -4    0.41    0.06 
   7   2   4    0.47    0.07 
   8   2   4    0.03    0.05 
   9   2   4    1.67    0.13 
  10   2   4   -0.03    0.06 
  11   2   4   -0.03    0.07 
   9  -3  -4    0.68    0.10 
   9  -3  -4    0.43    0.09 
   8  -3  -4    0.58    0.09 
   8  -3  -4    0.46    0.09 
   7  -3  -4    5.49    0.21 
   7  -3  -4    5.61    0.19 
   6  -3  -4    2.39    0.12 
   6  -3  -4    2.26    0.13 
   5  -3  -4    0.36    0.06 
   5  -3  -4    0.30    0.05 
   4  -3  -4    5.14    0.15 
   4  -3  -4    5.11    0.17 
   3  -3  -4    6.19    0.18 
   3  -3  -4    6.10    0.16 
   2  -3  -4   22.70    0.42 
   2  -3  -4   23.52    0.45 
   1  -3  -4    5.02    0.13 
   0  -3  -4    0.56    0.04 
   1   3   4    8.04    0.18 
   2   3   4    1.47    0.07 
  -3  -3  -4    0.26    0.03 
   3   3   4    0.29    0.04 
  -4  -3  -4    0.47    0.05 
   4   3   4    0.52    0.06 
   4   3   4    0.41    0.04 
  -5  -3  -4    1.13    0.06 
   5   3   4    1.16    0.08 
   5   3   4    1.23    0.06 
  -6  -3  -4    2.36    0.10 
   6   3   4    2.01    0.11 
   6   3   4    2.07    0.09 
   7   3   4    3.11    0.14 
   7   3   4    3.19    0.11 
   8   3   4    1.31    0.12 
   9   3   4    2.61    0.15 
  10   3   4    0.44    0.09 
  11   3   4    0.07    0.07 
   9  -4  -4    0.03    0.06 
   9  -4  -4   -0.05    0.06 
   8  -4  -4    0.61    0.09 
   8  -4  -4    0.60    0.10 
   7  -4  -4    0.53    0.08 
   7  -4  -4    0.63    0.09 
   6  -4  -4    0.09    0.05 
   6  -4  -4    0.12    0.05 
   5  -4  -4   -0.01    0.03 
   5  -4  -4    0.03    0.04 
   4  -4  -4    1.34    0.08 
   4  -4  -4    1.37    0.09 
   3  -4  -4    6.17    0.17 
   2  -4  -4    7.72    0.19 
   1  -4  -4    3.68    0.12 
   0  -4  -4    9.93    0.22 
   1   4   4    0.06    0.03 
   2   4   4    4.80    0.14 
  -3  -4  -4   26.34    0.45 
   3   4   4   25.06    0.48 
  -4  -4  -4    0.86    0.05 
   4   4   4    0.96    0.08 
  -5  -4  -4    0.56    0.04 
   5   4   4    0.83    0.08 
   5   4   4    0.74    0.06 
  -6  -4  -4    4.76    0.13 
   6   4   4    4.69    0.16 
   6   4   4    5.06    0.15 
   7   4   4    0.92    0.08 
   7   4   4    0.72    0.08 
   8   4   4    3.08    0.13 
   8   4   4    2.95    0.15 
   9   4   4    4.66    0.20 
  10   4   4   -0.02    0.06 
  11   4   4    0.02    0.07 
   9  -5  -4    0.09    0.08 
   9  -5  -4   -0.03    0.06 
   8  -5  -4    0.00    0.06 
   8  -5  -4    0.12    0.07 
   7  -5  -4    0.11    0.06 
   7  -5  -4    0.09    0.06 
   6  -5  -4    0.36    0.07 
   6  -5  -4    0.36    0.07 
   5  -5  -4    1.84    0.12 
   5  -5  -4    1.74    0.11 
   4  -5  -4   -0.01    0.04 
   4  -5  -4    0.02    0.04 
   3  -5  -4    0.65    0.07 
   2  -5  -4    1.22    0.08 
   1  -5  -4    4.90    0.15 
   0  -5  -4    0.94    0.07 
  -1  -5  -4    0.91    0.07 
   2   5   4   24.60    0.47 
   3   5   4   12.89    0.28 
   3   5   4   12.29    0.28 
   4   5   4   14.89    0.32 
   4   5   4   14.72    0.33 
   5   5   4    8.47    0.22 
   5   5   4    8.24    0.23 
   6   5   4    1.23    0.10 
   7   5   4    0.97    0.10 
   8   5   4    3.77    0.16 
   8   5   4    4.39    0.18 
   9   5   4   19.53    0.47 
  10   5   4    0.04    0.06 
  11   5   4    0.00    0.07 
   8  -6  -4    0.02    0.07 
   8  -6  -4    0.04    0.06 
   7  -6  -4    0.45    0.09 
   7  -6  -4    0.42    0.09 
   6  -6  -4    0.26    0.07 
   6  -6  -4    0.24    0.08 
   5  -6  -4    0.44    0.08 
   5  -6  -4    0.39    0.08 
   4  -6  -4    0.17    0.06 
   3  -6  -4    0.73    0.08 
   2  -6  -4    1.12    0.08 
   1  -6  -4    0.25    0.05 
   0  -6  -4    1.16    0.08 
  -1  -6  -4    0.00    0.03 
  -2  -6  -4    0.41    0.06 
   3   6   4    0.04    0.04 
   3   6   4    0.08    0.04 
   4   6   4    0.17    0.05 
   4   6   4    0.15    0.04 
   5   6   4   -0.01    0.04 
   5   6   4    0.00    0.04 
   6   6   4    0.15    0.05 
   6   6   4    0.18    0.05 
   7   6   4   -0.01    0.05 
   7   6   4   -0.02    0.05 
   8   6   4    0.49    0.09 
   8   6   4    0.49    0.08 
   9   6   4    0.06    0.06 
  10   6   4    0.02    0.06 
   7  -7  -4    0.34    0.09 
   7  -7  -4    0.32    0.08 
   6  -7  -4    0.36    0.09 
   6  -7  -4    0.38    0.08 
   5  -7  -4    0.73    0.11 
   4  -7  -4    1.38    0.12 
   3  -7  -4    0.05    0.05 
   2  -7  -4    0.17    0.05 
   1  -7  -4    4.43    0.16 
   0  -7  -4    2.01    0.11 
  -1  -7  -4    1.13    0.09 
  -2  -7  -4    0.01    0.04 
  -3  -7  -4    0.05    0.04 
   3   7   4    0.09    0.05 
   4   7   4    4.59    0.17 
   4   7   4    4.53    0.17 
   5   7   4    0.12    0.05 
   5   7   4    0.23    0.06 
   6   7   4    2.04    0.13 
   6   7   4    2.31    0.14 
   7   7   4    0.20    0.07 
   7   7   4    0.18    0.07 
   8   7   4    0.40    0.08 
   8   7   4    0.41    0.09 
   9   7   4   -0.08    0.05 
   9   7   4   -0.03    0.06 
  10   7   4    0.09    0.08 
   6  -8  -4    0.10    0.07 
   6  -8  -4   -0.07    0.05 
   5  -8  -4    0.05    0.07 
   4  -8  -4    0.40    0.09 
   3  -8  -4    0.44    0.09 
   2  -8  -4   -0.03    0.04 
   1  -8  -4   -0.01    0.04 
   0  -8  -4    0.36    0.07 
  -1  -8  -4    0.12    0.05 
  -2  -8  -4    0.10    0.05 
  -3  -8  -4    0.68    0.09 
   3   8   4    0.55    0.09 
  -4  -8  -4    1.18    0.11 
   4   8   4    1.05    0.11 
   5   8   4    0.02    0.05 
   5   8   4    0.08    0.06 
   6   8   4   -0.01    0.06 
   6   8   4    0.09    0.06 
   7   8   4    0.52    0.09 
   7   8   4    0.55    0.09 
   8   8   4    0.32    0.08 
   8   8   4    0.22    0.07 
   9   8   4    0.05    0.07 
   9   8   4    0.14    0.07 
   5  -9  -4    0.36    0.10 
   4  -9  -4    0.66    0.11 
   3  -9  -4    0.00    0.06 
   2  -9  -4   -0.02    0.05 
   1  -9  -4    0.13    0.06 
   0  -9  -4    0.17    0.06 
  -1  -9  -4    0.05    0.06 
  -2  -9  -4   -0.01    0.05 
  -3  -9  -4    2.29    0.14 
   3   9   4    2.34    0.15 
  -4  -9  -4    5.91    0.23 
   4   9   4    5.94    0.24 
  -5  -9  -4    0.03    0.06 
   5   9   4    0.01    0.05 
   6   9   4    0.06    0.06 
   6   9   4   -0.12    0.05 
   7   9   4    0.07    0.07 
   7   9   4    0.10    0.07 
   8   9   4    0.42    0.09 
   8   9   4    0.48    0.10 
   4 -10  -4    0.06    0.08 
   3 -10  -4    0.09    0.07 
   2 -10  -4   -0.01    0.06 
   1 -10  -4    1.13    0.12 
   0 -10  -4    0.85    0.10 
  -1 -10  -4    0.07    0.06 
  -2 -10  -4    0.02    0.06 
  -3 -10  -4    0.13    0.07 
  -4 -10  -4    8.49    0.29 
   4  10   4    8.91    0.31 
  -5 -10  -4    0.21    0.08 
   5  10   4    0.11    0.07 
  -6 -10  -4   -0.02    0.07 
   6  10   4    0.15    0.07 
  -7 -10  -4    0.02    0.07 
   7  10   4   -0.04    0.07 
   1 -11  -4    0.32    0.09 
   0 -11  -4    0.25    0.08 
  -1 -11  -4    0.01    0.06 
  -2 -11  -4   -0.10    0.06 
  -3 -11  -4    0.16    0.08 
  -4 -11  -4    0.03    0.07 
  -5 -11  -4   -0.02    0.07 
   5  11   4    0.15    0.09 
   3   7  -5    0.31    0.09 
   2   7  -5    0.36    0.09 
   1   7  -5    0.00    0.06 
  -1   7  -5    0.37    0.10 
  -2   7  -5    0.18    0.09 
  -3   7  -5   -0.05    0.07 
  -4   7  -5    0.15    0.09 
   5   6  -5    0.01    0.07 
   4   6  -5    0.71    0.11 
   3   6  -5    1.86    0.16 
   2   6  -5    0.15    0.07 
   1   6  -5    0.85    0.11 
   0   6  -5    0.04    0.07 
  -1   6  -5    0.09    0.06 
  -2   6  -5    0.34    0.10 
  -3   6  -5    0.22    0.09 
  -4   6  -5    0.09    0.09 
   4  -6   5    0.27    0.08 
  -5   6  -5    0.15    0.09 
   5  -6   5    0.19    0.08 
  -6   6  -5    0.20    0.10 
   6  -6   5    0.21    0.09 
   6   5  -5   -0.01    0.07 
   5   5  -5    0.08    0.07 
   4   5  -5    0.55    0.10 
   3   5  -5    0.09    0.06 
   3   5  -5    0.07    0.06 
   2   5  -5    0.67    0.09 
   1   5  -5    6.74    0.27 
   1   5  -5    6.50    0.23 
   0   5  -5    0.09    0.06 
  -1   5  -5    0.00    0.06 
  -2   5  -5    0.19    0.08 
  -2   5  -5    0.19    0.06 
   2  -5   5    0.20    0.06 
  -3   5  -5    0.15    0.08 
  -4   5  -5   -0.03    0.07 
   4  -5   5    0.11    0.06 
  -5   5  -5    0.00    0.08 
   5  -5   5    0.05    0.06 
  -6   5  -5   -0.06    0.08 
   6  -5   5   -0.04    0.06 
  -7   5  -5    0.23    0.11 
   7  -5   5    0.06    0.08 
   7   4  -5    0.11    0.08 
   6   4  -5    0.42    0.09 
   5   4  -5    2.84    0.17 
   4   4  -5    2.02    0.14 
   4   4  -5    2.13    0.14 
   3   4  -5    0.07    0.10 
   3   4  -5    0.03    0.05 
   2   4  -5    3.47    0.16 
   1   4  -5   33.31    0.65 
   1   4  -5   32.81    0.66 
   0   4  -5    6.74    0.23 
  -1   4  -5    0.22    0.06 
   1  -4   5    0.26    0.05 
  -2   4  -5    0.08    0.06 
  -2   4  -5    0.02    0.04 
   2  -4   5    0.00    0.04 
  -3   4  -5    0.87    0.11 
  -4   4  -5    0.54    0.10 
   4  -4   5    0.54    0.08 
  -5   4  -5    0.06    0.07 
   5  -4   5    0.05    0.06 
  -6   4  -5    0.26    0.10 
   6  -4   5    0.18    0.07 
  -7   4  -5    0.00    0.08 
   7  -4   5   -0.03    0.06 
  -8   4  -5    0.20    0.10 
   8  -4   5    0.32    0.09 
   8   3  -5    0.06    0.08 
   7   3  -5    0.75    0.12 
   6   3  -5   -0.05    0.05 
   5   3  -5    0.52    0.09 
   4   3  -5    0.44    0.08 
   3   3  -5    0.27    0.07 
   3   3  -5    0.21    0.10 
   2   3  -5    3.09    0.14 
   2   3  -5    2.65    0.13 
   1   3  -5    6.51    0.21 
   1   3  -5    6.52    0.20 
   0   3  -5   -0.03    0.04 
   0  -3   5   -0.02    0.02 
  -1   3  -5    0.17    0.06 
   1  -3   5    0.18    0.04 
  -2   3  -5    0.71    0.07 
  -2   3  -5    0.82    0.09 
   2  -3   5    0.65    0.06 
  -3   3  -5    3.46    0.17 
  -4   3  -5    0.08    0.06 
   4  -3   5    0.09    0.05 
  -5   3  -5    3.25    0.18 
   5  -3   5    2.94    0.15 
  -6   3  -5    0.35    0.09 
   6  -3   5    0.13    0.06 
  -7   3  -5    0.20    0.09 
   7  -3   5    0.19    0.07 
  -8   3  -5    0.05    0.08 
   8  -3   5    0.04    0.06 
   9  -3   5    0.46    0.11 
   8   2  -5    0.33    0.09 
   7   2  -5    0.20    0.08 
   6   2  -5    1.15    0.13 
   5   2  -5    0.04    0.05 
   4   2  -5    6.24    0.22 
   3   2  -5    6.67    0.22 
   2   2  -5    2.97    0.13 
   1   2  -5    0.10    0.04 
   1   2  -5    0.04    0.04 
   0   2  -5    4.14    0.16 
   0  -2   5    4.23    0.10 
  -1   2  -5    0.09    0.04 
   1  -2   5    0.05    0.03 
  -2   2  -5    0.05    0.04 
  -2   2  -5   -0.02    0.02 
   2  -2   5    0.04    0.03 
  -3   2  -5    0.80    0.09 
  -3   2  -5    0.84    0.05 
  -4   2  -5    0.16    0.06 
   4  -2   5    0.14    0.05 
  -5   2  -5    2.47    0.15 
   5  -2   5    2.23    0.12 
  -6   2  -5    2.79    0.17 
   6  -2   5    2.91    0.15 
  -7   2  -5    0.08    0.07 
   7  -2   5   -0.05    0.05 
  -8   2  -5    0.18    0.09 
   8  -2   5    0.19    0.07 
   9  -2   5    0.00    0.07 
  10  -2   5    0.39    0.10 
   9   1  -5    1.25    0.15 
   8   1  -5    1.62    0.16 
   7   1  -5    0.03    0.06 
   6   1  -5   -0.11    0.04 
   5   1  -5    0.05    0.05 
   4   1  -5    1.33    0.11 
   3   1  -5    0.12    0.05 
   2   1  -5   -0.02    0.03 
   1   1  -5    0.17    0.04 
   0   1  -5    2.83    0.10 
   0   1  -5    2.80    0.12 
   0  -1   5    2.79    0.07 
  -1   1  -5    2.68    0.12 
  -1   1  -5    2.56    0.09 
   1  -1   5    2.63    0.08 
  -2   1  -5    0.11    0.03 
  -2   1  -5    0.06    0.04 
   2  -1   5    0.10    0.03 
  -3   1  -5   10.13    0.19 
  -3   1  -5    9.72    0.27 
  -4   1  -5    5.39    0.19 
   4  -1   5    5.22    0.16 
  -5   1  -5    3.46    0.16 
   5  -1   5    3.69    0.14 
  -6   1  -5    2.78    0.15 
   6  -1   5    2.68    0.14 
  -7   1  -5    2.99    0.17 
   7  -1   5    2.97    0.16 
   8  -1   5    0.85    0.11 
   9  -1   5    0.18    0.08 
  10  -1   5   -0.02    0.07 
   9   0  -5   -0.01    0.07 
   8   0  -5    0.01    0.06 
   7   0  -5    0.24    0.08 
   6   0  -5   23.25    0.52 
   5   0  -5    0.65    0.09 
   4   0  -5    0.72    0.08 
   3   0  -5    0.15    0.05 
   2   0  -5   12.24    0.28 
   1   0  -5    2.06    0.09 
   0   0  -5    1.85    0.08 
  -1   0  -5    3.64    0.14 
   1   0   5    4.00    0.10 
  -2   0  -5    2.19    0.11 
  -2   0  -5    2.14    0.07 
   2   0   5    2.09    0.08 
  -3   0  -5    0.35    0.02 
  -3   0  -5    0.41    0.06 
  -4   0  -5    0.33    0.06 
   4   0   5    0.31    0.05 
  -5   0  -5    5.10    0.18 
   5   0   5    5.04    0.17 
   6   0   5    0.95    0.09 
   7   0   5    4.83    0.19 
   8   0   5    0.42    0.08 
   9   0   5    0.02    0.06 
  10   0   5    0.02    0.07 
  11   0   5    0.08    0.08 
   9  -1  -5    0.39    0.10 
   8  -1  -5    0.24    0.08 
   7  -1  -5    0.59    0.09 
   6  -1  -5   36.58    0.73 
   5  -1  -5    8.18    0.25 
   4  -1  -5    0.23    0.05 
   3  -1  -5    1.79    0.06 
   3  -1  -5    1.85    0.10 
   2  -1  -5    1.25    0.08 
   1  -1  -5    7.56    0.19 
   0  -1  -5    5.70    0.15 
   0   1   5    5.61    0.11 
   1   1   5    1.18    0.05 
  -2  -1  -5    1.02    0.05 
   2   1   5    1.22    0.06 
  -3  -1  -5   10.10    0.19 
   3   1   5    9.75    0.22 
   4   1   5   20.85    0.41 
   5   1   5    2.48    0.11 
   6   1   5    1.04    0.09 
   7   1   5   -0.07    0.04 
   8   1   5    0.05    0.06 
   9   1   5    0.35    0.08 
  10   1   5    0.11    0.07 
  11   1   5   -0.02    0.08 
   9  -2  -5    0.08    0.07 
   8  -2  -5    0.52    0.10 
   7  -2  -5   -0.03    0.05 
   6  -2  -5   -0.04    0.04 
   5  -2  -5    2.23    0.12 
   4  -2  -5    0.27    0.06 
   3  -2  -5    0.29    0.05 
   2  -2  -5    8.84    0.22 
   1  -2  -5    4.56    0.14 
   0  -2  -5    1.18    0.06 
   0   2   5    1.16    0.05 
  -1  -2  -5   30.17    0.58 
   1   2   5   31.86    0.53 
  -3  -2  -5    0.04    0.03 
   3   2   5    0.08    0.03 
  -4  -2  -5   -0.01    0.02 
   4   2   5   -0.01    0.03 
  -5  -2  -5   24.38    0.48 
   5   2   5   24.05    0.48 
  -6  -2  -5    5.94    0.18 
   6   2   5    5.78    0.19 
  -7  -2  -5    0.07    0.04 
   7   2   5    0.06    0.04 
  -8  -2  -5    1.51    0.12 
   8   2   5    1.61    0.12 
   9   2   5    0.34    0.09 
  10   2   5    1.78    0.16 
  11   2   5   -0.02    0.07 
   9  -3  -5    0.84    0.12 
   8  -3  -5    0.09    0.06 
   7  -3  -5   -0.03    0.05 
   6  -3  -5    0.53    0.08 
   5  -3  -5    3.42    0.16 
   4  -3  -5    0.40    0.06 
   3  -3  -5    0.46    0.06 
   2  -3  -5    2.33    0.11 
   1  -3  -5    6.32    0.18 
   0  -3  -5    3.93    0.11 
   1   3   5    0.00    0.01 
   2   3   5    0.94    0.06 
  -3  -3  -5    3.74    0.12 
   3   3   5    3.73    0.12 
  -4  -3  -5    2.33    0.10 
   4   3   5    2.43    0.10 
  -5  -3  -5    0.17    0.04 
   5   3   5    0.23    0.05 
  -6  -3  -5    1.40    0.08 
   6   3   5    1.26    0.06 
   6   3   5    1.20    0.09 
  -7  -3  -5    0.71    0.08 
   7   3   5    0.53    0.08 
  -8  -3  -5    0.40    0.07 
   8   3   5    0.41    0.08 
   9   3   5    0.01    0.06 
  10   3   5    0.09    0.07 
  11   3   5   -0.11    0.06 
   9  -4  -5    0.21    0.08 
   8  -4  -5    0.04    0.06 
   8  -4  -5    0.02    0.06 
   7  -4  -5    0.18    0.07 
   7  -4  -5    0.13    0.06 
   6  -4  -5    0.01    0.04 
   6  -4  -5    0.01    0.05 
   5  -4  -5    5.43    0.18 
   5  -4  -5    5.70    0.20 
   4  -4  -5    0.04    0.04 
   4  -4  -5    0.00    0.03 
   3  -4  -5    3.94    0.15 
   3  -4  -5    3.89    0.13 
   2  -4  -5    8.42    0.20 
   1  -4  -5    0.79    0.06 
   0  -4  -5    0.25    0.04 
   1   4   5   13.26    0.28 
   2   4   5    0.02    0.03 
  -3  -4  -5   10.50    0.23 
   3   4   5   10.54    0.24 
  -4  -4  -5    0.02    0.02 
   4   4   5   -0.04    0.03 
  -5  -4  -5    4.58    0.13 
   5   4   5    4.68    0.16 
   5   4   5    4.61    0.14 
  -6  -4  -5    0.97    0.06 
   6   4   5    1.20    0.09 
   6   4   5    1.09    0.07 
  -7  -4  -5    0.09    0.04 
   7   4   5    0.03    0.03 
   7   4   5    0.03    0.05 
   8   4   5    0.62    0.09 
   9   4   5   -0.01    0.06 
  10   4   5    0.62    0.11 
  11   4   5   -0.04    0.06 
   8  -5  -5    0.12    0.07 
   8  -5  -5    0.23    0.07 
   7  -5  -5    0.80    0.11 
   7  -5  -5    0.81    0.10 
   6  -5  -5    1.30    0.13 
   6  -5  -5    1.45    0.12 
   5  -5  -5    3.46    0.15 
   5  -5  -5    3.34    0.16 
   4  -5  -5    1.54    0.11 
   4  -5  -5    1.52    0.10 
   3  -5  -5    0.20    0.05 
   2  -5  -5    1.28    0.08 
   1  -5  -5    0.96    0.07 
   0  -5  -5    0.85    0.07 
  -1  -5  -5   -0.02    0.03 
   2   5   5    0.06    0.03 
   3   5   5    0.19    0.04 
  -4  -5  -5    0.74    0.05 
   4   5   5    0.67    0.07 
  -5  -5  -5    0.21    0.03 
   5   5   5    0.25    0.05 
   6   5   5    1.14    0.10 
   6   5   5    1.21    0.08 
   7   5   5   -0.03    0.04 
   7   5   5    0.04    0.04 
   8   5   5    0.18    0.06 
   9   5   5    1.68    0.15 
  10   5   5    0.82    0.12 
  11   5   5    0.01    0.08 
   8  -6  -5    0.05    0.07 
   8  -6  -5   -0.02    0.06 
   7  -6  -5    0.00    0.06 
   7  -6  -5    0.01    0.06 
   6  -6  -5    0.76    0.10 
   6  -6  -5    0.72    0.10 
   5  -6  -5    1.56    0.13 
   5  -6  -5    1.40    0.13 
   4  -6  -5    0.17    0.06 
   3  -6  -5    0.98    0.09 
   2  -6  -5    0.05    0.04 
   1  -6  -5    3.13    0.13 
   0  -6  -5    3.54    0.13 
  -1  -6  -5    4.85    0.16 
  -2  -6  -5    2.12    0.11 
   2   6   5    2.30    0.11 
   3   6   5    0.01    0.03 
   4   6   5    2.44    0.12 
   5   6   5    1.50    0.10 
   5   6   5    1.59    0.10 
   6   6   5    0.50    0.07 
   6   6   5    0.55    0.08 
   7   6   5    0.09    0.06 
   8   6   5    0.67    0.10 
   9   6   5    0.72    0.11 
  10   6   5    0.02    0.07 
   7  -7  -5    0.08    0.07 
   7  -7  -5   -0.02    0.07 
   6  -7  -5    0.05    0.06 
   6  -7  -5   -0.11    0.05 
   5  -7  -5   -0.05    0.05 
   5  -7  -5   -0.01    0.06 
   4  -7  -5    3.78    0.18 
   3  -7  -5    3.17    0.15 
   2  -7  -5    0.99    0.09 
   1  -7  -5   -0.04    0.04 
   0  -7  -5    4.14    0.16 
  -1  -7  -5    3.59    0.15 
  -2  -7  -5    0.02    0.04 
   3   7   5    0.39    0.07 
   4   7   5    2.57    0.13 
   4   7   5    2.37    0.13 
   5   7   5    4.48    0.18 
   5   7   5    4.22    0.17 
   6   7   5    0.37    0.07 
   6   7   5    0.14    0.06 
   7   7   5    0.04    0.05 
   7   7   5    0.16    0.06 
   8   7   5   -0.06    0.05 
   8   7   5    0.08    0.07 
   9   7   5    0.12    0.07 
  10   7   5    0.30    0.09 
   6  -8  -5   -0.02    0.06 
   6  -8  -5   -0.07    0.06 
   5  -8  -5    0.10    0.07 
   4  -8  -5    0.70    0.11 
   3  -8  -5    0.02    0.06 
   2  -8  -5    0.01    0.05 
   1  -8  -5    0.40    0.07 
   0  -8  -5    0.28    0.06 
  -1  -8  -5   -0.01    0.04 
  -2  -8  -5   -0.03    0.04 
  -3  -8  -5    1.10    0.11 
   4   8   5    0.35    0.07 
   5   8   5    0.70    0.09 
   5   8   5    0.68    0.10 
   6   8   5    0.07    0.05 
   6   8   5    0.00    0.05 
   7   8   5    0.22    0.07 
   7   8   5    0.38    0.08 
   8   8   5    0.19    0.07 
   8   8   5    0.14    0.07 
   9   8   5   -0.01    0.06 
   9   8   5    0.16    0.08 
   5  -9  -5    0.04    0.08 
   4  -9  -5    0.57    0.11 
   3  -9  -5    0.09    0.07 
   2  -9  -5    0.16    0.07 
   1  -9  -5    0.69    0.09 
   0  -9  -5    0.19    0.06 
  -1  -9  -5    0.67    0.09 
  -2  -9  -5    0.13    0.06 
  -3  -9  -5    0.13    0.06 
  -4  -9  -5    0.01    0.05 
  -5  -9  -5    0.45    0.09 
   5   9   5    0.38    0.08 
   6   9   5    0.07    0.06 
   6   9   5    0.06    0.06 
   7   9   5   -0.01    0.06 
   7   9   5   -0.03    0.06 
   8   9   5    0.01    0.07 
   8   9   5    0.13    0.08 
   4 -10  -5    0.02    0.07 
   3 -10  -5    0.04    0.07 
   2 -10  -5   -0.02    0.05 
   1 -10  -5   -0.03    0.05 
   0 -10  -5   -0.02    0.05 
  -1 -10  -5    0.04    0.06 
  -2 -10  -5    0.12    0.07 
  -3 -10  -5    0.75    0.11 
  -4 -10  -5    0.71    0.11 
  -5 -10  -5    0.06    0.07 
   5  10   5    0.20    0.08 
  -6 -10  -5    0.04    0.07 
   6  10   5    0.04    0.07 
   7  10   5    0.35    0.10 
   7  10   5    0.40    0.09 
   1 -11  -5   -0.08    0.06 
   0 -11  -5    0.74    0.11 
  -1 -11  -5    0.28    0.09 
  -2 -11  -5    0.07    0.07 
  -3 -11  -5   -0.05    0.06 
  -4 -11  -5    0.20    0.08 
  -5 -11  -5    0.18    0.09 
   4   6  -6    0.11    0.08 
   3   6  -6   -0.03    0.07 
   2   6  -6    0.04    0.07 
   1   6  -6    0.08    0.06 
   0   6  -6    0.30    0.10 
  -1   6  -6   -0.03    0.07 
  -2   6  -6    0.20    0.09 
  -3   6  -6    0.18    0.09 
  -4   6  -6    0.04    0.09 
   5   5  -6    0.10    0.08 
   4   5  -6    1.10    0.14 
   3   5  -6    0.00    0.06 
   2   5  -6    1.14    0.12 
   1   5  -6    0.12    0.07 
   1   5  -6    0.00    0.05 
   0   5  -6    0.05    0.07 
  -1   5  -6    0.30    0.09 
  -2   5  -6    0.35    0.09 
  -3   5  -6    0.03    0.07 
  -4   5  -6    0.01    0.08 
  -5   5  -6    0.46    0.12 
   5  -5   6    0.37    0.09 
  -6   5  -6    0.33    0.12 
   6  -5   6    0.32    0.09 
   6   4  -6    0.36    0.10 
   5   4  -6   -0.01    0.06 
   4   4  -6    0.42    0.09 
   3   4  -6    0.15    0.07 
   2   4  -6    0.67    0.10 
   2   4  -6    0.45    0.08 
   1   4  -6    3.05    0.15 
   1   4  -6    3.20    0.17 
   0   4  -6    5.04    0.21 
  -1   4  -6    0.36    0.09 
  -2   4  -6    2.42    0.17 
  -3   4  -6    0.11    0.08 
   3  -4   6    0.10    0.05 
  -4   4  -6    1.98    0.18 
  -5   4  -6    0.48    0.11 
   5  -4   6    0.50    0.09 
  -6   4  -6    0.11    0.10 
   6  -4   6    0.13    0.07 
  -7   4  -6    0.27    0.11 
   7  -4   6    0.39    0.09 
   7   3  -6   -0.05    0.06 
   6   3  -6    0.57    0.11 
   5   3  -6    0.22    0.08 
   4   3  -6    1.89    0.16 
   3   3  -6    0.52    0.09 
   3   3  -6    0.57    0.09 
   2   3  -6    3.81    0.18 
   2   3  -6    3.50    0.16 
   1   3  -6    6.52    0.23 
   1   3  -6    6.29    0.21 
   0   3  -6    0.10    0.06 
  -1   3  -6    0.15    0.06 
  -2   3  -6   -0.01    0.04 
  -2   3  -6   -0.05    0.05 
   2  -3   6    0.00    0.04 
  -3   3  -6    0.13    0.07 
   3  -3   6    0.26    0.06 
  -4   3  -6    0.28    0.08 
  -5   3  -6    1.39    0.15 
   5  -3   6    1.56    0.12 
  -6   3  -6    0.09    0.08 
   6  -3   6    0.22    0.07 
  -7   3  -6    0.93    0.14 
   7  -3   6    0.80    0.11 
  -8   3  -6    0.09    0.10 
   8  -3   6    0.07    0.07 
   8   2  -6    0.03    0.07 
   7   2  -6    0.19    0.09 
   6   2  -6    0.12    0.08 
   5   2  -6    3.01    0.17 
   4   2  -6    1.57    0.14 
   3   2  -6    0.24    0.06 
   2   2  -6    0.22    0.06 
   1   2  -6    0.16    0.05 
   1   2  -6    0.08    0.05 
   0   2  -6    0.71    0.09 
  -1   2  -6    3.27    0.15 
   1  -2   6    3.11    0.10 
  -2   2  -6    0.30    0.04 
  -2   2  -6    0.27    0.06 
   2  -2   6    0.34    0.05 
  -3   2  -6    0.55    0.09 
   3  -2   6    0.52    0.06 
  -4   2  -6    0.70    0.10 
  -5   2  -6    0.03    0.06 
   5  -2   6    0.06    0.05 
  -6   2  -6    2.05    0.16 
   6  -2   6    2.37    0.14 
  -7   2  -6    3.95    0.22 
   7  -2   6    4.00    0.19 
  -8   2  -6   -0.05    0.08 
   8  -2   6    0.10    0.07 
  -9   2  -6   -0.03    0.09 
   9  -2   6   -0.02    0.06 
   8   1  -6    0.04    0.08 
   7   1  -6    0.40    0.09 
   6   1  -6   -0.02    0.06 
   5   1  -6    0.00    0.06 
   4   1  -6    0.02    0.05 
   3   1  -6    2.50    0.14 
   2   1  -6    4.26    0.16 
   1   1  -6    0.73    0.08 
   0   1  -6    0.73    0.08 
  -1   1  -6    0.04    0.04 
   1  -1   6    0.10    0.03 
  -2   1  -6    6.94    0.17 
  -2   1  -6    6.78    0.22 
   2  -1   6    7.06    0.17 
  -3   1  -6    6.27    0.14 
  -3   1  -6    6.21    0.21 
   3  -1   6    6.27    0.17 
  -4   1  -6    1.55    0.12 
   4  -1   6    1.73    0.16 
  -5   1  -6    0.13    0.06 
   5  -1   6    0.19    0.05 
  -6   1  -6    3.26    0.18 
   6  -1   6    2.99    0.15 
  -7   1  -6    7.66    0.28 
   7  -1   6    7.83    0.26 
  -8   1  -6    1.11    0.14 
   8  -1   6    1.00    0.12 
  -9   1  -6    0.21    0.09 
   9  -1   6    0.31    0.09 
  10  -1   6    0.01    0.08 
   8   0  -6    0.04    0.07 
   7   0  -6    0.89    0.12 
   6   0  -6    0.17    0.07 
   5   0  -6    0.53    0.09 
   4   0  -6    0.01    0.04 
   3   0  -6    0.11    0.05 
   2   0  -6    0.79    0.08 
   1   0  -6    2.94    0.12 
   0   0  -6    6.17    0.17 
  -1   0  -6    0.36    0.05 
  -1   0  -6    0.51    0.07 
   1   0   6    0.45    0.04 
  -2   0  -6    0.05    0.04 
  -2   0  -6    0.07    0.02 
   2   0   6    0.06    0.03 
  -3   0  -6    0.14    0.05 
  -3   0  -6    0.11    0.02 
   3   0   6    0.13    0.04 
  -4   0  -6    0.15    0.05 
   4   0   6    0.23    0.05 
  -5   0  -6    0.01    0.04 
   5   0   6   -0.03    0.03 
  -6   0  -6    2.84    0.15 
   6   0   6    2.70    0.13 
  -7   0  -6    4.96    0.21 
   7   0   6    5.35    0.20 
   8   0   6    0.66    0.10 
   9   0   6    0.03    0.07 
  10   0   6    0.15    0.08 
   8  -1  -6    0.03    0.07 
   7  -1  -6    0.10    0.07 
   6  -1  -6    1.92    0.14 
   5  -1  -6    4.39    0.18 
   4  -1  -6    0.24    0.06 
   3  -1  -6    3.95    0.16 
   2  -1  -6    3.12    0.13 
   1  -1  -6    3.28    0.13 
   0  -1  -6    3.80    0.13 
   0   1   6    3.72    0.09 
  -1  -1  -6    0.33    0.04 
   1   1   6    0.39    0.04 
  -2  -1  -6   10.31    0.27 
  -2  -1  -6   10.67    0.22 
   2   1   6   10.51    0.22 
  -3  -1  -6    0.10    0.04 
  -3  -1  -6    0.03    0.02 
   3   1   6   -0.03    0.02 
   4   1   6    4.88    0.15 
   5   1   6    0.84    0.08 
   6   1   6    0.03    0.04 
   7   1   6    1.30    0.12 
   8   1   6    0.19    0.07 
   9   1   6    0.01    0.06 
  10   1   6    0.10    0.07 
  11   1   6   -0.11    0.07 
   8  -2  -6    0.48    0.10 
   7  -2  -6    0.01    0.06 
   6  -2  -6    1.40    0.14 
   5  -2  -6    1.22    0.12 
   4  -2  -6    0.52    0.08 
   3  -2  -6    0.47    0.07 
   2  -2  -6   -0.03    0.03 
   2  -2  -6    0.01    0.02 
   1  -2  -6    3.73    0.13 
   1  -2  -6    3.42    0.10 
   0  -2  -6    8.92    0.22 
  -1  -2  -6    1.08    0.07 
   1   2   6    1.08    0.06 
  -2  -2  -6    3.25    0.10 
   2   2   6    3.22    0.10 
  -3  -2  -6    4.73    0.12 
   3   2   6    4.51    0.13 
  -4  -2  -6    1.61    0.06 
   4   2   6    1.68    0.09 
  -5  -2  -6    0.01    0.03 
   5   2   6   -0.02    0.03 
  -6  -2  -6    0.36    0.06 
   6   2   6    0.30    0.06 
  -7  -2  -6    0.51    0.08 
   7   2   6    0.56    0.09 
  -8  -2  -6    0.24    0.07 
   8   2   6    0.24    0.07 
  -9  -2  -6    0.03    0.06 
   9   2   6    0.08    0.07 
  10   2   6    0.09    0.08 
  11   2   6    0.38    0.10 
   8  -3  -6    0.02    0.07 
   7  -3  -6    0.77    0.11 
   6  -3  -6    0.52    0.09 
   5  -3  -6   -0.03    0.04 
   4  -3  -6    0.43    0.07 
   3  -3  -6    0.74    0.08 
   2  -3  -6    0.09    0.04 
   1  -3  -6    5.00    0.16 
   0  -3  -6    0.05    0.03 
   1   3   6    6.09    0.15 
  -3  -3  -6    0.23    0.05 
   3   3   6    0.26    0.04 
  -4  -3  -6   -0.01    0.03 
   4   3   6   -0.02    0.03 
  -5  -3  -6    0.01    0.03 
   5   3   6    0.02    0.03 
  -6  -3  -6    3.76    0.14 
   6   3   6    3.72    0.15 
  -7  -3  -6    0.08    0.04 
   7   3   6    0.05    0.05 
  -8  -3  -6    0.07    0.05 
   8   3   6    0.05    0.06 
  -9  -3  -6    0.24    0.07 
   9   3   6    0.17    0.07 
  10   3   6   -0.01    0.06 
  11   3   6   -0.04    0.07 
   8  -4  -6    0.06    0.07 
   7  -4  -6    0.08    0.06 
   5  -4  -6    3.76    0.18 
   4  -4  -6    2.04    0.12 
   3  -4  -6    4.54    0.17 
   2  -4  -6    7.60    0.23 
   1  -4  -6    3.79    0.12 
   1  -4  -6    3.71    0.14 
   0  -4  -6    0.18    0.04 
   1   4   6    6.44    0.17 
   2   4   6   90.43    1.49 
  -3  -4  -6    5.96    0.17 
   3   4   6    5.66    0.17 
  -4  -4  -6    0.14    0.04 
   4   4   6    0.18    0.05 
  -5  -4  -6    0.59    0.06 
   5   4   6    0.50    0.07 
  -6  -4  -6   -0.06    0.02 
   6   4   6    0.03    0.04 
  -7  -4  -6    0.60    0.07 
   7   4   6    0.35    0.07 
   8   4   6    0.08    0.06 
   9   4   6    0.75    0.11 
  10   4   6    0.12    0.07 
  11   4   6    0.23    0.09 
   8  -5  -6    0.01    0.06 
   7  -5  -6    0.05    0.05 
   7  -5  -6    0.15    0.07 
   6  -5  -6    0.29    0.08 
   6  -5  -6    0.32    0.07 
   5  -5  -6    0.12    0.05 
   5  -5  -6    0.05    0.05 
   4  -5  -6    0.45    0.08 
   4  -5  -6    0.48    0.07 
   3  -5  -6    0.01    0.04 
   3  -5  -6    0.09    0.04 
   2  -5  -6    0.08    0.03 
   1  -5  -6    0.01    0.03 
   0  -5  -6    2.13    0.10 
  -1  -5  -6    5.85    0.18 
   2   5   6   -0.05    0.03 
   3   5   6    0.09    0.04 
  -4  -5  -6    0.95    0.07 
   4   5   6    0.93    0.08 
  -5  -5  -6    0.01    0.03 
   5   5   6   -0.02    0.04 
  -6  -5  -6    1.35    0.08 
   6   5   6    1.29    0.10 
   7   5   6    0.59    0.07 
   7   5   6    0.49    0.08 
   8   5   6    1.55    0.13 
   9   5   6    1.54    0.15 
  10   5   6    0.29    0.09 
  11   5   6    0.07    0.08 
   7  -6  -6   -0.05    0.06 
   7  -6  -6    0.05    0.06 
   6  -6  -6    0.37    0.08 
   6  -6  -6    0.38    0.08 
   5  -6  -6    0.19    0.07 
   5  -6  -6    0.26    0.07 
   4  -6  -6    0.27    0.07 
   4  -6  -6    0.23    0.06 
   3  -6  -6    3.36    0.14 
   2  -6  -6   -0.01    0.03 
   1  -6  -6    6.30    0.19 
   0  -6  -6    0.60    0.07 
  -1  -6  -6    0.08    0.04 
   2   6   6    0.38    0.06 
   3   6   6    2.38    0.12 
  -4  -6  -6    0.60    0.06 
   4   6   6    0.52    0.07 
   5   6   6    0.02    0.04 
   6   6   6    0.18    0.06 
   7   6   6    0.07    0.06 
   7   6   6    0.11    0.05 
   8   6   6    0.27    0.08 
   9   6   6   -0.04    0.07 
  10   6   6    0.02    0.07 
   7  -7  -6   -0.01    0.06 
   7  -7  -6    0.04    0.07 
   6  -7  -6    0.19    0.07 
   6  -7  -6    0.11    0.07 
   5  -7  -6    0.23    0.08 
   5  -7  -6    0.26    0.07 
   4  -7  -6    0.67    0.10 
   4  -7  -6    0.38    0.08 
   3  -7  -6    0.04    0.05 
   2  -7  -6    0.18    0.06 
   1  -7  -6    0.04    0.04 
   0  -7  -6    0.88    0.09 
  -1  -7  -6    0.07    0.04 
  -2  -7  -6   -0.03    0.03 
   3   7   6    4.73    0.17 
   4   7   6    1.59    0.11 
   5   7   6    0.41    0.07 
   6   7   6    1.18    0.11 
   6   7   6    0.88    0.10 
   7   7   6    0.16    0.07 
   7   7   6    0.04    0.06 
   8   7   6    0.06    0.07 
   9   7   6    1.44    0.15 
  10   7   6    0.09    0.08 
   6  -8  -6   -0.02    0.06 
   6  -8  -6   -0.08    0.06 
   5  -8  -6    0.23    0.08 
   5  -8  -6    0.13    0.07 
   4  -8  -6    0.36    0.09 
   3  -8  -6    8.35    0.27 
   2  -8  -6    0.16    0.06 
   1  -8  -6    0.14    0.05 
   0  -8  -6    0.75    0.09 
  -1  -8  -6    1.00    0.10 
  -2  -8  -6    0.13    0.05 
  -3  -8  -6    1.84    0.13 
   4   8   6    0.05    0.05 
   5   8   6    0.12    0.06 
   6   8   6    0.07    0.06 
   6   8   6    0.03    0.06 
   7   8   6    0.08    0.06 
   7   8   6    0.12    0.06 
   8   8   6    0.33    0.08 
   8   8   6    0.20    0.08 
   9   8   6   -0.01    0.07 
   5  -9  -6   -0.04    0.06 
   5  -9  -6    0.06    0.08 
   4  -9  -6    0.01    0.07 
   3  -9  -6    4.26    0.21 
   2  -9  -6    0.91    0.11 
   1  -9  -6    0.48    0.08 
   0  -9  -6    0.29    0.07 
  -1  -9  -6    0.01    0.05 
  -2  -9  -6    0.69    0.09 
  -3  -9  -6    0.08    0.06 
  -4  -9  -6    0.61    0.10 
   5   9   6    0.12    0.07 
   6   9   6    0.03    0.06 
   7   9   6    0.31    0.08 
   7   9   6    0.32    0.08 
   8   9   6    0.30    0.09 
   8   9   6    0.27    0.08 
   3 -10  -6    0.03    0.07 
   2 -10  -6    0.01    0.06 
   1 -10  -6    0.03    0.06 
   0 -10  -6    0.23    0.08 
  -1 -10  -6    0.00    0.05 
  -2 -10  -6   -0.04    0.05 
  -3 -10  -6    0.10    0.07 
  -4 -10  -6    1.47    0.14 
  -5 -10  -6    0.39    0.09 
  -6 -10  -6   -0.05    0.07 
   7  10   6   -0.09    0.06 
   7  10   6   -0.04    0.07 
   1 -11  -6   -0.01    0.06 
   0 -11  -6    0.01    0.06 
  -1 -11  -6    0.33    0.09 
  -2 -11  -6    0.04    0.06 
  -3 -11  -6    0.11    0.07 
  -4 -11  -6    0.41    0.10 
  -5 -11  -6    0.05    0.07 
   0   6  -7   -0.05    0.08 
  -1   6  -7    0.18    0.10 
  -2   6  -7    0.01    0.08 
   4   5  -7    0.05    0.07 
   3   5  -7    0.08    0.07 
   2   5  -7   -0.07    0.05 
   2   5  -7    0.02    0.07 
   1   5  -7    0.09    0.07 
   1   5  -7    0.27    0.09 
   0   5  -7   -0.02    0.07 
  -1   5  -7    0.42    0.10 
  -2   5  -7    0.10    0.09 
  -3   5  -7    0.15    0.09 
  -4   5  -7   -0.06    0.08 
  -5   5  -7   -0.05    0.09 
   5   4  -7    0.36    0.10 
   4   4  -7    0.43    0.10 
   3   4  -7    0.02    0.06 
   3   4  -7   -0.04    0.07 
   2   4  -7   -0.05    0.05 
   2   4  -7   -0.01    0.06 
   1   4  -7    1.18    0.12 
   1   4  -7    1.28    0.14 
   0   4  -7    1.24    0.14 
  -1   4  -7    0.12    0.08 
  -2   4  -7    0.43    0.10 
  -3   4  -7    2.20    0.21 
  -4   4  -7    1.75    0.18 
  -5   4  -7   -0.03    0.08 
  -6   4  -7    0.12    0.10 
   6  -4   7    0.08    0.07 
  -7   4  -7   -0.11    0.09 
   7  -4   7    0.14    0.08 
   6   3  -7    0.16    0.08 
   5   3  -7    0.09    0.07 
   4   3  -7    0.33    0.09 
   4   3  -7    0.29    0.09 
   3   3  -7    1.00    0.13 
   3   3  -7    1.14    0.12 
   2   3  -7    0.91    0.12 
   2   3  -7    0.73    0.10 
   1   3  -7    0.06    0.07 
   1   3  -7    0.05    0.05 
   0   3  -7    0.12    0.07 
  -1   3  -7    0.22    0.08 
  -2   3  -7   -0.12    0.05 
  -3   3  -7    0.19    0.08 
  -4   3  -7   -0.06    0.07 
   4  -3   7    0.04    0.05 
  -5   3  -7    0.01    0.08 
  -6   3  -7    0.21    0.10 
   6  -3   7    0.27    0.08 
  -7   3  -7    0.15    0.11 
   7  -3   7    0.06    0.07 
  -8   3  -7    0.18    0.12 
   8  -3   7    0.11    0.08 
   7   2  -7    0.02    0.08 
   6   2  -7    0.27    0.09 
   5   2  -7    0.69    0.12 
   4   2  -7    1.32    0.14 
   3   2  -7    0.43    0.08 
   2   2  -7    0.97    0.12 
   2   2  -7    1.24    0.12 
   1   2  -7    1.22    0.11 
   1   2  -7    1.30    0.13 
   0   2  -7    1.36    0.13 
  -1   2  -7    1.08    0.12 
  -2   2  -7    0.04    0.06 
  -2   2  -7   -0.02    0.03 
  -3   2  -7    0.14    0.07 
   3  -2   7    0.18    0.05 
  -4   2  -7    3.01    0.18 
   4  -2   7    2.69    0.13 
  -5   2  -7    0.18    0.08 
   5  -2   7    0.04    0.05 
  -6   2  -7    0.39    0.11 
   6  -2   7    0.59    0.09 
  -7   2  -7    0.00    0.08 
   7  -2   7    0.10    0.06 
  -8   2  -7    0.34    0.11 
   8  -2   7    0.21    0.08 
  -9   2  -7   -0.08    0.09 
   9  -2   7    0.02    0.08 
   7   1  -7   -0.08    0.07 
   6   1  -7    0.48    0.10 
   5   1  -7    0.44    0.09 
   4   1  -7    0.44    0.09 
   3   1  -7    0.62    0.09 
   2   1  -7    1.03    0.10 
   1   1  -7    1.66    0.12 
   1   1  -7    1.72    0.11 
   0   1  -7    5.16    0.20 
  -1   1  -7    0.03    0.05 
  -2   1  -7   -0.01    0.03 
  -2   1  -7    0.14    0.06 
   2  -1   7    0.11    0.04 
  -3   1  -7   -0.02    0.05 
   3  -1   7   -0.01    0.03 
  -4   1  -7    0.21    0.07 
   4  -1   7    0.35    0.06 
  -5   1  -7    0.00    0.06 
   5  -1   7   -0.03    0.04 
  -6   1  -7    0.17    0.08 
   6  -1   7    0.23    0.06 
  -7   1  -7    2.38    0.18 
   7  -1   7    2.13    0.15 
  -8   1  -7    0.86    0.14 
   8  -1   7    0.97    0.13 
  -9   1  -7    0.12    0.09 
   9  -1   7    0.12    0.08 
   8   0  -7    0.64    0.12 
   7   0  -7    0.54    0.11 
   6   0  -7   -0.05    0.06 
   5   0  -7    0.82    0.12 
   4   0  -7    0.26    0.07 
   3   0  -7    2.76    0.14 
   2   0  -7    0.90    0.10 
   1   0  -7    0.31    0.06 
  -1   0  -7    0.56    0.08 
   1   0   7    0.63    0.04 
  -2   0  -7    1.35    0.11 
  -2   0  -7    1.26    0.07 
   2   0   7    1.19    0.07 
  -3   0  -7    0.74    0.09 
  -3   0  -7    0.97    0.09 
   3   0   7    0.91    0.07 
  -4   0  -7    0.64    0.09 
  -5   0  -7    0.02    0.05 
   5   0   7   -0.03    0.04 
  -6   0  -7    2.61    0.16 
   6   0   7    2.64    0.14 
  -7   0  -7    4.28    0.21 
   7   0   7    4.54    0.20 
  -8   0  -7    0.17    0.08 
   8   0   7    0.11    0.07 
  -9   0  -7    0.53    0.11 
   9   0   7    0.33    0.10 
  10   0   7    0.08    0.08 
   8  -1  -7    0.01    0.07 
   7  -1  -7    0.04    0.07 
   6  -1  -7    2.27    0.16 
   5  -1  -7    2.92    0.17 
   4  -1  -7   -0.01    0.04 
   3  -1  -7    0.04    0.04 
   2  -1  -7    5.25    0.18 
   1  -1  -7   13.36    0.32 
   0  -1  -7    0.08    0.04 
   1   1   7    5.83    0.14 
  -2  -1  -7    1.06    0.10 
  -2  -1  -7    1.05    0.06 
   2   1   7    1.03    0.06 
  -3  -1  -7    7.75    0.17 
  -3  -1  -7    7.57    0.24 
   3   1   7    7.62    0.19 
  -4  -1  -7    0.76    0.09 
  -5  -1  -7    0.12    0.06 
   5   1   7    0.08    0.04 
   6   1   7   -0.03    0.04 
   7   1   7   -0.01    0.05 
   8   1   7   -0.02    0.06 
   9   1   7    0.24    0.08 
  10   1   7    0.14    0.08 
   8  -2  -7    1.12    0.15 
   7  -2  -7    0.55    0.11 
   6  -2  -7    1.08    0.13 
   5  -2  -7    0.06    0.06 
   4  -2  -7    1.70    0.13 
   3  -2  -7    0.04    0.04 
   2  -2  -7    0.22    0.05 
   1  -2  -7    0.14    0.04 
   0  -2  -7   -0.01    0.03 
   1   2   7    1.88    0.08 
  -2  -2  -7    0.33    0.06 
  -2  -2  -7    0.20    0.03 
   2   2   7    0.24    0.04 
  -3  -2  -7    1.37    0.06 
   3   2   7    1.18    0.07 
  -4  -2  -7    0.01    0.02 
   4   2   7   -0.02    0.03 
   5   2   7    0.34    0.06 
   6   2   7    1.01    0.10 
   7   2   7   -0.05    0.05 
  -8  -2  -7    0.09    0.07 
   8   2   7    0.06    0.06 
  -9  -2  -7    0.37    0.09 
   9   2   7    0.38    0.09 
 -10  -2  -7    0.40    0.10 
  10   2   7    0.56    0.11 
   8  -3  -7    0.01    0.07 
   7  -3  -7    0.12    0.07 
   6  -3  -7    0.29    0.08 
   5  -3  -7    0.03    0.05 
   4  -3  -7    0.29    0.07 
   3  -3  -7    0.64    0.09 
   2  -3  -7    2.90    0.13 
   1  -3  -7    2.54    0.12 
   0  -3  -7    0.29    0.05 
  -1  -3  -7    4.02    0.14 
   1   3   7    4.01    0.12 
   2   3   7    0.08    0.03 
  -3  -3  -7    0.38    0.04 
   3   3   7    0.17    0.05 
  -4  -3  -7    0.13    0.04 
   4   3   7    0.10    0.04 
  -5  -3  -7    0.23    0.05 
   5   3   7    0.40    0.06 
  -6  -3  -7    0.01    0.03 
   6   3   7    0.07    0.05 
  -7  -3  -7    1.26    0.10 
   7   3   7    1.10    0.11 
  -8  -3  -7    0.59    0.09 
   8   3   7    0.61    0.10 
  -9  -3  -7    0.31    0.08 
   9   3   7    0.36    0.09 
  10   3   7    0.03    0.07 
   8  -4  -7    0.02    0.08 
   7  -4  -7   -0.04    0.06 
   6  -4  -7    0.02    0.06 
   5  -4  -7    0.02    0.05 
   4  -4  -7    0.05    0.05 
   3  -4  -7    0.36    0.07 
   2  -4  -7    0.69    0.08 
   1  -4  -7    1.20    0.10 
   0  -4  -7   -0.01    0.03 
   2   4   7   10.41    0.29 
  -3  -4  -7    7.43    0.21 
   3   4   7    7.36    0.20 
  -4  -4  -7    0.04    0.04 
   4   4   7    0.04    0.04 
  -5  -4  -7    1.23    0.09 
   5   4   7    1.26    0.09 
  -6  -4  -7    0.47    0.07 
   6   4   7    0.52    0.08 
  -7  -4  -7    2.43    0.12 
   7   4   7    2.38    0.14 
  -8  -4  -7    0.61    0.08 
   8   4   7    0.60    0.09 
   9   4   7    0.07    0.06 
  10   4   7    1.05    0.14 
   7  -5  -7    0.44    0.10 
   6  -5  -7    1.19    0.13 
   5  -5  -7    0.15    0.07 
   4  -5  -7    0.35    0.08 
   3  -5  -7    0.85    0.10 
   2  -5  -7    3.35    0.16 
   2  -5  -7    3.35    0.18 
   1  -5  -7    3.46    0.13 
   0  -5  -7    0.74    0.07 
  -1  -5  -7    1.98    0.10 
   2   5   7    4.61    0.15 
   3   5   7    0.75    0.08 
  -4  -5  -7    1.40    0.09 
   4   5   7    1.53    0.10 
  -5  -5  -7    0.16    0.04 
   5   5   7    0.16    0.05 
  -6  -5  -7    0.56    0.07 
   6   5   7    0.54    0.08 
   7   5   7    0.19    0.07 
   8   5   7    0.25    0.08 
   9   5   7    0.19    0.08 
  10   5   7    0.38    0.10 
   7  -6  -7    0.05    0.07 
   6  -6  -7    0.17    0.08 
   6  -6  -7    0.32    0.09 
   5  -6  -7    0.23    0.07 
   5  -6  -7    0.34    0.08 
   4  -6  -7   -0.02    0.05 
   4  -6  -7    0.00    0.04 
   3  -6  -7    0.80    0.10 
   3  -6  -7    1.02    0.10 
   2  -6  -7    0.98    0.09 
   1  -6  -7    0.24    0.05 
   0  -6  -7    0.11    0.04 
  -1  -6  -7    0.98    0.09 
   2   6   7    0.36    0.06 
   3   6   7    0.03    0.04 
  -4  -6  -7    2.18    0.10 
   4   6   7    2.12    0.12 
   5   6   7    0.80    0.09 
   6   6   7    0.02    0.05 
   7   6   7    0.43    0.08 
   8   6   7    0.07    0.07 
   9   6   7    1.02    0.13 
  10   6   7    1.75    0.17 
   6  -7  -7   -0.10    0.05 
   6  -7  -7    0.16    0.07 
   5  -7  -7    0.01    0.06 
   5  -7  -7   -0.01    0.06 
   4  -7  -7    2.33    0.16 
   4  -7  -7    2.47    0.14 
   3  -7  -7    0.14    0.06 
   2  -7  -7    0.32    0.07 
   1  -7  -7    0.12    0.05 
   0  -7  -7    0.32    0.06 
  -1  -7  -7    0.37    0.07 
  -2  -7  -7    0.29    0.06 
   3   7   7    0.64    0.08 
   4   7   7    1.11    0.11 
   5   7   7    2.11    0.13 
   6   7   7    1.25    0.13 
   7   7   7    0.50    0.09 
   8   7   7   -0.04    0.06 
   9   7   7    1.01    0.13 
  10   7   7    2.78    0.20 
   5  -8  -7    0.12    0.08 
   5  -8  -7    0.10    0.07 
   4  -8  -7    0.08    0.07 
   4  -8  -7    0.05    0.07 
   3  -8  -7    0.02    0.05 
   2  -8  -7    0.20    0.06 
   1  -8  -7    0.02    0.05 
   0  -8  -7    0.15    0.06 
  -1  -8  -7    0.16    0.06 
  -2  -8  -7    0.11    0.05 
  -3  -8  -7    0.00    0.05 
   4   8   7    0.08    0.06 
   5   8   7    0.10    0.06 
   6   8   7    0.14    0.07 
   7   8   7   -0.01    0.06 
   8   8   7    0.08    0.08 
   9   8   7    0.46    0.11 
   4  -9  -7    0.14    0.08 
   3  -9  -7    0.30    0.09 
   2  -9  -7    0.32    0.08 
   1  -9  -7    0.03    0.05 
   0  -9  -7    0.49    0.08 
  -1  -9  -7   -0.02    0.05 
  -2  -9  -7    0.44    0.08 
  -3  -9  -7    0.18    0.07 
  -4  -9  -7    0.02    0.06 
   5   9   7    2.93    0.18 
   6   9   7   -0.08    0.06 
   7   9   7    0.24    0.08 
   8   9   7   -0.06    0.07 
   3 -10  -7    0.08    0.08 
   2 -10  -7    0.17    0.07 
   1 -10  -7   -0.01    0.06 
   0 -10  -7   -0.02    0.06 
  -2 -10  -7    0.07    0.06 
  -3 -10  -7   -0.02    0.06 
  -4 -10  -7    0.24    0.08 
  -5 -10  -7   -0.03    0.06 
   6  10   7    0.03    0.07 
   7  10   7   -0.07    0.07 
   1 -11  -7   -0.09    0.06 
   0 -11  -7    0.32    0.09 
  -1 -11  -7    0.00    0.06 
  -2 -11  -7    0.00    0.06 
  -3 -11  -7   -0.02    0.07 
  -4 -11  -7    0.39    0.09 
  -5 -11  -7    2.41    0.18 
   1   5  -8    0.28    0.10 
   0   5  -8    0.40    0.11 
  -1   5  -8    0.11    0.09 
  -2   5  -8   -0.01    0.09 
   3   4  -8    0.00    0.08 
   3   4  -8    0.13    0.07 
   2   4  -8    0.36    0.10 
   2   4  -8    0.36    0.09 
   1   4  -8    0.32    0.10 
   0   4  -8    0.49    0.11 
  -1   4  -8   -0.03    0.08 
  -2   4  -8   -0.01    0.07 
  -3   4  -8    0.13    0.09 
  -4   4  -8   -0.05    0.08 
  -5   4  -8    0.24    0.11 
   5   3  -8    0.03    0.07 
   5   3  -8   -0.16    0.08 
   4   3  -8    0.06    0.09 
   4   3  -8    0.19    0.08 
   3   3  -8   -0.01    0.07 
   3   3  -8    0.00    0.07 
   2   3  -8    0.14    0.08 
   2   3  -8    0.06    0.06 
   1   3  -8    0.93    0.11 
   1   3  -8    1.24    0.15 
   0   3  -8    3.79    0.21 
  -1   3  -8    0.30    0.10 
  -2   3  -8   -0.01    0.07 
  -3   3  -8    0.12    0.08 
  -4   3  -8    0.11    0.10 
  -5   3  -8   -0.05    0.08 
  -6   3  -8   -0.01    0.09 
  -7   3  -8    0.37    0.12 
   7  -3   8    0.18    0.08 
   6   2  -8    0.01    0.07 
   5   2  -8    0.37    0.10 
   4   2  -8    2.06    0.18 
   3   2  -8    0.38    0.09 
   3   2  -8    0.24    0.09 
   2   2  -8    0.11    0.08 
   2   2  -8    0.02    0.06 
   1   2  -8    1.35    0.14 
   1   2  -8    1.11    0.12 
   0   2  -8   12.21    0.36 
  -1   2  -8    1.90    0.16 
  -1   2  -8    1.95    0.18 
  -2   2  -8    0.02    0.07 
  -3   2  -8    0.06    0.08 
  -4   2  -8    0.39    0.10 
  -5   2  -8    0.00    0.08 
  -6   2  -8    0.16    0.10 
   6  -2   8    0.21    0.07 
  -7   2  -8    0.22    0.11 
   7  -2   8    0.21    0.08 
  -8   2  -8    0.07    0.11 
   8  -2   8   -0.04    0.07 
   6   1  -8    0.10    0.08 
   5   1  -8   -0.02    0.07 
   4   1  -8   -0.03    0.06 
   3   1  -8    0.00    0.05 
   2   1  -8    0.18    0.06 
   1   1  -8    1.96    0.13 
   1   1  -8    1.87    0.15 
   0   1  -8    2.09    0.15 
  -1   1  -8    0.05    0.06 
  -2   1  -8    0.10    0.05 
  -2   1  -8    0.06    0.06 
  -3   1  -8    0.49    0.10 
  -4   1  -8    0.78    0.11 
   4  -1   8    0.84    0.08 
  -5   1  -8    0.01    0.07 
  -6   1  -8    0.45    0.11 
   6  -1   8    0.38    0.08 
  -7   1  -8    1.00    0.15 
   7  -1   8    0.65    0.10 
  -8   1  -8    0.02    0.09 
   8  -1   8    0.16    0.08 
   7   0  -8    1.76    0.19 
   6   0  -8   -0.08    0.07 
   5   0  -8    0.81    0.11 
   4   0  -8   -0.04    0.05 
   3   0  -8    2.31    0.14 
   2   0  -8    2.45    0.14 
   1   0  -8    2.21    0.13 
   0   0  -8    0.31    0.07 
  -1   0  -8    0.26    0.07 
  -2   0  -8    0.06    0.06 
  -2   0  -8    0.07    0.03 
  -3   0  -8    0.18    0.07 
   3   0   8    0.25    0.05 
  -4   0  -8    0.33    0.08 
   4   0   8    0.25    0.05 
  -5   0  -8   -0.08    0.05 
  -6   0  -8    0.14    0.08 
   6   0   8    0.10    0.06 
  -7   0  -8    0.11    0.08 
   7   0   8    0.07    0.06 
  -8   0  -8    0.02    0.08 
   8   0   8    0.12    0.08 
  -9   0  -8    0.12    0.10 
   9   0   8    0.06    0.08 
   7  -1  -8    0.54    0.12 
   6  -1  -8    0.12    0.08 
   5  -1  -8   -0.04    0.06 
   4  -1  -8    0.19    0.07 
   3  -1  -8    0.10    0.06 
   2  -1  -8    0.17    0.06 
   1  -1  -8    0.52    0.07 
  -1  -1  -8    0.24    0.07 
  -2  -1  -8    0.79    0.06 
  -2  -1  -8    0.68    0.09 
   2   1   8    0.95    0.07 
  -3  -1  -8    0.35    0.08 
   3   1   8    0.53    0.06 
  -4  -1  -8    1.02    0.11 
   4   1   8    1.11    0.09 
  -5  -1  -8    1.17    0.13 
   5   1   8    1.40    0.11 
  -6  -1  -8    0.07    0.07 
   6   1   8    0.00    0.05 
   7   1   8    0.94    0.11 
   8   1   8    1.02    0.12 
   9   1   8    0.34    0.10 
  10   1   8    0.00    0.08 
   7  -2  -8    0.02    0.07 
   6  -2  -8    0.61    0.11 
   5  -2  -8   12.57    0.36 
   4  -2  -8    0.37    0.08 
   3  -2  -8    0.17    0.06 
   2  -2  -8    1.25    0.12 
   1  -2  -8    1.30    0.10 
   0  -2  -8    0.04    0.04 
   1   2   8    0.07    0.03 
  -2  -2  -8    0.41    0.07 
  -2  -2  -8    0.54    0.07 
   2   2   8    0.56    0.06 
  -3  -2  -8    0.26    0.06 
  -3  -2  -8    0.29    0.04 
   3   2   8    0.29    0.05 
   5   2   8    0.06    0.05 
   6   2   8    0.80    0.09 
   7   2   8    0.79    0.10 
   8   2   8    2.50    0.16 
   9   2   8    0.29    0.09 
 -10  -2  -8    0.08    0.08 
  10   2   8   -0.02    0.08 
   7  -3  -8   -0.02    0.07 
   6  -3  -8    0.44    0.10 
   5  -3  -8    6.46    0.26 
   4  -3  -8    2.22    0.15 
   3  -3  -8    0.01    0.04 
   2  -3  -8    0.12    0.05 
   1  -3  -8    0.32    0.06 
   0  -3  -8    1.83    0.10 
  -1  -3  -8    0.02    0.03 
   1   3   8   -0.01    0.03 
   2   3   8    0.44    0.06 
  -3  -3  -8    0.14    0.04 
   3   3   8    0.02    0.03 
   4   3   8    1.76    0.10 
   5   3   8    2.10    0.12 
  -6  -3  -8    0.38    0.07 
   6   3   8    0.32    0.07 
  -7  -3  -8    0.16    0.06 
   7   3   8    0.08    0.06 
  -8  -3  -8    0.25    0.08 
   8   3   8    0.45    0.09 
  -9  -3  -8    0.36    0.09 
   9   3   8    0.34    0.09 
  10   3   8    0.18    0.09 
   7  -4  -8    0.32    0.10 
   6  -4  -8    0.54    0.11 
   5  -4  -8    0.03    0.06 
   4  -4  -8    0.72    0.11 
   3  -4  -8    0.57    0.09 
   2  -4  -8    0.19    0.06 
   1  -4  -8    0.74    0.09 
   0  -4  -8    0.35    0.06 
  -1  -4  -8    0.19    0.05 
   1   4   8    0.35    0.05 
   2   4   8    4.91    0.15 
  -3  -4  -8    2.44    0.16 
  -4  -4  -8    0.13    0.05 
   4   4   8    0.09    0.04 
  -5  -4  -8    0.22    0.06 
   5   4   8    0.22    0.06 
  -6  -4  -8    2.31    0.13 
   6   4   8    2.40    0.14 
  -7  -4  -8    2.57    0.14 
   7   4   8    2.64    0.15 
  -8  -4  -8    0.29    0.07 
   8   4   8    0.08    0.07 
   9   4   8    0.52    0.10 
  10   4   8    0.06    0.08 
   7  -5  -8    0.08    0.07 
   6  -5  -8    0.15    0.08 
   5  -5  -8    0.04    0.06 
   4  -5  -8    0.07    0.06 
   3  -5  -8   -0.07    0.04 
   2  -5  -8    0.00    0.04 
   1  -5  -8    0.42    0.07 
   0  -5  -8    1.82    0.12 
  -1  -5  -8    1.38    0.09 
   2   5   8    2.39    0.12 
   3   5   8    0.17    0.05 
  -4  -5  -8    3.29    0.15 
   4   5   8    3.36    0.14 
  -5  -5  -8    0.17    0.05 
   5   5   8    0.19    0.06 
  -6  -5  -8    0.02    0.04 
   6   5   8    0.15    0.06 
   7   5   8    0.06    0.06 
   8   5   8    0.13    0.07 
   9   5   8    0.06    0.07 
  10   5   8    0.07    0.08 
   6  -6  -8   -0.03    0.06 
   5  -6  -8   -0.05    0.06 
   4  -6  -8    0.77    0.11 
   3  -6  -8    0.10    0.06 
   2  -6  -8    0.82    0.08 
   2  -6  -8    0.87    0.11 
   1  -6  -8    0.73    0.08 
   0  -6  -8   -0.01    0.04 
  -1  -6  -8    0.02    0.04 
   2   6   8    1.63    0.11 
   3   6   8    0.10    0.05 
  -4  -6  -8    0.98    0.09 
   4   6   8    1.12    0.10 
  -5  -6  -8    0.05    0.04 
   5   6   8   -0.07    0.04 
   6   6   8    0.65    0.09 
   7   6   8    0.28    0.08 
   8   6   8   -0.04    0.06 
   9   6   8    0.01    0.07 
  10   6   8    0.12    0.09 
   6  -7  -8    0.14    0.08 
   5  -7  -8    0.30    0.09 
   4  -7  -8    0.80    0.10 
   4  -7  -8    0.72    0.11 
   3  -7  -8    0.08    0.06 
   3  -7  -8   -0.02    0.05 
   2  -7  -8    0.07    0.05 
   1  -7  -8    0.21    0.06 
   0  -7  -8    0.22    0.06 
  -1  -7  -8    0.11    0.05 
  -2  -7  -8    0.67    0.09 
   3   7   8    0.16    0.06 
   4   7   8   -0.02    0.05 
   5   7   8    0.05    0.05 
   6   7   8    0.01    0.06 
   7   7   8    0.03    0.06 
   8   7   8    0.07    0.07 
   9   7   8    0.10    0.08 
   5  -8  -8    0.14    0.07 
   5  -8  -8    0.09    0.08 
   4  -8  -8    0.38    0.09 
   4  -8  -8    0.19    0.08 
   3  -8  -8    0.55    0.09 
   3  -8  -8    0.54    0.10 
   2  -8  -8    1.19    0.11 
   1  -8  -8    0.04    0.05 
   0  -8  -8    0.11    0.06 
  -1  -8  -8    0.64    0.09 
  -2  -8  -8    0.82    0.10 
  -3  -8  -8   -0.01    0.05 
   4   8   8    0.08    0.06 
   5   8   8    0.40    0.08 
   6   8   8    0.60    0.10 
   7   8   8    0.14    0.07 
   8   8   8   -0.08    0.07 
   9   8   8    0.33    0.10 
   4  -9  -8   -0.07    0.06 
   4  -9  -8    0.04    0.08 
   3  -9  -8    1.11    0.13 
   2  -9  -8    0.33    0.08 
   1  -9  -8   -0.03    0.05 
   0  -9  -8    0.04    0.06 
  -1  -9  -8    0.14    0.06 
  -2  -9  -8    1.06    0.12 
  -3  -9  -8   -0.02    0.05 
  -4  -9  -8    0.16    0.07 
   5   9   8    0.56    0.10 
   6   9   8    0.54    0.10 
   7   9   8   -0.03    0.06 
   8   9   8    0.06    0.08 
   2 -10  -8    0.00    0.06 
   1 -10  -8    0.36    0.08 
   0 -10  -8   -0.06    0.05 
  -1 -10  -8   -0.02    0.05 
  -2 -10  -8    0.02    0.06 
  -3 -10  -8    0.02    0.06 
  -4 -10  -8    0.45    0.09 
  -5 -10  -8   -0.01    0.06 
   6  10   8    0.18    0.09 
   7  10   8   -0.01    0.07 
   0 -11  -8    0.04    0.07 
  -1 -11  -8   -0.03    0.06 
  -2 -11  -8    0.11    0.07 
  -3 -11  -8   -0.06    0.06 
  -4 -11  -8    0.01    0.07 
  -5 -11  -8    0.04    0.07 
   0   4  -9    0.20    0.10 
  -1   4  -9    0.13    0.09 
  -2   4  -9   -0.01    0.09 
   3   3  -9    1.16    0.15 
   3   3  -9    1.34    0.17 
   2   3  -9   -0.05    0.07 
   2   3  -9    0.13    0.07 
   1   3  -9    0.58    0.12 
   0   3  -9    0.07    0.08 
  -1   3  -9   -0.02    0.08 
  -2   3  -9    0.04    0.09 
  -3   3  -9    0.01    0.09 
  -4   3  -9    0.07    0.10 
  -5   3  -9    0.11    0.11 
   4   2  -9    0.20    0.09 
   4   2  -9   -0.05    0.08 
   3   2  -9    0.05    0.08 
   3   2  -9    0.00    0.07 
   2   2  -9    0.09    0.07 
   2   2  -9    0.00    0.08 
   1   2  -9    0.01    0.07 
   1   2  -9    0.07    0.07 
   0   2  -9    0.45    0.11 
  -1   2  -9    2.62    0.19 
  -2   2  -9    0.57    0.12 
  -3   2  -9    0.83    0.14 
  -4   2  -9    0.06    0.09 
  -5   2  -9    0.59    0.14 
  -6   2  -9    0.50    0.13 
   5   1  -9    0.12    0.09 
   4   1  -9    0.27    0.09 
   3   1  -9    0.93    0.13 
   2   1  -9   -0.03    0.06 
   2   1  -9    0.04    0.08 
   1   1  -9    0.85    0.12 
   1   1  -9    0.90    0.11 
   0   1  -9    1.63    0.16 
  -1   1  -9    0.18    0.08 
  -2   1  -9    0.03    0.07 
  -3   1  -9   -0.01    0.07 
  -4   1  -9    0.00    0.08 
  -5   1  -9    0.08    0.09 
  -6   1  -9    0.13    0.10 
  -7   1  -9    0.44    0.12 
   7  -1   9    0.30    0.08 
  -8   1  -9    0.34    0.12 
   8  -1   9    0.46    0.10 
   5   0  -9   -0.07    0.07 
   4   0  -9    0.86    0.12 
   3   0  -9    0.40    0.09 
   2   0  -9    0.28    0.08 
   1   0  -9   -0.01    0.05 
   0   0  -9    0.04    0.06 
  -1   0  -9    0.04    0.06 
  -2   0  -9    1.26    0.14 
  -3   0  -9    0.44    0.10 
  -4   0  -9    0.17    0.08 
  -5   0  -9    0.03    0.07 
   5   0   9    0.15    0.06 
  -6   0  -9    0.13    0.09 
  -7   0  -9    0.93    0.14 
   7   0   9    0.89    0.11 
  -8   0  -9    0.89    0.15 
   8   0   9    0.78    0.12 
   6  -1  -9    0.26    0.10 
   5  -1  -9    0.08    0.08 
   4  -1  -9    0.13    0.08 
   3  -1  -9   -0.03    0.05 
   2  -1  -9    0.44    0.08 
   1  -1  -9    1.46    0.13 
  -1  -1  -9    0.26    0.07 
  -2  -1  -9    0.08    0.03 
  -2  -1  -9   -0.02    0.05 
  -3  -1  -9    1.29    0.14 
  -4  -1  -9    1.33    0.14 
   4   1   9    1.30    0.10 
  -5  -1  -9    0.21    0.08 
  -6  -1  -9    0.27    0.09 
   6   1   9    0.30    0.07 
  -7  -1  -9    0.74    0.13 
   7   1   9    0.87    0.11 
  -8  -1  -9    2.24    0.19 
   8   1   9    2.25    0.16 
   9   1   9   -0.03    0.07 
   6  -2  -9    0.33    0.10 
   5  -2  -9    0.16    0.08 
   4  -2  -9    0.27    0.08 
   3  -2  -9    0.05    0.06 
   2  -2  -9    0.18    0.07 
   1  -2  -9    0.54    0.09 
   0  -2  -9    1.87    0.12 
  -2  -2  -9    0.02    0.05 
  -2  -2  -9    0.01    0.03 
  -3  -2  -9    0.10    0.06 
   3   2   9    0.02    0.04 
  -4  -2  -9    0.15    0.07 
   4   2   9    0.22    0.06 
  -5  -2  -9    0.05    0.06 
   6   2   9   -0.04    0.05 
   7   2   9    0.84    0.11 
   8   2   9    0.71    0.11 
   9   2   9    0.24    0.09 
   6  -3  -9   -0.02    0.07 
   5  -3  -9    0.55    0.11 
   4  -3  -9    1.42    0.15 
   3  -3  -9   -0.04    0.05 
   2  -3  -9    0.79    0.10 
   1  -3  -9    0.09    0.05 
   0  -3  -9    0.05    0.04 
  -2  -3  -9    0.02    0.05 
   2   3   9    0.03    0.04 
  -3  -3  -9    1.94    0.10 
  -3  -3  -9    1.63    0.12 
   3   3   9    1.92    0.10 
   5   3   9    0.52    0.08 
   6   3   9    0.08    0.05 
   7   3   9    0.04    0.06 
  -8  -3  -9    0.14    0.07 
   8   3   9    0.18    0.08 
  -9  -3  -9    0.07    0.07 
   9   3   9    0.01    0.07 
   6  -4  -9    0.19    0.10 
   5  -4  -9    0.44    0.10 
   4  -4  -9    0.53    0.09 
   3  -4  -9    0.37    0.08 
   2  -4  -9    0.14    0.06 
   1  -4  -9   -0.02    0.04 
   0  -4  -9    0.05    0.05 
  -1  -4  -9    0.38    0.07 
   2   4   9    0.21    0.05 
   3   4   9    0.45    0.07 
  -4  -4  -9    0.38    0.06 
   4   4   9    0.49    0.09 
  -5  -4  -9    0.00    0.04 
   5   4   9   -0.02    0.05 
  -6  -4  -9   -0.03    0.04 
   6   4   9    0.00    0.05 
  -7  -4  -9    0.09    0.05 
   7   4   9    0.00    0.06 
  -8  -4  -9    0.29    0.07 
   8   4   9    0.33    0.09 
   9   4   9   -0.02    0.07 
  10   4   9   -0.18    0.07 
   6  -5  -9    0.10    0.08 
   5  -5  -9    0.19    0.08 
   4  -5  -9   -0.03    0.05 
   3  -5  -9   -0.06    0.05 
   2  -5  -9    0.64    0.09 
   1  -5  -9   -0.01    0.05 
   0  -5  -9    0.01    0.04 
  -1  -5  -9    0.04    0.05 
  -2  -5  -9    3.31    0.16 
   2   5   9    2.84    0.14 
  -4  -5  -9    0.10    0.05 
   4   5   9    0.09    0.08 
  -5  -5  -9    0.17    0.06 
   5   5   9    0.08    0.06 
  -6  -5  -9   -0.03    0.05 
   6   5   9    0.01    0.05 
  -7  -5  -9    0.24    0.07 
   7   5   9    0.33    0.08 
   8   5   9   -0.04    0.06 
   9   5   9    0.02    0.07 
  10   5   9    0.82    0.13 
   5  -6  -9    0.14    0.08 
   4  -6  -9    0.05    0.06 
   3  -6  -9    0.17    0.07 
   2  -6  -9    1.03    0.12 
   1  -6  -9    0.60    0.09 
   0  -6  -9    0.75    0.11 
   0  -6  -9    0.63    0.09 
  -1  -6  -9    0.07    0.05 
  -2  -6  -9    0.71    0.09 
   3   6   9    6.78    0.22 
  -4  -6  -9    0.77    0.10 
   4   6   9    0.72    0.09 
  -5  -6  -9    0.05    0.05 
   5   6   9    0.03    0.05 
   6   6   9    0.13    0.06 
   7   6   9    0.00    0.06 
   8   6   9    0.11    0.07 
   9   6   9    0.26    0.09 
   5  -7  -9    0.01    0.07 
   4  -7  -9    0.05    0.06 
   3  -7  -9   -0.03    0.06 
   2  -7  -9    0.24    0.07 
   2  -7  -9    0.12    0.05 
   1  -7  -9    0.00    0.05 
   1  -7  -9    0.04    0.05 
   0  -7  -9    0.01    0.04 
  -1  -7  -9    0.17    0.06 
  -2  -7  -9    1.76    0.13 
   3   7   9    0.08    0.06 
  -4  -7  -9    0.02    0.05 
   4   7   9   -0.05    0.05 
   5   7   9    0.65    0.09 
   6   7   9   -0.02    0.06 
   7   7   9    0.04    0.06 
   8   7   9    0.08    0.07 
   9   7   9    0.25    0.09 
   4  -8  -9    0.20    0.09 
   3  -8  -9    0.07    0.07 
   3  -8  -9    0.01    0.06 
   2  -8  -9    0.64    0.09 
   2  -8  -9    0.53    0.10 
   1  -8  -9    0.09    0.05 
   0  -8  -9    0.40    0.08 
  -1  -8  -9   -0.04    0.05 
  -2  -8  -9    0.01    0.05 
  -3  -8  -9   -0.04    0.05 
   4   8   9    0.00    0.06 
   5   8   9    0.09    0.06 
   6   8   9    0.21    0.07 
   7   8   9    0.00    0.06 
   8   8   9   -0.08    0.07 
   3  -9  -9    0.31    0.09 
   3  -9  -9    0.19    0.08 
   2  -9  -9   -0.04    0.05 
   1  -9  -9    0.13    0.06 
   0  -9  -9   -0.02    0.05 
  -1  -9  -9    0.07    0.06 
  -2  -9  -9   -0.03    0.05 
  -3  -9  -9    0.03    0.06 
  -4  -9  -9    0.15    0.07 
   5   9   9    0.49    0.10 
   6   9   9    0.10    0.07 
   7   9   9   -0.01    0.07 
   8   9   9    0.04    0.07 
   2 -10  -9    2.28    0.17 
   1 -10  -9    0.04    0.06 
   0 -10  -9    0.17    0.07 
  -1 -10  -9    0.05    0.07 
  -2 -10  -9    0.07    0.07 
  -3 -10  -9   -0.05    0.05 
  -4 -10  -9    0.11    0.07 
  -5 -10  -9    0.10    0.07 
   6  10   9   -0.05    0.08 
  -1 -11  -9   -0.03    0.06 
  -2 -11  -9    0.00    0.07 
  -3 -11  -9    0.07    0.07 
  -4 -11  -9    0.08    0.07 
   2   2 -10   -0.05    0.08 
   2   2 -10   -0.06    0.07 
   1   2 -10   -0.04    0.08 
   0   2 -10    0.79    0.14 
  -1   2 -10    0.56    0.12 
  -2   2 -10    0.00    0.09 
  -3   2 -10    0.03    0.09 
  -4   2 -10    0.59    0.14 
  -5   2 -10    0.36    0.13 
   3   1 -10    0.36    0.11 
   3   1 -10    0.32    0.09 
   2   1 -10    0.09    0.07 
   2   1 -10    0.00    0.09 
   1   1 -10    0.14    0.07 
   1   1 -10   -0.01    0.08 
   0   1 -10    0.09    0.09 
  -1   1 -10    0.42    0.11 
  -2   1 -10    0.18    0.09 
  -3   1 -10   -0.07    0.08 
  -4   1 -10    0.09    0.09 
  -5   1 -10    0.13    0.11 
  -6   1 -10    0.10    0.11 
   4   0 -10    0.35    0.10 
   3   0 -10    0.05    0.07 
   2   0 -10    0.38    0.09 
   1   0 -10   -0.02    0.06 
   1   0 -10   -0.06    0.07 
   0   0 -10    0.36    0.10 
  -1   0 -10    0.16    0.08 
  -2   0 -10    0.65    0.12 
  -3   0 -10   -0.07    0.06 
  -4   0 -10    0.07    0.08 
  -5   0 -10    0.89    0.15 
  -6   0 -10    0.08    0.10 
  -7   0 -10    0.14    0.10 
   4  -1 -10    0.17    0.09 
   3  -1 -10    0.08    0.07 
   2  -1 -10   -0.07    0.05 
   1  -1 -10    0.02    0.05 
   0  -1 -10    0.68    0.11 
  -1  -1 -10    0.99    0.12 
  -2  -1 -10    0.03    0.06 
  -3  -1 -10    0.02    0.07 
  -4  -1 -10    0.02    0.07 
  -5  -1 -10   -0.01    0.07 
  -6  -1 -10   -0.03    0.07 
  -7  -1 -10    0.08    0.10 
   7   1  10    0.02    0.07 
  -8  -1 -10    0.16    0.10 
   8   1  10    0.16    0.08 
   5  -2 -10    0.09    0.08 
   4  -2 -10    0.66    0.12 
   3  -2 -10    0.10    0.07 
   2  -2 -10    0.14    0.07 
   1  -2 -10    0.27    0.07 
  -1  -2 -10    0.77    0.11 
  -2  -2 -10    0.75    0.08 
  -2  -2 -10    0.60    0.10 
  -3  -2 -10    0.03    0.06 
  -4  -2 -10    0.65    0.11 
  -5  -2 -10    0.10    0.08 
   5   2  10    0.20    0.07 
  -6  -2 -10    0.10    0.08 
   7   2  10    0.26    0.08 
   8   2  10    0.63    0.11 
   5  -3 -10    0.44    0.11 
   4  -3 -10    1.01    0.13 
   3  -3 -10    0.08    0.07 
   2  -3 -10    0.02    0.06 
   1  -3 -10    0.21    0.07 
   0  -3 -10    3.68    0.17 
  -2  -3 -10    0.87    0.12 
  -3  -3 -10   -0.01    0.05 
  -4  -3 -10    0.93    0.12 
   4   3  10    0.92    0.09 
   6   3  10    0.10    0.06 
   7   3  10    0.11    0.07 
   8   3  10    0.08    0.08 
   9   3  10    0.03    0.07 
   5  -4 -10    0.49    0.12 
   4  -4 -10    0.11    0.08 
   3  -4 -10    0.87    0.11 
   2  -4 -10    0.03    0.05 
   1  -4 -10   -0.04    0.05 
   0  -4 -10    0.02    0.05 
  -1  -4 -10   -0.01    0.05 
  -3  -4 -10    0.24    0.05 
   3   4  10    0.16    0.05 
   4   4  10    0.02    0.06 
   5   4  10    0.09    0.06 
   6   4  10    0.04    0.06 
  -7  -4 -10    0.38    0.08 
   7   4  10    0.22    0.08 
  -8  -4 -10   -0.01    0.05 
   8   4  10    0.01    0.07 
   9   4  10    0.25    0.09 
   5  -5 -10    0.06    0.07 
   4  -5 -10    0.05    0.07 
   3  -5 -10    0.16    0.07 
   2  -5 -10    0.07    0.06 
   1  -5 -10    0.04    0.05 
   0  -5 -10    0.47    0.08 
  -1  -5 -10   -0.05    0.04 
   2   5  10    0.42    0.07 
   3   5  10    0.48    0.07 
  -4  -5 -10    0.12    0.04 
  -5  -5 -10    0.09    0.06 
   5   5  10    0.00    0.05 
  -6  -5 -10    0.13    0.06 
   6   5  10    0.13    0.06 
  -7  -5 -10   -0.08    0.04 
   7   5  10   -0.04    0.06 
   8   5  10    0.26    0.09 
   9   5  10    0.04    0.08 
   4  -6 -10   -0.07    0.06 
   3  -6 -10   -0.07    0.05 
   2  -6 -10    0.11    0.07 
   1  -6 -10    0.03    0.06 
   0  -6 -10    0.05    0.05 
  -1  -6 -10    0.03    0.05 
  -2  -6 -10    0.25    0.07 
  -2  -6 -10    0.39    0.07 
   3   6  10    0.73    0.11 
  -4  -6 -10    1.65    0.13 
   4   6  10    1.62    0.12 
  -5  -6 -10   -0.01    0.05 
   5   6  10    0.05    0.06 
   6   6  10    0.09    0.07 
   7   6  10    0.00    0.07 
   8   6  10    0.08    0.08 
   9   6  10    0.35    0.09 
   4  -7 -10    0.11    0.08 
   3  -7 -10    0.12    0.07 
   2  -7 -10   -0.07    0.05 
   1  -7 -10    0.78    0.11 
   0  -7 -10    0.27    0.08 
   0  -7 -10    0.40    0.07 
  -1  -7 -10    0.07    0.05 
  -2  -7 -10    0.37    0.08 
   3   7  10    0.56    0.09 
  -4  -7 -10    0.25    0.07 
   4   7  10    0.28    0.07 
   5   7  10    0.41    0.09 
   6   7  10   -0.03    0.06 
   7   7  10    0.05    0.07 
   8   7  10    0.01    0.07 
   3  -8 -10    0.01    0.07 
   2  -8 -10    0.08    0.07 
   1  -8 -10    0.13    0.06 
   1  -8 -10    0.20    0.07 
   0  -8 -10   -0.01    0.05 
  -1  -8 -10   -0.08    0.05 
  -2  -8 -10    0.06    0.06 
  -3  -8 -10    0.07    0.06 
   4   8  10    0.00    0.06 
   5   8  10    0.08    0.07 
   6   8  10    0.46    0.09 
   7   8  10    0.05    0.07 
   8   8  10   -0.03    0.07 
   2  -9 -10   -0.04    0.05 
   2  -9 -10    0.01    0.06 
   1  -9 -10    0.16    0.07 
   0  -9 -10    0.04    0.06 
  -1  -9 -10    0.01    0.06 
  -2  -9 -10    0.17    0.07 
  -3  -9 -10    0.14    0.07 
  -4  -9 -10    0.08    0.07 
   5   9  10    0.02    0.07 
   6   9  10    0.14    0.08 
   7   9  10    0.06    0.07 
   0 -10 -10   -0.05    0.05 
  -1 -10 -10    0.00    0.06 
  -2 -10 -10   -0.01    0.06 
  -3 -10 -10    0.09    0.07 
  -4 -10 -10    0.02    0.06 
  -5 -10 -10   -0.02    0.07 
   0   1 -11    0.70    0.15 
  -1   1 -11    1.04    0.16 
  -2   1 -11    0.29    0.11 
  -3   1 -11    0.02    0.10 
  -4   1 -11    0.01    0.10 
   2   0 -11   -0.17    0.07 
   2   0 -11    0.07    0.07 
   1   0 -11    0.11    0.09 
   1   0 -11    0.09    0.07 
   0   0 -11    0.01    0.08 
  -1   0 -11    3.15    0.22 
  -2   0 -11    0.16    0.10 
  -3   0 -11   -0.09    0.08 
  -4   0 -11    0.02    0.10 
  -5   0 -11   -0.05    0.09 
   3  -1 -11    0.13    0.08 
   2  -1 -11    0.03    0.06 
   1  -1 -11    0.01    0.06 
   0  -1 -11    0.25    0.10 
  -1  -1 -11    0.17    0.08 
  -2  -1 -11    0.10    0.07 
  -3  -1 -11    0.00    0.08 
  -4  -1 -11    0.02    0.09 
  -5  -1 -11    0.11    0.09 
  -6  -1 -11   -0.08    0.08 
   3  -2 -11   -0.01    0.07 
   2  -2 -11    0.21    0.08 
   1  -2 -11    0.10    0.07 
  -1  -2 -11   -0.07    0.06 
  -2  -2 -11    0.00    0.06 
  -3  -2 -11   -0.01    0.08 
  -4  -2 -11    0.46    0.11 
  -5  -2 -11    0.11    0.09 
  -6  -2 -11    0.04    0.09 
  -7  -2 -11    0.03    0.09 
   4  -3 -11    0.03    0.08 
   3  -3 -11   -0.02    0.07 
   2  -3 -11   -0.02    0.07 
   1  -3 -11    0.06    0.06 
   0  -3 -11    0.15    0.07 
  -2  -3 -11    0.01    0.06 
  -3  -3 -11    0.06    0.06 
  -4  -3 -11    0.21    0.08 
  -5  -3 -11    0.16    0.08 
   7   3  11    0.17    0.08 
   8   3  11    0.19    0.09 
   4  -4 -11    3.16    0.22 
   3  -4 -11    0.30    0.10 
   2  -4 -11    0.01    0.07 
   1  -4 -11    0.24    0.07 
   0  -4 -11    0.11    0.06 
  -2  -4 -11    0.13    0.07 
  -3  -4 -11    0.57    0.10 
   6   4  11   -0.04    0.06 
   7   4  11    0.03    0.07 
  -8  -4 -11    0.27    0.08 
   8   4  11    0.10    0.08 
   3  -5 -11    0.38    0.09 
   2  -5 -11    0.01    0.06 
   1  -5 -11    0.07    0.06 
   0  -5 -11   -0.04    0.05 
  -1  -5 -11    0.56    0.09 
  -6  -5 -11    0.02    0.05 
   6   5  11    0.03    0.06 
  -7  -5 -11    0.10    0.06 
   7   5  11    0.19    0.08 
   8   5  11    0.17    0.08 
   3  -6 -11    0.18    0.08 
   2  -6 -11    0.25    0.08 
   1  -6 -11    0.01    0.06 
   0  -6 -11    0.01    0.05 
  -1  -6 -11   -0.02    0.05 
  -2  -6 -11   -0.03    0.05 
  -4  -6 -11    0.45    0.09 
  -5  -6 -11    0.06    0.06 
   5   6  11   -0.04    0.05 
  -6  -6 -11   -0.06    0.06 
   6   6  11    0.01    0.07 
   7   6  11    0.32    0.09 
   8   6  11    0.31    0.10 
   3  -7 -11   -0.09    0.06 
   2  -7 -11    0.19    0.08 
   1  -7 -11    0.09    0.07 
   0  -7 -11    0.03    0.06 
  -1  -7 -11    0.06    0.06 
  -2  -7 -11    0.09    0.06 
  -2  -7 -11    0.09    0.06 
  -3  -7 -11    0.36    0.08 
  -4  -7 -11    0.28    0.08 
   4   7  11    0.25    0.08 
   5   7  11    0.61    0.10 
   6   7  11   -0.05    0.06 
   7   7  11   -0.06    0.07 
   2  -8 -11   -0.03    0.06 
   1  -8 -11    0.08    0.07 
   0  -8 -11   -0.03    0.05 
  -1  -8 -11    0.01    0.06 
  -1  -8 -11   -0.01    0.06 
  -2  -8 -11   -0.05    0.05 
  -3  -8 -11    0.20    0.07 
   4   8  11    0.08    0.07 
   5   8  11    0.09    0.07 
   6   8  11   -0.03    0.07 
   7   8  11   -0.10    0.07 
   1  -9 -11    0.17    0.08 
   0  -9 -11    0.12    0.07 
  -1  -9 -11   -0.05    0.05 
  -2  -9 -11   -0.01    0.06 
  -3  -9 -11    0.29    0.08 
  -4  -9 -11    0.05    0.07 
   5   9  11    0.07    0.08 
   6   9  11    0.09    0.08 
  -2 -10 -11    0.05    0.07 
  -3 -10 -11    0.06    0.07 
   0  -1 -12    0.01    0.09 
  -1  -1 -12    0.23    0.10 
  -2  -1 -12    0.10    0.10 
  -3  -1 -12   -0.02    0.09 
  -4  -1 -12   -0.03    0.09 
   1  -2 -12    0.31    0.09 
   0  -2 -12    0.00    0.09 
  -1  -2 -12    0.13    0.08 
  -2  -2 -12    0.00    0.07 
  -3  -2 -12    0.13    0.10 
  -4  -2 -12    0.25    0.11 
  -5  -2 -12   -0.13    0.08 
   2  -3 -12    0.00    0.07 
   1  -3 -12   -0.08    0.06 
   0  -3 -12    0.08    0.07 
  -1  -3 -12    0.18    0.08 
  -2  -3 -12    0.15    0.08 
  -3  -3 -12    0.08    0.08 
  -4  -3 -12    0.21    0.10 
  -5  -3 -12    0.17    0.11 
  -6  -3 -12    0.06    0.09 
   2  -4 -12    0.13    0.08 
   1  -4 -12    0.10    0.08 
   0  -4 -12    0.10    0.07 
  -2  -4 -12    0.07    0.07 
  -3  -4 -12    0.02    0.07 
  -4  -4 -12    0.04    0.08 
   2  -5 -12   -0.02    0.06 
   1  -5 -12   -0.02    0.06 
   0  -5 -12   -0.01    0.06 
  -1  -5 -12   -0.03    0.05 
  -3  -5 -12   -0.03    0.06 
  -7  -5 -12    0.04    0.06 
   1  -6 -12   -0.06    0.06 
   0  -6 -12   -0.03    0.06 
  -1  -6 -12    0.06    0.06 
  -5  -6 -12   -0.14    0.05 
  -6  -6 -12    0.02    0.07 
   6   6  12    0.09    0.13 
   1  -7 -12    0.31    0.09 
   0  -7 -12    0.04    0.06 
  -1  -7 -12    0.00    0.06 
  -2  -7 -12    0.02    0.06 
  -4  -7 -12    0.91    0.12 
   5   7  12    0.17    0.07 
   6   7  12    0.06    0.07 
   0  -8 -12   -0.07    0.06 
  -1  -8 -12   -0.06    0.06 
  -2  -8 -12   -0.02    0.06 
  -3  -8 -12    0.09    0.07 
  -3  -8 -12    0.02    0.07 
  -4  -8 -12    0.69    0.11 
   5   8  12    0.15    0.08 
  -2  -4 -13   -0.02    0.07 
  -3  -4 -13    0.03    0.08 
  -2  -5 -13    0.08    0.08 
  -3  -5 -13    0.01    0.07 
  -4  -5 -13   -0.03    0.07 
   0   0   0    0.00    0.00 
;
_shelx_hkl_checksum              37676
loop_
_space_group_symop_operation_xyz
'x, y, z'
'-x, -y, -z'
loop_
_atom_site_label
_atom_site_type_symbol
_atom_site_fract_x
_atom_site_fract_y
_atom_site_fract_z
_atom_site_U_iso_or_equiv
_atom_site_adp_type
_atom_site_occupancy
_atom_site_site_symmetry_order
_atom_site_calc_flag
_atom_site_refinement_flags_posn
_atom_site_refinement_flags_adp
C1 C 0.2030(3) 0.9186(3) 0.4844(3) 0.0506(6) Uani 1 1 d . .
C2 C 0.3618(2) 0.8603(3) 0.4652(3) 0.0438(6) Uani 1 1 d . .
C3 C 0.4176(3) 0.7054(3) 0.5414(3) 0.0467(6) Uani 1 1 d . .
C4 C 0.5657(3) 0.6561(3) 0.5244(3) 0.0482(6) Uani 1 1 d . .
C5 C 0.6675(2) 0.7606(3) 0.4269(3) 0.0452(6) Uani 1 1 d . .
C6 C 0.6130(2) 0.9147(3) 0.3505(3) 0.0456(6) Uani 1 1 d . .
C7 C 0.4659(3) 0.9641(3) 0.3689(3) 0.0456(6) Uani 1 1 d . .
C8 C -0.2858(3) 0.5098(3) 0.9097(3) 0.0596(7) Uani 1 1 d . .
H8 H -0.3798 0.5621 0.9014 0.072 Uiso 1 1 calc R U
C9 C -0.2571(3) 0.3912(3) 1.0394(3) 0.0599(8) Uani 1 1 d . .
H9 H -0.3313 0.3656 1.1190 0.072 Uiso 1 1 calc R U
C10 C -0.1186(3) 0.3098(3) 1.0521(3) 0.0526(7) Uani 1 1 d . .
H10 H -0.0998 0.2303 1.1402 0.063 Uiso 1 1 calc R U
C11 C -0.0074(2) 0.3471(3) 0.9330(3) 0.0434(6) Uani 1 1 d . .
C12 C -0.0380(3) 0.4699(3) 0.8050(3) 0.0540(7) Uani 1 1 d . .
H12 H 0.0360 0.4986 0.7253 0.065 Uiso 1 1 calc R U
C13 C -0.1764(3) 0.5508(3) 0.7933(3) 0.0594(7) Uani 1 1 d . .
H13 H -0.1951 0.6329 0.7063 0.071 Uiso 1 1 calc R U
C14 C 0.1421(2) 0.2675(3) 0.9358(3) 0.0465(6) Uani 1 1 d . .
H14 H 0.2137 0.3279 0.8645 0.056 Uiso 1 1 calc R U
C15 C 0.1932(2) 0.1220(3) 1.0241(2) 0.0413(6) Uani 1 1 d . .
C16 C 0.0946(2) 0.0119(3) 1.1348(3) 0.0451(6) Uani 1 1 d . .
C17 C 0.3508(2) 0.0599(3) 1.0123(2) 0.0388(5) Uani 1 1 d . .
C18 C 0.3919(2) -0.1029(3) 1.0733(3) 0.0468(6) Uani 1 1 d . .
H18 H 0.3195 -0.1737 1.1244 0.056 Uiso 1 1 calc R U
C19 C 0.4627(2) 0.1624(3) 0.9399(3) 0.0476(6) Uani 1 1 d . .
H19 H 0.4388 0.2723 0.9000 0.057 Uiso 1 1 calc R U
F1 F 0.32916(16) 0.59414(18) 0.63908(16) 0.0657(5) Uani 1 1 d . .
F2 F 0.61131(16) 0.50427(17) 0.60390(17) 0.0654(5) Uani 1 1 d . .
F3 F 0.70795(15) 1.02104(17) 0.25567(16) 0.0645(5) Uani 1 1 d . .
F4 F 0.42696(15) 1.11741(18) 0.28879(16) 0.0627(4) Uani 1 1 d . .
N1 N 0.0211(2) -0.0813(3) 1.2230(3) 0.0626(7) Uani 1 1 d . .
O1 O 0.11359(19) 0.8085(2) 0.5521(3) 0.0783(7) Uani 1 1 d . .
H1 H 0.0301 0.8491 0.5670 0.117 Uiso 1 1 calc R U
O2 O 0.1634(2) 1.0601(3) 0.4376(3) 0.0770(7) Uani 1 1 d . .
O3 O 0.81051(17) 0.7065(2) 0.4128(2) 0.0593(5) Uani 1 1 d . .
H3 H 0.8592 0.7797 0.3531 0.089 Uiso 1 1 calc R U
loop_
_atom_site_aniso_label
_atom_site_aniso_U_11
_atom_site_aniso_U_22
_atom_site_aniso_U_33
_atom_site_aniso_U_23
_atom_site_aniso_U_13
_atom_site_aniso_U_12
C1 0.0395(14) 0.0632(18) 0.0474(15) -0.0212(13) -0.0005(11) -0.0140(13)
C2 0.0324(12) 0.0544(15) 0.0447(14) -0.0212(12) 0.0007(10) -0.0118(11)
C3 0.0406(14) 0.0541(15) 0.0432(14) -0.0172(12) 0.0043(11) -0.0216(11)
C4 0.0457(14) 0.0444(14) 0.0501(15) -0.0152(12) -0.0037(12) -0.0105(11)
C5 0.0339(12) 0.0521(15) 0.0473(15) -0.0200(12) -0.0002(11) -0.0085(11)
C6 0.0353(13) 0.0520(15) 0.0413(14) -0.0136(12) 0.0072(10) -0.0170(11)
C7 0.0402(13) 0.0471(15) 0.0431(14) -0.0133(12) -0.0034(11) -0.0077(11)
C8 0.0341(14) 0.0578(17) 0.075(2) -0.0205(15) -0.0118(13) 0.0086(12)
C9 0.0387(14) 0.0587(17) 0.0639(18) -0.0179(14) 0.0052(13) 0.0028(12)
C10 0.0382(13) 0.0497(15) 0.0539(16) -0.0114(12) -0.0022(12) 0.0018(11)
C11 0.0337(12) 0.0396(13) 0.0511(15) -0.0144(11) -0.0059(11) -0.0028(10)
C12 0.0429(14) 0.0515(15) 0.0527(16) -0.0115(13) -0.0003(12) -0.0048(12)
C13 0.0505(16) 0.0539(16) 0.0579(17) -0.0087(13) -0.0157(14) 0.0034(13)
C14 0.0328(12) 0.0500(14) 0.0501(15) -0.0163(12) -0.0007(11) -0.0070(11)
C15 0.0292(12) 0.0460(14) 0.0456(14) -0.0174(11) -0.0025(10) -0.0046(10)
C16 0.0271(11) 0.0429(13) 0.0565(16) -0.0152(12) -0.0049(11) 0.0006(10)
C17 0.0273(11) 0.0442(13) 0.0422(13) -0.0166(11) -0.0034(10) -0.0031(10)
C18 0.0287(12) 0.0458(14) 0.0574(16) -0.0157(12) 0.0007(11) -0.0085(10)
C19 0.0321(12) 0.0400(13) 0.0599(16) -0.0135(12) -0.0019(11) -0.0039(10)
F1 0.0492(9) 0.0619(10) 0.0660(10) -0.0109(8) 0.0095(7) -0.0232(7)
F2 0.0555(9) 0.0484(9) 0.0746(11) -0.0102(8) -0.0065(8) -0.0089(7)
F3 0.0382(8) 0.0601(10) 0.0668(10) -0.0056(8) 0.0098(7) -0.0146(7)
F4 0.0441(8) 0.0552(9) 0.0643(10) -0.0068(8) 0.0001(7) -0.0049(7)
N1 0.0348(12) 0.0532(14) 0.0753(16) -0.0097(12) 0.0019(11) -0.0039(10)
O1 0.0352(10) 0.0695(13) 0.1002(16) -0.0116(12) 0.0055(11) -0.0168(9)
O2 0.0386(10) 0.0620(13) 0.1152(18) -0.0287(12) 0.0029(11) -0.0089(9)
O3 0.0376(10) 0.0537(11) 0.0700(13) -0.0161(9) 0.0051(9) -0.0068(8)
loop_
_atom_type_symbol
_atom_type_description
_atom_type_scat_dispersion_real
_atom_type_scat_dispersion_imag
_atom_type_scat_source
C C 0.0033 0.0016 'International Tables Vol C Tables 4.2.6.8 and 6.1.1.4'
H H 0.0000 0.0000 'International Tables Vol C Tables 4.2.6.8 and 6.1.1.4'
N N 0.0061 0.0033 'International Tables Vol C Tables 4.2.6.8 and 6.1.1.4'
O O 0.0106 0.0060 'International Tables Vol C Tables 4.2.6.8 and 6.1.1.4'
F F 0.0171 0.0103 'International Tables Vol C Tables 4.2.6.8 and 6.1.1.4'
loop_
_geom_angle_atom_site_label_1
_geom_angle_atom_site_label_2
_geom_angle_atom_site_label_3
_geom_angle
_geom_angle_site_symmetry_1
O2 C1 O1 123.5(2) .
O2 C1 C2 121.4(2) .
O1 C1 C2 115.1(2) .
C3 C2 C7 115.3(2) .
C3 C2 C1 124.1(2) .
C7 C2 C1 120.6(2) .
F1 C3 C4 115.9(2) .
F1 C3 C2 121.3(2) .
C4 C3 C2 122.8(2) .
F2 C4 C3 119.1(2) .
F2 C4 C5 119.8(2) .
C3 C4 C5 121.1(2) .
O3 C5 C6 124.5(2) .
O3 C5 C4 119.0(2) .
C6 C5 C4 116.5(2) .
F3 C6 C7 119.0(2) .
F3 C6 C5 118.7(2) .
C7 C6 C5 122.3(2) .
F4 C7 C6 116.6(2) .
F4 C7 C2 121.5(2) .
C6 C7 C2 121.9(2) .
C13 C8 C9 120.1(2) .
C13 C8 H8 120.0 .
C9 C8 H8 120.0 .
C8 C9 C10 120.4(3) .
C8 C9 H9 119.8 .
C10 C9 H9 119.8 .
C9 C10 C11 120.0(2) .
C9 C10 H10 120.0 .
C11 C10 H10 120.0 .
C12 C11 C10 118.4(2) .
C12 C11 C14 117.7(2) .
C10 C11 C14 123.9(2) .
C13 C12 C11 121.3(2) .
C13 C12 H12 119.4 .
C11 C12 H12 119.4 .
C8 C13 C12 119.8(2) .
C8 C13 H13 120.1 .
C12 C13 H13 120.1 .
C15 C14 C11 130.8(2) .
C15 C14 H14 114.6 .
C11 C14 H14 114.6 .
C14 C15 C16 121.0(2) .
C14 C15 C17 123.8(2) .
C16 C15 C17 115.21(19) .
N1 C16 C15 176.9(2) .
C18 C17 C19 117.6(2) .
C18 C17 C15 121.0(2) .
C19 C17 C15 121.5(2) .
C19 C18 C17 121.6(2) 2_657
C19 C18 H18 119.2 2_657
C17 C18 H18 119.2 .
C18 C19 C17 120.8(2) 2_657
C18 C19 H19 119.6 2_657
C17 C19 H19 119.6 .
C1 O1 H1 109.5 .
C5 O3 H3 109.5 .
loop_
_geom_bond_atom_site_label_1
_geom_bond_atom_site_label_2
_geom_bond_distance
_geom_bond_site_symmetry_2
C1 O2 1.211(3) .
C1 O1 1.285(3) .
C1 C2 1.491(3) .
C2 C3 1.383(3) .
C2 C7 1.393(3) .
C3 F1 1.343(3) .
C3 C4 1.378(3) .
C4 F2 1.342(3) .
C4 C5 1.385(3) .
C5 O3 1.343(3) .
C5 C6 1.375(3) .
C6 F3 1.346(2) .
C6 C7 1.371(3) .
C7 F4 1.338(3) .
C8 C13 1.365(4) .
C8 C9 1.376(4) .
C8 H8 0.9300 .
C9 C10 1.384(3) .
C9 H9 0.9300 .
C10 C11 1.393(3) .
C10 H10 0.9300 .
C11 C12 1.383(3) .
C11 C14 1.464(3) .
C12 C13 1.380(3) .
C12 H12 0.9300 .
C13 H13 0.9300 .
C14 C15 1.342(3) .
C14 H14 0.9300 .
C15 C16 1.437(3) .
C15 C17 1.485(3) .
C16 N1 1.143(3) .
C17 C18 1.387(3) .
C17 C19 1.393(3) .
C18 C19 1.377(3) 2_657
C18 H18 0.9300 .
C19 C18 1.377(3) 2_657
C19 H19 0.9300 .
O1 H1 0.8200 .
O3 H3 0.8200 .
