#------------------------------------------------------------------------------
#$Date: 2019-11-24 11:10:46 +0200 (Sun, 24 Nov 2019) $
#$Revision: 237757 $
#$URL: file:///home/coder/svn-repositories/cod/cif/7/23/75/7237541.cif $
#------------------------------------------------------------------------------
#
# This file is available in the Crystallography Open Database (COD),
# http://www.crystallography.net/
#
# All data on this site have been placed in the public domain by the
# contributors.
#
data_7237541
loop_
_publ_author_name
'Sato, Ryonosuke'
'Kawamoto, Tadashi'
'Mori, Takehiko'
_publ_section_title
;
 Asymmetrical hole/electron transport in donor--acceptor mixed-stack
 cocrystals
;
_journal_issue                   3
_journal_name_full               'Journal of Materials Chemistry C'
_journal_page_first              567
_journal_paper_doi               10.1039/C8TC05190A
_journal_volume                  7
_journal_year                    2019
_chemical_formula_moiety         'C16 H10 S4, C12 H2 F2 N4'
_chemical_formula_sum            'C28 H12 F2 N4 S4'
_chemical_formula_weight         570.67
_space_group_crystal_system      triclinic
_space_group_IT_number           2
_space_group_name_Hall           '-P 1'
_space_group_name_H-M_alt        'P -1'
_atom_sites_solution_hydrogens   geom
_atom_sites_solution_primary     direct
_atom_sites_solution_secondary   difmap
_audit_update_record
;
2018-08-15 deposited with the CCDC.
2018-12-11 downloaded from the CCDC.
;
_cell_angle_alpha                109.866(3)
_cell_angle_beta                 109.641(3)
_cell_angle_gamma                97.879(4)
_cell_formula_units_Z            1
_cell_length_a                   7.9104(5)
_cell_length_b                   8.8995(6)
_cell_length_c                   10.3989(7)
_cell_measurement_reflns_used    2082
_cell_measurement_temperature    270
_cell_measurement_theta_max      67.92
_cell_measurement_theta_min      4.96
_cell_volume                     621.80(8)
_computing_cell_refinement       'RAPID AUTO'
_computing_data_collection       'RAPID AUTO (Rigaku, ????)'
_computing_data_reduction        'RAPID AUTO'
_computing_molecular_graphics    'CrystalStructure 4.3'
_computing_publication_material  'CrystalStructure 4.3 (Rigaku, 2018)'
_computing_structure_refinement  'SHELXL Version 2018/1 (Sheldrick, 2008)'
_computing_structure_solution    'SHELXT Version 2014/5 (Sheldrick, 2014)'
_diffrn_ambient_temperature      270
_diffrn_detector_area_resol_mean 10.000
_diffrn_measured_fraction_theta_full 0.988
_diffrn_measured_fraction_theta_max 0.988
_diffrn_measurement_device_type  'Rigaku R-AXIS RAPID'
_diffrn_measurement_method       \w
_diffrn_radiation_type           'Cu K\a'
_diffrn_radiation_wavelength     1.54187
_diffrn_reflns_av_R_equivalents  0.0779
_diffrn_reflns_av_unetI/netI     0.0929
_diffrn_reflns_Laue_measured_fraction_full 0.988
_diffrn_reflns_Laue_measured_fraction_max 0.988
_diffrn_reflns_limit_h_max       9
_diffrn_reflns_limit_h_min       -9
_diffrn_reflns_limit_k_max       10
_diffrn_reflns_limit_k_min       -10
_diffrn_reflns_limit_l_max       11
_diffrn_reflns_limit_l_min       -12
_diffrn_reflns_number            6806
_diffrn_reflns_point_group_measured_fraction_full 0.988
_diffrn_reflns_point_group_measured_fraction_max 0.988
_diffrn_reflns_theta_full        63.513
_diffrn_reflns_theta_max         63.513
_diffrn_reflns_theta_min         4.960
_diffrn_standards_number         0
_exptl_absorpt_coefficient_mu    3.873
_exptl_absorpt_correction_T_max  0.904
_exptl_absorpt_correction_T_min  0.425
_exptl_absorpt_correction_type   multi-scan
_exptl_absorpt_process_details   'ABSCOR (Rigaku, 1995)'
_exptl_crystal_colour            black
_exptl_crystal_density_diffrn    1.524
_exptl_crystal_density_method    'not measured'
_exptl_crystal_description       needle
_exptl_crystal_F_000             290.00
_exptl_crystal_size_max          0.135
_exptl_crystal_size_mid          0.033
_exptl_crystal_size_min          0.026
_refine_diff_density_max         1.17
_refine_diff_density_min         -0.42
_refine_ls_extinction_method     none
_refine_ls_goodness_of_fit_ref   1.096
_refine_ls_hydrogen_treatment    constr
_refine_ls_number_parameters     172
_refine_ls_number_reflns         2011
_refine_ls_number_restraints     25
_refine_ls_R_factor_all          0.1284
_refine_ls_R_factor_gt           0.1030
_refine_ls_shift/su_max          0.000
_refine_ls_structure_factor_coef Fsqd
_refine_ls_weighting_details
'w = 1/[\s^2^(Fo^2^)+(0.1979P)^2^] where P=(Fo^2^+2Fc^2^)/3'
_refine_ls_weighting_scheme      calc
_refine_ls_wR_factor_gt          0.2908
_refine_ls_wR_factor_ref         0.3315
_reflns_Friedel_coverage         0.000
_reflns_number_gt                1162
_reflns_number_total             2011
_reflns_threshold_expression     F^2^>2.0\s(F^2^)
_cod_data_source_file            c8tc05190a2.cif
_cod_data_source_block           (4T)(F2TCNQ)
_cod_original_cell_volume        621.80(7)
_cod_database_code               7237541
_shelx_res_file
;
TITL sample2
    shelxl.res
    created by SHELXL-2018/1 at 14:15:57 on 27-Jul-2018
CELL  1.54187 7.91037 8.89949 10.39889 109.86560 109.64110 97.87910
ZERR  1 0.00046 0.00055 0.00065 0.00300 0.00320 0.00360
LATT 1
SFAC C H N F S
UNIT 28 12 4 2 4
SHEL 99999.000000 0.861140
L.S. 10
FMAP 2
PLAN 47
WPDB -2
HTAB
BOND $H
CONF
LIST 4
TEMP 23.0
ACTA
SIZE 0.135 0.026 0.033
RIGU C7 C8 C9 C10
WGHT    0.197900
FVAR       0.78677
F1    4    0.223098    0.589455    0.080398    11.00000    0.07215    0.05816 =
         0.07816    0.03375    0.05126    0.03185
N1    3    0.404534    0.041348    0.126841    11.00000    0.09706    0.06135 =
         0.11271    0.05310    0.06828    0.04151
N2    3    0.038914    0.338547    0.177699    11.00000    0.06833    0.07409 =
         0.08678    0.04148    0.05524    0.03096
C1    1    0.367884    0.156282    0.112253    11.00000    0.05439    0.05320 =
         0.07074    0.02427    0.04260    0.01477
C2    1    0.163376    0.328510    0.143711    11.00000    0.06311    0.04233 =
         0.05735    0.02622    0.03090    0.01650
C3    1    0.314622    0.300296    0.099590    11.00000    0.05677    0.03874 =
         0.05599    0.02391    0.03110    0.01898
C4    1    0.405631    0.398344    0.051298    11.00000    0.05410    0.04048 =
         0.03936    0.01444    0.02677    0.01934
C5    1    0.553640    0.357870    0.010081    11.00000    0.06399    0.03970 =
         0.05126    0.02030    0.03160    0.02653
AFIX  43
H5    2    0.590070    0.264536    0.015938    11.00000   -1.20000
AFIX   0
C6    1    0.358664    0.544755    0.037629    11.00000    0.05676    0.04565 =
         0.05743    0.02456    0.03917    0.02935
S2    5    0.417925    0.295929    0.558551    11.00000    0.07277    0.05529 =
         0.06575    0.02335    0.04439    0.02079
C11   1    0.246038    0.331615    0.622646    11.00000    0.05323    0.06243 =
         0.04303    0.01002    0.02547    0.00447
C12   1    0.204310    0.472728    0.617591    11.00000    0.06017    0.06427 =
         0.05469    0.02475    0.02920    0.01463
AFIX  43
H12   2    0.113206    0.511308    0.645812    11.00000   -1.20000
AFIX   0
C13   1    0.311705    0.554151    0.565840    11.00000    0.06358    0.07944 =
         0.05940    0.03214    0.03949    0.03328
AFIX  43
H13   2    0.301088    0.653429    0.557207    11.00000   -1.20000
AFIX   0
C14   1    0.432446    0.473857    0.529669    11.00000    0.06028    0.05311 =
         0.04383    0.02131    0.02467    0.00941
SAME S2 > C14
S1    5   -0.020629    0.236458    0.716249    11.00000    0.08476    0.08808 =
         0.08145    0.03128    0.05078    0.02072
C10   1    0.161468    0.210264    0.668033    11.00000    0.05551    0.05536 =
         0.04536    0.00960    0.02641    0.00397
C9    1    0.212657    0.066489    0.683304    11.00000    0.03960    0.04162 =
         0.02898    0.00538    0.01265    0.00896
AFIX  43
H9    2    0.307567    0.027773    0.661653    11.00000   -1.20000
AFIX   0
C8    1    0.099806   -0.004942    0.734808    11.00000    0.11519    0.05490 =
         0.06656    0.02476    0.03884    0.01020
AFIX  43
H8    2    0.112449   -0.098486    0.753966    11.00000   -1.20000
AFIX   0
C7    1   -0.027710    0.069625    0.754884    11.00000    0.08012    0.08136 =
         0.06505    0.02751    0.03135   -0.02327
AFIX  43
H7    2   -0.114052    0.032364    0.787736    11.00000   -1.20000
AFIX   0
HKLF 4




REM  sample2
REM R1 =  0.1030 for    1162 Fo > 4sig(Fo)  and  0.1284 for all    2011 data
REM    172 parameters refined using     25 restraints

END

WGHT      0.1977      0.0000

REM Instructions for potential hydrogen bonds
EQIV $3 -x+1, -y, -z
HTAB C5 N1_$3
EQIV $4 -x, -y+1, -z+1
HTAB C12 N2_$4

REM Highest difference peak  1.173,  deepest hole -0.421,  1-sigma level  0.152
Q1    1   0.2820  0.4211  0.5675  11.00000  0.05    1.17
Q2    1   0.6244  0.2404  0.0241  11.00000  0.05    0.73
Q3    1   0.3305  0.2759  0.6163  11.00000  0.05    0.67
Q4    1   0.3552  0.1761  0.1360  11.00000  0.05    0.63
Q5    1   0.4676  0.5008  0.5176  11.00000  0.05    0.61
Q6    1  -0.0334  0.0073  0.7636  11.00000  0.05    0.59
Q7    1   0.5634  0.3323  0.5581  11.00000  0.05    0.58
Q8    1   0.1247  0.2452  0.6936  11.00000  0.05    0.52
Q9    1  -0.0904  0.1178  0.7398  11.00000  0.05    0.50
Q10   1   0.4694  0.1756  0.5886  11.00000  0.05    0.49
Q11   1   0.3139  0.0572  0.1479  11.00000  0.05    0.48
Q12   1   0.2046  0.5478  0.0580  11.00000  0.05    0.42
Q13   1   0.0428  0.1048  0.7156  11.00000  0.05    0.41
Q14   1   0.2613  0.5413  0.5805  11.00000  0.05    0.37
Q15   1  -0.1799  0.0258  0.7787  11.00000  0.05    0.30
Q16   1   0.5000  0.5000  0.0000  10.50000  0.05    0.29
Q17   1  -0.1808  0.2236  0.7158  11.00000  0.05    0.29
Q18   1   0.2984  0.6346  0.0023  11.00000  0.05    0.27
Q19   1  -0.1073 -0.0786  0.7982  11.00000  0.05    0.26
Q20   1   0.2652  0.2626  0.4229  11.00000  0.05    0.26
Q21   1   0.1786 -0.1388  0.7443  11.00000  0.05    0.25
Q22   1   0.0835  0.2278  0.2004  11.00000  0.05    0.25
Q23   1   0.1846  0.1847  0.1518  11.00000  0.05    0.25
Q24   1   0.2546  0.4448  0.1007  11.00000  0.05    0.21
Q25   1   0.4453  0.2793  0.0618  11.00000  0.05    0.20
Q26   1   0.5581  0.2955  0.6852  11.00000  0.05    0.20
Q27   1   0.3957  0.0614  0.6323  11.00000  0.05    0.20
Q28   1   0.4682  0.0761  0.1292  11.00000  0.05    0.19
Q29   1  -0.0800  0.3606  0.6980  11.00000  0.05    0.18
Q30   1   0.0367  0.3797  0.8196  11.00000  0.05    0.17
Q31   1   0.1788  0.4608  0.7381  11.00000  0.05    0.16
Q32   1   0.2881  0.6803  0.4882  11.00000  0.05    0.16
Q33   1  -0.0558  0.3035  0.1847  11.00000  0.05    0.15
Q34   1   0.4753  0.4130  0.6551  11.00000  0.05    0.15
Q35   1   0.3533  0.1624  0.4571  11.00000  0.05    0.15
Q36   1   0.0792  0.0620  0.5683  11.00000  0.05    0.15
Q37   1  -0.1597  0.3422  0.7428  11.00000  0.05    0.15
Q38   1   0.1099  0.3363  0.5058  11.00000  0.05    0.15
Q39   1   0.0118 -0.1476  0.7059  11.00000  0.05    0.14
Q40   1  -0.1247  0.3067  0.1444  11.00000  0.05    0.14
Q41   1   0.1970  0.5721  0.1878  11.00000  0.05    0.13
Q42   1   0.3019  0.2856  0.2118  11.00000  0.05    0.13
Q43   1  -0.0849  0.1168  0.6162  11.00000  0.05    0.13
Q44   1   0.6131  0.1640  0.5955  11.00000  0.05    0.13
Q45   1   0.2731 -0.0556  0.5588  11.00000  0.05    0.12
Q46   1   0.3712  0.6337  0.5145  11.00000  0.05    0.12
Q47   1  -0.1872  0.2031  0.5768  11.00000  0.05    0.12
;
_shelx_res_checksum              61962
_shelx_hkl_file
;
   0   0   1    4.41    1.84
   0   0   1    5.07    1.67
   0   0   1    3.24    0.75
   0   0   1    3.53    1.00
   0   0  -1    2.76    0.92
   0   0  -1    3.41    1.39
   0   0  -1    3.02    1.06
   0   0  -1    3.02    1.37
   0   0  -1    4.42    1.97
   0   0   2   75.50    8.47
   0   0   2   77.01    5.07
   0   0   2   67.36    8.96
   0   0   2   75.86    6.39
   0   0  -2   76.97    8.64
   0   0  -2   80.49    6.91
   0   0  -2   74.71    6.82
   0   0  -2   81.69    8.20
   0   0  -2   72.61    9.87
   0   0   3  110.97   14.41
   0   0   3   99.36   12.00
   0   0   3  114.89    9.12
   0   0   3   99.32    7.20
   0   0  -3   96.72    8.33
   0   0  -3  126.73   16.46
   0   0  -3  107.69    8.97
   0   0  -3  104.45    9.10
   0   0  -3  110.90   10.00
   0   0   4    3.53    1.01
   0   0   4    5.50    2.09
   0   0   4    6.00    4.30
   0   0   4    6.74    3.67
   0   0  -4    4.86    1.63
   0   0  -4    4.89    1.31
   0   0  -4    5.19    2.17
   0   0  -4    5.74    4.05
   0   0  -4    4.11    1.39
   0   0   5  106.92    8.61
   0   0   5  186.12   20.49
   0   0   5  137.47   16.89
   0   0   5  109.43    8.41
   0   0  -5  150.95   13.72
   0   0  -5  132.95   11.59
   0   0  -6   83.93    9.91
   0   0  -6   84.25   15.10
   0   0  -7  136.32   23.53
   0   0  -7  150.60   22.46
   0   0  -8   24.57   14.05
   0   0  -8   27.48   10.56
   0   0  -9    3.83    5.75
   0   0  -9    7.07    6.35
   0   0  10    2.57    4.75
   0   0 -10    3.46    4.04
   0   1 -11   -1.08    3.01
   0   1 -10    6.29    5.78
   0  -1  10    5.65    5.57
   0   1  -9   18.99    7.34
   0   1  -9   11.22    5.10
   0   1  -8   10.24    7.81
   0   1  -8   15.86    7.66
   0   1  -7    1.52    2.42
   0   1  -7    2.89    5.76
   0   1  -6  138.60   12.91
   0   1  -6  145.75   19.88
   0   1  -6  111.67   13.08
   0  -1   6  117.18   12.85
   0  -1   6  164.57   17.57
   0   1  -5  847.99   74.60
   0   1  -5  754.34   67.24
   0   1  -5  618.67   51.80
   0   1  -5  964.43   89.73
   0  -1   5  605.13   51.15
   0  -1   5  769.66   76.20
   0  -1   5  718.46   63.75
   0   1  -4    1.09    1.29
   0   1  -4    2.32    2.57
   0   1  -4    2.63    3.34
   0   1  -4    2.28    1.26
   0   1  -4    2.23    2.32
   0  -1   4    4.50    3.47
   0  -1   4    2.67    1.66
   0  -1   4    1.44    0.96
   0  -1   4    3.64    1.26
   0   1  -3   96.10    7.82
   0   1  -3  115.00   12.34
   0   1  -3  128.27   10.88
   0   1  -3   97.16    8.10
   0   1  -3  106.16    9.07
   0  -1   3   96.10    7.79
   0  -1   3  115.64   12.76
   0  -1   3  102.52   10.73
   0  -1   3  100.08    8.64
   0   1  -2    7.66    3.50
   0   1  -2    6.61    2.85
   0   1  -2    6.37    2.70
   0   1  -2    5.65    1.90
   0   1  -2    7.15    3.49
   0  -1   2    5.67    1.84
   0  -1   2    7.46    3.63
   0  -1   2    6.55    3.09
   0   1  -1  838.33   68.54
   0   1  -1  904.98   72.28
   0   1  -1  798.05   67.35
   0   1  -1  803.89   64.46
   0  -1   1  877.12   70.54
   0  -1   1  872.01   71.32
   0  -1   1  808.38   64.61
   0  -1   1  713.76   56.04
   0  -1   1  759.84   64.19
   0   1   0 1466.25  137.35
   0   1   0 1380.06  127.21
   0   1   0 1606.54  194.00
   0   1   0 1373.20  128.77
   0   1   0 1274.74  114.51
   0  -1   0 1395.50  131.19
   0  -1   0 1441.24  135.09
   0  -1   0 1431.39  131.36
   0  -1   0 1500.38  136.57
   0  -1   0 1383.48  211.22
   0   1   1  691.53   62.93
   0   1   1  684.38   59.52
   0   1   1  765.58   65.85
   0   1   1  684.16   61.43
   0  -1  -1  688.13   60.97
   0  -1  -1  679.50   58.98
   0  -1  -1  784.57   68.32
   0  -1  -1  673.49   60.34
   0   1   216201.56 3177.99
   0   1   218589.52 3663.49
   0   1   217766.88 3458.50
   0  -1  -216104.07 3137.20
   0  -1  -215887.64 3119.61
   0  -1  -216400.43 3208.63
   0  -1  -218423.16 3594.88
   0   1   3   16.06    6.33
   0   1   3   16.76    3.58
   0   1   3   18.43    7.01
   0  -1  -3   13.67    3.33
   0  -1  -3   14.20    4.73
   0  -1  -3   14.07    3.61
   0   1   4   59.94   11.10
   0   1   4   47.20    5.76
   0   1   4   62.69    7.77
   0  -1  -4   59.52    6.65
   0  -1  -4   65.95   11.62
   0  -1  -4   53.96    5.58
   0   1   5    5.03    5.38
   0   1   5    2.82    1.83
   0   1   5    6.74    5.39
   0  -1  -5    5.21    3.93
   0  -1  -5    4.83    4.04
   0  -1  -6   32.22    9.83
   0  -1  -6   28.91    6.13
   0  -1  -7   30.15   11.35
   0  -1  -7   27.07   11.04
   0  -1  -8   16.50    9.19
   0  -1  -8   13.24    8.60
   0  -1  -9   -0.10    3.62
   0  -1  -9    0.74    1.80
   0   1  10    0.49    2.12
   0  -1 -10    0.12    1.81
   0   2 -11    1.84    2.55
   0   2 -10    9.33    7.47
   0  -2  10    8.84    3.09
   0   2  -9    4.28    3.67
   0  -2   9    4.44    3.08
   0   2  -8    1.13    2.95
   0   2  -8    0.45    2.19
   0   2  -7  359.62   35.21
   0   2  -7  252.24   26.16
   0   2  -7  279.84   35.65
   0   2  -6    4.57    3.42
   0   2  -6    5.51    2.85
   0   2  -6    5.81    2.99
   0  -2   6    5.66    1.48
   0  -2   6    5.27    3.97
   0  -2   6    2.08    2.43
   0   2  -5  100.71   12.12
   0   2  -5   89.20   13.11
   0   2  -5   92.28   10.21
   0  -2   5   92.58    9.76
   0  -2   5   79.07   11.32
   0   2  -4    2.72    1.60
   0   2  -4    3.82    3.12
   0   2  -4    3.26    2.19
   0   2  -4    2.50    3.27
   0   2  -4    2.41    0.77
   0  -2   4    3.05    2.94
   0  -2   4    1.50    1.59
   0  -2   4    1.64    2.99
   0  -2   4    1.72    0.91
   0   2  -3  752.75   61.36
   0   2  -3  768.26   66.19
   0   2  -3  716.99   71.02
   0   2  -3  731.42   63.43
   0   2  -3  765.02   72.57
   0  -2   3  800.80   77.53
   0  -2   3  851.81   81.47
   0  -2   3  746.91   60.90
   0   2  -2   19.60    6.04
   0   2  -2   16.18    5.24
   0   2  -2   18.44    3.19
   0   2  -2   18.81    2.82
   0  -2   2   20.25    3.44
   0  -2   2   20.42    6.10
   0  -2   2   17.27    2.41
   0  -2   2   17.24    5.12
   0   2  -1   19.27    2.94
   0   2  -1   19.68    4.65
   0   2  -1   21.27    3.81
   0   2  -1   17.39    3.98
   0  -2   1   15.76    3.53
   0  -2   1   20.42    3.22
   0  -2   1   19.54    4.68
   0  -2   1   18.22    2.68
   0   2   0   28.18    6.09
   0   2   0   26.58    5.92
   0   2   0   25.17    5.57
   0  -2   0   24.04   19.35
   0  -2   0   27.37    4.28
   0  -2   0   29.12    6.36
   0  -2   0   12.48    4.91
   0  -2   0   28.81    4.44
   0   2   1  414.92   31.63
   0   2   1  388.46   37.19
   0   2   1  373.71   34.59
   0   2   1  452.67  202.79
   0  -2  -1  434.58   36.75
   0  -2  -1  367.44   34.26
   0  -2  -1  370.65   35.27
   0  -2  -1  379.00   34.93
   0   2   2   86.60    8.89
   0   2   2   88.47   18.87
   0   2   2   87.78   11.00
   0  -2  -2   95.69   10.63
   0  -2  -2   96.76   12.90
   0  -2  -2   95.57   12.18
   0  -2  -2   87.90   11.03
   0   2   3  279.19   38.04
   0   2   3  297.51   27.36
   0   2   3  317.13   32.61
   0  -2  -3  309.09   26.83
   0  -2  -3  266.96   25.39
   0  -2  -3  420.68   40.62
   0  -2  -3  349.86   29.18
   0   2   4   62.39   19.25
   0   2   4   89.71   14.72
   0   2   4   63.79    8.28
   0  -2  -4   71.11    8.29
   0  -2  -4   80.94    7.93
   0  -2  -4   80.66   11.51
   0  -2  -4   87.13   13.98
   0   2   5    0.77    1.62
   0  -2  -5    2.43    3.09
   0  -2  -5    2.51    3.39
   0  -2  -6    3.28    4.82
   0  -2  -6    4.45    3.42
   0  -2  -7   17.11    9.09
   0  -2  -7   19.97   10.40
   0  -2  -8   21.01    6.21
   0  -2  -8   16.82    5.88
   0   2   9   -0.30    2.81
   0  -2  -9    3.38    2.48
   0  -2  -9    2.69    3.41
   0   3 -11    0.03    3.07
   0   3 -10    1.60    5.57
   0   3  -9    3.62    6.39
   0   3  -8   26.18    7.64
   0   3  -8   30.88   12.44
   0  -3   8   40.51    5.69
   0   3  -7  124.28   21.48
   0   3  -7  141.24   17.73
   0   3  -6  200.10   15.73
   0   3  -6  183.32   24.39
   0   3  -6  193.50   20.95
   0  -3   6  200.12   17.54
   0  -3   6  173.73   21.13
   0   3  -5  124.99   15.90
   0   3  -5   90.04    7.17
   0   3  -5  158.22   16.94
   0  -3   5  142.00   13.75
   0  -3   5   91.40    7.45
   0  -3   5   98.66    7.72
   0  -3   5  119.56   11.41
   0   3  -4  169.13   12.76
   0   3  -4  166.34   13.96
   0   3  -4  186.25   22.05
   0   3  -4  208.57   21.57
   0  -3   4  180.42   13.38
   0  -3   4  181.55   19.61
   0  -3   4  165.05   12.37
   0  -3   4  183.08   19.13
   0   3  -3  241.17   24.33
   0   3  -3  228.29   26.44
   0   3  -3  228.96   17.43
   0   3  -3  221.89   19.94
   0  -3   3  217.17   17.21
   0  -3   3  273.69   27.70
   0  -3   3  279.48   29.77
   0  -3   3  250.37   19.02
   0   3  -2  310.30   28.37
   0   3  -2  369.28   40.29
   0   3  -2  304.25   24.91
   0  -3   2  262.76   21.33
   0  -3   2  323.50   26.15
   0  -3   2  361.86   28.76
   0   3  -1  443.83   38.58
   0   3  -1  347.48   29.37
   0   3  -1  440.43   39.02
   0  -3   1  457.97   38.34
   0  -3   1  436.09   42.84
   0  -3   1  421.24   34.69
   0  -3   1  363.49   30.67
   0  -3   1  472.60   96.88
   0   3   0  726.69   70.40
   0   3   0  806.99   69.98
   0   3   0  800.51   73.75
   0  -3   0  822.84   74.09
   0  -3   0  851.81   95.92
   0  -3   0  645.70   62.89
   0  -3   0  897.84   85.23
   0  -3   0  726.56   60.37
   0   3   1    2.09    2.63
   0   3   1    2.43   12.27
   0   3   1    0.89    1.45
   0   3   1    1.36    2.65
   0  -3  -1    0.71    1.98
   0  -3  -1    1.07    2.83
   0  -3  -1    1.29    1.53
   0  -3  -1    1.30    2.02
   0   3   2  156.29   17.08
   0   3   2  195.49  104.06
   0   3   2  144.41   16.98
   0  -3  -2  159.07   17.65
   0  -3  -2  160.95   17.97
   0  -3  -2  170.68   16.77
   0  -3  -2  172.42   15.65
   0   3   3   22.57    7.37
   0   3   3   19.65    5.16
   0   3   3   38.01   59.16
   0  -3  -3   26.59    8.17
   0  -3  -3   27.55    5.35
   0  -3  -3   17.49    5.33
   0  -3  -3   24.93    6.67
   0   3   4    9.83    4.29
   0  -3  -4    9.95    5.25
   0  -3  -4   10.95    3.48
   0  -3  -4   10.07    3.45
   0  -3  -4    9.37    3.64
   0   3   5    0.84    2.04
   0  -3  -5    0.32    3.28
   0  -3  -5    1.55    3.13
   0  -3  -6   14.63    7.45
   0  -3  -6   15.66    8.37
   0  -3  -7    3.58    5.61
   0  -3  -7    2.47    5.00
   0  -3  -8    9.10    6.59
   0  -3  -8   13.79    4.68
   0   4 -11   13.76    9.48
   0   4 -10   24.30   18.00
   0   4  -9    0.03    1.58
   0   4  -9    0.14    2.84
   0   4  -8    0.32    1.65
   0   4  -8    0.65    4.21
   0   4  -7   40.29   10.79
   0   4  -7   35.73   14.92
   0   4  -6    2.15    4.14
   0   4  -6    1.64    4.99
   0  -4   6    1.89    2.89
   0   4  -5  395.88   45.08
   0   4  -5  385.97   33.61
   0  -4   5  301.32   26.25
   0  -4   5  364.38   38.34
   0  -4   5  406.88   37.96
   0   4  -4  530.22   42.89
   0   4  -4  519.49   57.15
   0   4  -4  487.81   47.60
   0   4  -4  571.21   45.40
   0  -4   4  420.33   45.37
   0  -4   4  543.07   52.69
   0  -4   4  489.28   38.92
   0  -4   4  483.01   44.42
   0   4  -3   46.50    8.13
   0   4  -3   52.21   13.59
   0   4  -3   46.56    5.52
   0   4  -3   57.29    6.19
   0  -4   3   50.74    8.83
   0  -4   3   51.37    8.31
   0   4  -2  372.13   31.76
   0   4  -2  325.58   29.61
   0   4  -2  333.74   29.08
   0  -4   2  331.93   29.38
   0  -4   2  328.38  130.87
   0  -4   2  379.90   37.92
   0   4  -1  273.37   23.11
   0   4  -1  358.45   28.96
   0   4  -1  353.45   31.80
   0   4  -1  328.99   29.58
   0  -4   1  364.83  218.22
   0  -4   1  347.65   34.57
   0  -4   1  351.70   28.64
   0  -4   1  356.02   36.61
   0   4   0  144.78   16.71
   0   4   0  180.48   15.77
   0   4   0  172.60   15.24
   0  -4   0  168.14   18.64
   0  -4   0  169.10   21.44
   0  -4   0  163.85   21.04
   0  -4   0  170.68   19.84
   0   4   1  620.73   61.84
   0   4   1  615.18   60.91
   0   4   1  553.96   57.90
   0  -4  -1  658.41   69.37
   0  -4  -1  532.22   50.85
   0  -4  -1  761.91   79.07
   0  -4  -1  591.71   56.20
   0  -4  -1  634.63   62.91
   0   4   2   -0.80  160.16
   0   4   2  665.70   72.20
   0   4   2  712.05   72.27
   0  -4  -2  623.14   63.94
   0  -4  -2  676.87   65.81
   0  -4  -2  754.27   74.74
   0  -4  -2  779.07   81.02
   0   4   3   15.92    6.23
   0  -4  -3   15.40    4.00
   0  -4  -3   13.14    5.95
   0  -4  -3   18.84    6.82
   0   4   4   12.64    5.22
   0  -4  -4   14.99    6.39
   0  -4  -4   10.82    3.69
   0  -4  -4   10.85    4.67
   0   4   5    0.26    1.96
   0  -4  -5    0.08    2.57
   0  -4  -5    0.60    2.68
   0  -4  -6   11.02    7.40
   0  -4  -6   13.62    6.92
   0  -4  -7   15.13    7.47
   0  -4  -7   14.20    7.15
   0   4   8    1.77    2.12
   0  -4  -8    2.23    3.69
   0   5 -11    8.20    5.69
   0   5 -10    4.04    2.29
   0   5 -10    4.22    4.84
   0   5  -9   37.05   10.65
   0   5  -9   33.86   16.34
   0   5  -8    9.20    4.58
   0   5  -8    8.79   15.00
   0   5  -7  131.37   16.39
   0   5  -7  145.44   38.21
   0   5  -6   11.91    6.71
   0   5  -6   18.83    8.38
   0   5  -5  197.90   19.24
   0   5  -5  185.64   23.75
   0  -5   5  145.84   16.13
   0  -5   5  186.66   16.79
   0   5  -4   19.51    3.29
   0   5  -4   19.20    4.36
   0   5  -4   18.65    3.33
   0   5  -4   20.21   12.18
   0  -5   4   21.60    5.91
   0  -5   4    2.02    5.93
   0  -5   4   16.24    5.80
   0   5  -3  275.12   27.40
   0   5  -3  230.51   20.77
   0   5  -3  294.25   24.34
   0  -5   3  297.45   31.67
   0  -5   3  253.90  140.94
   0  -5   3  299.02   27.91
   0   5  -2   72.99    8.97
   0   5  -2   86.44   10.27
   0   5  -2   87.50    9.69
   0  -5   2   83.15    8.57
   0  -5   2   88.81   10.25
   0  -5   2   37.00  142.54
   0   5  -1    6.96    3.83
   0   5  -1    5.74    2.43
   0  -5   1    5.68    9.25
   0  -5   1    3.38    2.70
   0  -5   1    4.15    4.90
   0  -5   1    2.93    1.35
   0  -5   1    4.65    5.46
   0   5   0   32.88    8.44
   0   5   0   34.57    8.55
   0  -5   0   31.12   10.16
   0  -5   0   35.03   10.05
   0  -5   0   33.69   12.51
   0  -5   0   32.40    6.08
   0   5   1  769.97   84.17
   0   5   1  893.18   92.32
   0  -5  -1  849.18   86.07
   0  -5  -1  980.41  107.28
   0  -5  -1  547.88   73.53
   0   5   2   29.34    8.51
   0  -5  -2   21.81    6.69
   0  -5  -2   31.54    9.34
   0  -5  -2   28.12    9.93
   0   5   3   45.72   10.29
   0  -5  -3   39.76    9.72
   0  -5  -3   28.68    5.21
   0  -5  -3   66.24   10.22
   0   5   4   52.99   10.14
   0  -5  -4   46.57   10.67
   0  -5  -4   46.67   10.15
   0  -5  -4   71.52    9.94
   0   5   5    0.35    2.32
   0  -5  -5    0.92    1.79
   0  -5  -5    0.47    2.76
   0  -5  -6    1.05    2.74
   0  -5  -6    0.39    2.50
   0   5   7   -0.21    0.95
   0  -5  -7   -0.04    0.95
   0   6 -11    1.94    2.65
   0   6 -11    2.64    7.88
   0   6 -10    1.10    5.44
   0   6 -10    0.38    1.49
   0   6  -9   56.85   14.13
   0   6  -9   43.51   22.82
   0   6  -8  122.77   34.40
   0   6  -8  128.66   23.03
   0   6  -7   64.32   16.44
   0   6  -7   58.21   25.61
   0   6  -6   77.35   16.76
   0   6  -6   70.39   27.97
   0   6  -5  344.64   37.78
   0  -6   5    2.36  145.48
   0  -6   5  241.88   27.59
   0   6  -4  446.27   39.53
   0   6  -4  371.42   40.86
   0   6  -4  408.16   36.76
   0  -6   4  344.00  194.16
   0  -6   4  358.05   40.88
   0   6  -3    8.45    3.26
   0   6  -3    4.25    3.29
   0   6  -3    7.37    3.20
   0  -6   3    3.20    3.25
   0  -6   3   -0.29   76.26
   0  -6   3    2.72    1.46
   0   6  -2    1.66    1.57
   0  -6   2    0.56    0.59
   0  -6   2    2.64   14.04
   0  -6   2    0.31    3.39
   0   6  -1   13.84    3.64
   0  -6   1    8.03    8.09
   0  -6   1    4.81   11.54
   0   6   0    0.94    2.79
   0  -6   0    0.25    4.04
   0  -6   0    0.34    3.80
   0   6   1    0.15    2.13
   0  -6  -1   -0.23    2.72
   0  -6  -1    0.33    2.52
   0   6   2   16.68    7.72
   0  -6  -2   19.00    5.91
   0  -6  -2   17.38    8.67
   0   6   3  170.74   23.96
   0  -6  -3  181.69   25.50
   0  -6  -3  130.31   16.26
   0   6   4    2.64    3.83
   0  -6  -4    2.54    2.63
   0   6   5    1.68    2.51
   0  -6  -5    3.26    3.37
   0  -6  -5    1.43    2.43
   0  -6  -6    0.05    0.79
   0   7 -11    1.39    2.75
   0  -7  11   -0.86   28.61
   0   7 -10   11.35    6.23
   0  -7  10   -0.42   45.21
   0   7  -9    0.64    3.76
   0  -7   9    0.05   27.52
   0   7  -8   22.52   10.71
   0  -7   8    1.24   70.02
   0   7  -7   26.81   11.16
   0  -7   7   15.94   62.06
   0   7  -6  612.79   71.88
   0  -7   6  402.95  244.71
   0   7  -5   58.66   11.51
   0  -7   5   38.51    6.45
   0  -7   5   86.51  183.26
   0   7  -4    1.34    2.00
   0   7  -4    0.65    2.55
   0  -7   4    4.01   56.70
   0  -7   4    0.22    1.91
   0   7  -3  141.27   13.66
   0  -7   3  124.06   21.39
   0  -7   3  233.86   77.95
   0   7  -2  448.18   42.62
   0  -7   2  396.84   51.60
   0  -7   2  387.83   63.53
   0   7  -1   21.30    8.42
   0  -7   1   15.74    6.39
   0  -7   1   14.54    7.40
   0   7   0    8.89    4.18
   0  -7   0    5.71    7.96
   0  -7   0    4.76    4.65
   0   7   1   25.05    6.45
   0  -7  -1   22.47   11.62
   0  -7  -1   19.32    5.79
   0   7   2   -0.12    4.21
   0  -7  -2    2.90    3.12
   0  -7  -2    0.77    4.23
   0   7   3    2.20    3.40
   0  -7  -3    1.15    2.03
   0  -7  -3    0.59    3.15
   0   7   4    3.34    3.33
   0  -7  -4    2.02    3.21
   0   8 -10    3.98    5.29
   0  -8  10    1.90   68.15
   0   8  -9    4.80    5.31
   0  -8   9    0.55   49.41
   0   8  -8   27.48    9.53
   0  -8   8    1.04   89.24
   0   8  -7   17.82    8.62
   0  -8   7   -0.44   80.69
   0   8  -6   11.44    6.68
   0  -8   6   19.67  198.45
   0   8  -5    9.37    4.63
   0  -8   5   16.87   28.29
   0  -8   5    5.46    5.66
   0   8  -4  296.16   30.11
   0  -8   4  279.91   44.29
   0  -8   4  225.57   32.69
   0   8  -3   14.33    5.92
   0  -8   3    9.71    5.36
   0  -8   3    8.43   12.98
   0   8  -2   19.96    7.68
   0  -8   2   18.55   10.82
   0  -8   2   14.78    7.39
   0   8  -1   33.21   10.34
   0  -8   1   24.52   12.17
   0  -8   1   29.23   14.31
   0   8   0   33.69   10.81
   0  -8   0   21.86    9.99
   0  -8   0   30.71    8.73
   0   8   1   -0.50    1.80
   0  -8  -1    0.15    1.89
   0  -8  -1    0.44    2.09
   0   8   2    6.30    5.45
   0  -8  -2    7.79    5.22
   0  -8  -2    4.31    4.84
   0   8   3    4.59    3.97
   0  -8  -3    4.98    1.61
   0  -8  -3    2.82    1.98
   0   9  -9   27.67    8.60
   0  -9   9    0.72   30.08
   0   9  -8    2.52    4.47
   0  -9   8    0.33   17.21
   0   9  -7    8.82    5.98
   0  -9   7   -0.10   24.49
   0   9  -6    0.39    2.01
   0  -9   6    0.19    3.71
   0  -9   5   15.55    7.37
   0  -9   5    3.70    5.81
   0   9  -4    3.06    2.88
   0  -9   4    0.26    7.73
   0  -9   4    1.88    4.84
   0   9  -3   45.70    9.24
   0  -9   3   17.50   13.59
   0  -9   3   34.05   13.36
   0   9  -2   24.94    7.63
   0  -9   2   19.46   10.72
   0  -9   2   10.40    5.94
   0   9  -1   -0.10    2.42
   0  -9   1    0.45    2.26
   0  -9   1    0.02    3.11
   0   9   0   -0.14    2.89
   0  -9   0    1.21    3.03
   0  -9   0    0.15    3.17
   0   9   1    0.26    1.32
   0  -9  -1    0.05    2.12
   0  -9  -1    0.18    1.72
   0 -10   8    0.58    3.95
   0 -10   7    0.00    1.96
   0 -10   6    1.03    2.81
   0 -10   6   28.96    7.82
   0 -10   5    0.04    2.01
   0 -10   5    1.02    3.53
   0  10  -4   10.80    3.00
   0 -10   4    0.45    6.34
   0 -10   4    1.10    5.56
   0  10  -3    0.73    1.78
   0 -10   3    0.18    1.54
   0 -10   3    0.65    1.74
   0  10  -2    6.50    2.23
   0 -10   2    0.38    3.92
   0 -10   2    0.94    4.71
   0  10  -1    2.94    1.96
   0 -10   1    1.86    2.45
   1 -10   1   17.06    7.52
   1 -10   1   10.98    6.49
  -1  10  -1   22.44    6.41
   1 -10   2   -0.33    2.21
   1 -10   2   -0.09    2.09
  -1  10  -2    0.65    1.78
   1 -10   3    0.18    1.36
   1 -10   3    0.06    1.03
  -1  10  -3   -0.04    1.33
   1 -10   4    1.80    2.49
   1 -10   4   -1.30    4.11
  -1  10  -4   13.16    3.07
   1 -10   5    0.24    1.29
   1 -10   5   -0.54    3.44
   1 -10   6   16.56    5.80
  -1  10  -6    6.06    3.11
   1 -10   7    0.15    3.44
  -1  10  -7   -0.30    1.50
   1  -9  -2    8.05    4.31
   1  -9  -2    1.09    4.08
  -1   9   2    7.43    4.55
   1  -9  -1    0.01    4.54
   1  -9  -1    1.53    4.08
  -1   9   1    2.65    3.98
   1  -9   0    4.21    6.26
   1  -9   0    3.68    5.71
  -1   9   0    7.38    5.83
   1  -9   1    0.02    3.30
   1  -9   1    0.98    3.40
  -1   9  -1    0.16    3.08
   1  -9   2    1.12    5.02
   1  -9   2    0.59    4.74
  -1   9  -2    1.50    2.31
   1  -9   3    2.98    3.89
   1  -9   3   -0.02    5.42
  -1   9  -3   11.19    4.60
   1  -9   4    0.47    1.68
   1  -9   4    0.18    5.46
  -1   9  -4    0.24    1.87
   1  -9   5   -0.06   13.40
  -1   9  -5   13.24    5.17
   1  -9   6    0.12   12.52
  -1   9  -6    7.18    5.03
   1  -9   7    0.58   12.43
  -1   9  -7    6.35    5.42
   1  -9   8    1.17   18.24
  -1   9  -8    5.42    5.23
   1  -9   9    3.95    9.74
  -1   9  -9    6.37    5.03
   1  -8  -3   -0.01    1.93
   1  -8  -3    0.45    2.00
  -1   8   3   -0.04    2.01
   1  -8  -2    1.28    7.56
   1  -8  -2    5.47    6.47
  -1   8   2    8.98    6.03
   1  -8  -1    3.44    6.58
   1  -8  -1    4.36    6.31
  -1   8   1    7.16    6.39
   1  -8   0   30.62   13.53
   1  -8   0   24.50   12.01
  -1   8   0   35.88   11.61
   1  -8   1    3.81    9.17
   1  -8   1    5.72    5.76
  -1   8  -1   13.36    4.57
   1  -8   2    1.21    4.88
   1  -8   2    1.49    6.68
  -1   8  -2    1.12    3.79
   1  -8   3   18.27    9.27
   1  -8   3   21.23   17.75
  -1   8  -3   25.56    7.81
   1  -8   4   10.81    6.42
   1  -8   4   10.81   17.06
  -1   8  -4   15.42    5.09
  -1   8  -4   10.76    5.68
   1  -8   5    0.34   73.24
  -1   8  -5   -0.22    1.61
   1  -8   6    1.64  310.75
  -1   8  -6   67.37   16.27
   1  -8   7   -0.45   90.19
  -1   8  -7   37.71   13.43
   1  -8   8    0.29   88.24
  -1   8  -8    7.43    7.95
   1  -8   9    0.45   89.86
  -1   8  -9   12.69    4.79
   1  -8  10    6.00   54.68
  -1   8 -10    5.21    4.57
   1  -7  -5   25.71    7.34
  -1   7   5   19.63    4.72
   1  -7  -4    2.07    3.94
   1  -7  -4    3.19    2.88
  -1   7   4    5.94    4.04
   1  -7  -3    0.51    2.86
   1  -7  -3    0.14    1.70
  -1   7   3    0.25    2.56
   1  -7  -2    6.67    8.24
   1  -7  -2   12.91    5.19
  -1   7   2   15.52    7.71
   1  -7  -1    3.64    3.91
   1  -7  -1    3.47    7.35
  -1   7   1    5.36    5.65
   1  -7   0    0.65    2.70
   1  -7   0    0.57    2.78
   1  -7   1   53.15   22.01
   1  -7   1   66.26   16.62
  -1   7  -1   73.11    9.89
   1  -7   2   36.05   11.86
   1  -7   2   27.68   20.92
  -1   7  -2   43.51   10.01
   1  -7   3    5.89    6.34
   1  -7   3   14.09   18.02
  -1   7  -3   10.97    5.43
  -1   7  -3   12.41    5.27
   1  -7   4  189.89   23.58
   1  -7   4   80.69  279.26
  -1   7  -4  226.22   26.01
  -1   7  -4  276.72   26.10
   1  -7   5   53.65  121.94
  -1   7  -5   78.32   15.69
   1  -7   6    0.55   64.50
  -1   7  -6    6.13    6.81
   1  -7   7   14.49   44.85
  -1   7  -7   15.92    8.75
   1  -7   8  177.35  130.37
  -1   7  -8  229.53   31.87
   1  -7   9   -0.97   21.82
  -1   7  -9   -1.16    2.68
   1  -7  10   -5.23   28.80
  -1   7 -10    2.33    3.74
   1  -6  -6    2.93    2.37
   1  -6  -5   11.32    5.03
   1  -6  -5   19.07    7.30
  -1   6   5   13.89    3.41
   1  -6  -4   18.24    8.11
   1  -6  -4   15.68    7.17
  -1   6   4   13.80    6.52
   1  -6  -3   21.84    9.16
   1  -6  -3   30.17   12.92
  -1   6   3   19.10    8.23
   1  -6  -2   18.71    9.82
   1  -6  -2   17.18    9.22
  -1   6   2   17.24    8.34
   1  -6  -1  178.27   29.76
   1  -6  -1  183.92   22.86
  -1   6   1  184.63   25.10
   1  -6   0   50.61    9.14
   1  -6   0   47.69   17.93
  -1   6   0   55.13   12.10
   1  -6   1    0.85    2.43
   1  -6   1    0.35    6.90
  -1   6  -1    2.27    3.25
   1  -6   2    1.28   15.37
   1  -6   2    1.61    3.42
   1  -6   2    0.29    2.01
  -1   6  -2    2.00    2.81
  -1   6  -2    1.40    2.01
   1  -6   3    2.36    2.22
   1  -6   3    6.91   40.51
   1  -6   3    1.54    3.14
  -1   6  -3    3.52    2.25
  -1   6  -3    3.42    2.89
  -1   6  -3    4.29    3.09
   1  -6   4    2.16   58.71
   1  -6   4    4.20    3.73
  -1   6  -4    8.28    2.10
  -1   6  -4    7.16    5.77
  -1   6  -4    8.47    3.24
  -1   6  -5   10.93    4.60
  -1   6  -6  406.08   50.29
  -1   6  -6  392.84   68.44
  -1   6  -7  173.92   27.01
  -1   6  -7  159.11   38.35
  -1   6  -8   21.16    9.03
  -1   6  -8   17.77   15.45
  -1   6  -9   23.15    9.39
  -1   6  -9   14.46    8.93
  -1   6 -10   55.13   24.15
  -1   6 -10   65.89   12.31
   1  -6  11    0.45    9.17
   1  -5  -7    7.40    5.40
  -1   5   7    4.88    4.35
   1  -5  -6    2.05    3.89
   1  -5  -6    4.01    2.96
   1  -5  -5    0.69    2.54
   1  -5  -5    0.77    2.08
   1  -5  -5    0.57    2.45
  -1   5   5    0.72    2.19
   1  -5  -4   12.18    6.89
   1  -5  -4   10.01    5.17
   1  -5  -4   15.04    4.82
  -1   5   4   13.64    5.99
   1  -5  -3    1.93    3.90
   1  -5  -3    0.61    2.25
   1  -5  -3    2.44    2.54
  -1   5   3    1.31    2.99
   1  -5  -2   20.64    9.42
   1  -5  -2   22.42    9.70
  -1   5   2   20.47    4.33
   1  -5  -1   42.23   12.16
   1  -5  -1   37.43   10.27
   1  -5  -1   35.34   12.39
   1  -5  -1   38.60   11.56
  -1   5   1   31.87    8.21
  -1   5   1   39.78    6.29
   1  -5   0   29.29    5.39
   1  -5   0   28.32   13.63
   1  -5   0   44.81   13.35
   1  -5   0   33.11    6.23
  -1   5   0   31.86    7.95
  -1   5   0   34.33    8.58
   1  -5   1 1746.15  195.09
   1  -5   1 2094.52  279.66
   1  -5   1 1747.01  191.68
  -1   5  -1 1743.45  195.87
  -1   5  -1 1427.82  160.13
  -1   5  -1 1914.49  210.70
   1  -5   2   10.38    5.18
   1  -5   2   12.66    4.45
   1  -5   2    5.83   75.75
   1  -5   2    0.36    4.36
  -1   5  -2   12.25    2.88
  -1   5  -2   10.00    4.59
  -1   5  -2   15.59    3.38
   1  -5   3    0.67    0.94
   1  -5   3    0.12    1.81
   1  -5   3    0.62    2.44
   1  -5   3   -1.56   15.31
  -1   5  -3    0.29    2.50
  -1   5  -3    0.52    1.60
   1  -5   4   32.61    8.38
   1  -5   4   23.00    3.94
   1  -5   4   16.26    4.19
  -1   5  -4   28.03    8.52
  -1   5  -4   24.69    8.18
  -1   5  -4   24.24    4.21
  -1   5  -5   78.61   15.20
  -1   5  -5   67.21   13.62
  -1   5  -6    7.46    5.50
  -1   5  -6    8.68    6.74
  -1   5  -7   34.52   10.92
  -1   5  -7   25.67   14.32
  -1   5  -8   51.40   12.28
  -1   5  -8   41.14   16.84
  -1   5  -9   64.26   13.40
  -1   5  -9   49.02   18.74
  -1   5 -10    3.25    2.04
  -1   5 -10    7.62    4.42
  -1   5 -11    4.84    6.14
   1  -4  -8   -0.71    2.64
  -1   4   8    0.66    1.55
   1  -4  -7    3.15    4.75
   1  -4  -7    3.13    4.79
   1  -4  -6    4.18    5.05
   1  -4  -6    5.50    5.38
   1  -4  -5   87.62   13.24
   1  -4  -5  107.11   17.60
   1  -4  -5   99.87   15.57
  -1   4   5   84.75    9.22
   1  -4  -4   36.06    8.74
   1  -4  -4   38.24    9.90
   1  -4  -4   32.02    7.74
  -1   4   4   29.58    6.38
   1  -4  -3    0.18    1.68
   1  -4  -3   -0.04    1.96
   1  -4  -3    0.95    2.36
   1  -4  -3    0.36    2.33
  -1   4   3    0.17    1.95
  -1   4   3    0.16    1.71
   1  -4  -2    3.27    2.95
   1  -4  -2    3.37    2.34
   1  -4  -2    3.54    2.56
   1  -4  -2    4.48    4.94
  -1   4   2    3.39    2.54
  -1   4   2    4.59    2.26
  -1   4   2   -0.51   32.51
   1  -4  -1   47.07    4.51
   1  -4  -1   61.48   13.32
   1  -4  -1   60.41   11.64
   1  -4  -1   64.44   12.69
   1  -4  -1   57.40    7.07
  -1   4   1   49.26    6.22
  -1   4   1   58.26    9.91
  -1   4   1   53.39    9.02
   1  -4   0 1053.30  112.43
   1  -4   0 1072.83  101.13
   1  -4   0 1272.81  136.20
   1  -4   0 1088.25  110.70
   1  -4   0 1216.90  127.08
  -1   4   0 1220.42  122.33
  -1   4   0  934.48   91.54
  -1   4   0 1184.84  117.88
   1  -4   1  933.93   85.05
   1  -4   1  843.39   79.35
   1  -4   1  787.30  306.94
   1  -4   1  898.37   90.02
  -1   4  -1  828.02   75.63
  -1   4  -1  884.89   86.27
   1  -4   2  145.86   15.55
   1  -4   2  163.25   16.36
   1  -4   2  131.71   71.97
   1  -4   2  147.05   15.57
  -1   4  -2  155.00   15.73
  -1   4  -2  153.16   17.69
   1  -4   3 1157.41  116.61
   1  -4   3 1209.89  126.12
   1  -4   3 1223.90  120.84
  -1   4  -3 1151.20  115.05
  -1   4  -3 1140.01  131.79
  -1   4  -3 1258.76  132.45
   1  -4   4   74.46   12.12
   1  -4   4   50.92    6.27
   1  -4   4   54.15    5.61
  -1   4  -4   65.15    6.78
  -1   4  -4   62.41   13.75
  -1   4  -4   73.63   12.43
   1  -4   5   16.55    6.16
  -1   4  -5   19.01    7.44
  -1   4  -5    8.92    8.12
  -1   4  -6  137.72   18.38
  -1   4  -6  163.55   21.67
  -1   4  -7  113.73   17.27
  -1   4  -7   99.12   21.13
  -1   4  -8    2.93    3.40
  -1   4  -8    1.46    3.23
  -1   4  -9   22.51   15.77
  -1   4 -10    0.66    3.72
  -1   4 -11    1.91    4.09
   1  -3  -9   24.32   10.79
  -1   3   9   21.14    7.67
   1  -3  -8    0.38    1.79
   1  -3  -8   -0.17    2.64
   1  -3  -7   11.29    4.91
   1  -3  -7   12.82    4.89
   1  -3  -6   79.56   15.39
   1  -3  -6   84.29   16.22
   1  -3  -5   16.55    4.98
   1  -3  -5   18.27    6.89
   1  -3  -5   18.70    6.73
  -1   3   5   11.75    3.57
   1  -3  -4  100.99   11.67
   1  -3  -4   94.58   13.27
   1  -3  -4   92.57   14.29
   1  -3  -4   87.13   12.15
  -1   3   4  147.64  295.48
  -1   3   4   86.32   10.34
  -1   3   4   96.15   13.66
   1  -3  -3  110.06    9.68
   1  -3  -3  121.74   15.30
   1  -3  -3  130.45   15.41
  -1   3   3  115.97   10.93
  -1   3   3  153.13  160.21
  -1   3   3  126.80   13.96
  -1   3   3  118.30   12.51
   1  -3  -2   70.18    9.13
   1  -3  -2   72.32    8.34
   1  -3  -2   68.15    8.35
  -1   3   2   60.67    8.27
  -1   3   2   70.20    7.85
  -1   3   2   60.15    8.75
  -1   3   2   80.46   73.43
   1  -3  -1    4.90    2.27
   1  -3  -1    5.57    5.55
   1  -3  -1    4.70    5.10
  -1   3   1    5.52    4.07
  -1   3   1    8.33    2.88
  -1   3   1    5.73    2.54
  -1   3   1    8.79   22.39
  -1   3   1    7.12    3.87
   1  -3   0  261.66   21.73
   1  -3   0  258.95   25.01
   1  -3   0  260.48   58.80
   1  -3   0  264.50   22.27
  -1   3   0  254.57   18.38
  -1   3   0  236.53   22.83
   1  -3   1    1.19   14.61
   1  -3   1    2.68    1.91
   1  -3   1    2.71    3.46
   1  -3   1    4.75    3.01
  -1   3  -1    3.96    2.03
  -1   3  -1    3.55    3.32
   1  -3   2 2373.09  269.81
   1  -3   2 2569.32  289.91
   1  -3   2 2277.36  264.14
  -1   3  -2 2318.84  263.91
  -1   3  -2 2323.82  282.17
  -1   3  -2 2355.33  275.44
   1  -3   3  821.00   69.79
   1  -3   3 1056.79   97.97
   1  -3   3 1040.20  102.83
   1  -3   3 1041.51   88.91
   1  -3   3  962.54   87.57
  -1   3  -3  969.71   90.40
  -1   3  -3 1106.54  103.92
  -1   3  -3  984.20  102.52
   1  -3   4  238.78   19.58
   1  -3   4  284.29   24.06
   1  -3   4  266.38   19.97
  -1   3  -4  230.44   20.92
  -1   3  -4  283.89   28.87
  -1   3  -4  252.95   27.81
  -1   3  -4  240.30   18.72
   1  -3   5    1.08    2.44
   1  -3   5    1.56    1.63
   1  -3   5    1.58    2.54
   1  -3   5    0.65    0.98
  -1   3  -5    1.18    1.10
  -1   3  -5    1.95    1.27
  -1   3  -5    1.66    1.83
  -1   3  -5    3.84    3.07
   1  -3   6   56.62    8.29
  -1   3  -6   64.28   10.43
  -1   3  -6   56.59    6.97
  -1   3  -6   53.79   12.01
  -1   3  -7    3.95    3.24
  -1   3  -7    3.81    3.48
  -1   3  -8   67.61   16.17
  -1   3  -9   29.89   12.28
  -1   3 -10    2.43    6.70
  -1   3 -11    0.54    2.37
   1  -2 -10    1.29    2.97
  -1   2  10    1.99    3.55
   1  -2  -9   85.20   19.16
  -1   2   9   39.35    9.05
   1  -2  -8   12.82    5.76
   1  -2  -8   16.33    9.11
   1  -2  -7    9.58    7.18
   1  -2  -7   11.09    8.28
   1  -2  -6   52.33   12.52
   1  -2  -6   58.82   12.82
   1  -2  -5   31.44    8.25
   1  -2  -5   29.03    5.31
   1  -2  -5   27.25    5.37
  -1   2   5   25.49    4.25
  -1   2   5   24.44    3.57
  -1   2   5   34.20    5.64
   1  -2  -4   88.91   11.21
   1  -2  -4  105.06   13.57
   1  -2  -4  108.29   10.67
  -1   2   4  114.58   15.76
  -1   2   4  125.43   11.85
  -1   2   4  101.38    9.60
  -1   2   4  119.46   12.74
   1  -2  -3   83.15    5.28
   1  -2  -3  109.50   12.37
   1  -2  -3  100.27   11.70
   1  -2  -3   84.73    5.38
   1  -2  -3  107.73    9.70
  -1   2   3  127.81   13.95
  -1   2   3  106.02   19.54
  -1   2   3  105.07   10.16
  -1   2   3  116.01    9.91
   1  -2  -2  336.41   30.77
   1  -2  -2  342.99   24.66
   1  -2  -2  376.37   37.18
   1  -2  -2  351.12   26.18
   1  -2  -2  397.60   38.07
  -1   2   2  327.46   45.32
  -1   2   2  335.28   26.15
  -1   2   2  392.17   37.27
  -1   2   2  373.68   34.08
   1  -2  -1  317.59   29.35
   1  -2  -1  320.65   28.17
   1  -2  -1  358.77   29.83
   1  -2  -1  345.02   28.64
  -1   2   1  346.74   33.92
  -1   2   1  339.40   28.29
  -1   2   1  330.68   25.78
  -1   2   1  587.64  201.23
   1  -2   0   26.79    5.58
   1  -2   0   26.84    6.68
   1  -2   0   25.34    6.18
   1  -2   0   24.17   63.85
  -1   2   0   26.10    4.12
  -1   2   0   27.26    3.43
  -1   2   0   26.16    6.36
   1  -2   1  129.35   13.02
   1  -2   1  148.32   13.28
   1  -2   1  147.29   12.05
  -1   2  -1  156.55   13.53
  -1   2  -1  142.13   15.70
  -1   2  -1  143.73   14.52
   1  -2   2   49.61    5.66
   1  -2   2   54.01    6.09
   1  -2   2   55.47    7.46
   1  -2   2   52.32    7.14
   1  -2   2   48.06    4.35
  -1   2  -2   49.34    6.85
  -1   2  -2   52.53    5.21
  -1   2  -2   58.66   10.27
  -1   2  -2   54.14    8.88
   1  -2   3    0.56    2.53
   1  -2   3    0.88    1.55
   1  -2   3    1.58    1.53
  -1   2  -3    1.02    2.01
  -1   2  -3    1.04    2.23
  -1   2  -3    1.04    1.72
  -1   2  -3    1.17    1.63
   1  -2   4   85.71    7.36
   1  -2   4   89.68   10.71
   1  -2   4  101.17   10.11
   1  -2   4  109.63   12.13
  -1   2  -4   87.85   11.72
  -1   2  -4   87.52    8.40
  -1   2  -4   85.48    8.02
  -1   2  -4  116.80   12.84
   1  -2   5    1.60    2.33
   1  -2   5    1.25    1.77
   1  -2   5    1.17    0.99
   1  -2   5    0.65    1.94
  -1   2  -5    1.09    1.03
  -1   2  -5    1.31    2.75
  -1   2  -5    1.83    1.81
  -1   2  -5    3.08    2.07
   1  -2   6    7.94    2.72
  -1   2  -6    9.35    3.60
  -1   2  -6   10.54    3.90
  -1   2  -6    7.95    5.19
  -1   2  -7   37.68   11.03
  -1   2  -7   50.03    6.85
  -1   2  -8    1.98    3.31
  -1   2  -8    1.53    2.38
  -1   2  -9   32.49    5.43
  -1   2  -9   26.85   10.48
  -1   2 -10    0.71    2.96
   1  -1 -10   24.71    9.22
  -1   1  10   36.36    9.60
   1  -1  -9   32.92   10.38
   1  -1  -9   29.73    7.00
   1  -1  -8    1.12    2.20
   1  -1  -8   -1.09    2.20
   1  -1  -7   45.46   13.41
   1  -1  -7   38.39   12.62
   1  -1  -6   23.07    8.11
   1  -1  -6   25.72    8.87
   1  -1  -5   16.03    3.68
   1  -1  -5   18.93    6.64
   1  -1  -5   17.92    3.83
  -1   1   5   18.68    4.13
  -1   1   5   15.60    3.07
  -1   1   5   20.16    8.17
  -1   1   5   21.99    4.70
   1  -1  -4  180.59   16.24
   1  -1  -4  174.02   18.49
   1  -1  -4  144.42   10.34
   1  -1  -4  150.85   11.84
   1  -1  -4  179.98   18.48
  -1   1   4  209.19   21.80
  -1   1   4  197.08   22.13
  -1   1   4  217.45   18.88
  -1   1   4  169.37   12.80
   1  -1  -3    3.98    3.14
   1  -1  -3    3.11    1.54
   1  -1  -3    2.86    3.14
   1  -1  -3    3.12    3.41
   1  -1  -3    3.02    1.84
  -1   1   3    3.33    3.22
  -1   1   3    2.95    1.82
  -1   1   3    4.17    3.64
  -1   1   3    2.98    2.51
   1  -1  -2   73.98    9.65
   1  -1  -2   63.32    8.60
   1  -1  -2   57.24    4.55
   1  -1  -2   63.15    6.31
   1  -1  -2   66.24    9.92
  -1   1   2   79.86   12.46
  -1   1   2   69.71   10.17
  -1   1   2   68.79   10.28
  -1   1   2   61.52    6.60
   1  -1  -1  118.84   10.68
   1  -1  -1  108.19    9.53
   1  -1  -1  122.20   12.90
   1  -1  -1  119.87   10.57
  -1   1   1  122.88   12.90
  -1   1   1  120.33   13.80
  -1   1   1  133.97   12.06
  -1   1   1  116.68   10.59
   1  -1   0 5056.13  695.16
   1  -1   0 5641.25  780.11
   1  -1   0 6172.28  835.64
   1  -1   0 5760.03  853.66
   1  -1   0 6517.79  897.29
  -1   1   0 5401.49  747.01
  -1   1   0 5842.25  808.44
  -1   1   0 6004.07  826.38
  -1   1   0 5359.81  732.43
   1  -1   1 1380.40  135.09
   1  -1   1 1648.75  154.13
   1  -1   1 1380.56  134.79
   1  -1   1 1311.93  119.02
   1  -1   1 1281.40  125.46
  -1   1  -1 1263.48  123.60
  -1   1  -1 1278.44  116.58
  -1   1  -1 1366.72  128.82
  -1   1  -1 1404.05  134.89
  -1   1  -1 1340.05  130.75
   1  -1   2  665.70   59.51
   1  -1   2  679.81   61.08
   1  -1   2  692.85   61.17
   1  -1   2  669.20   59.28
  -1   1  -2  622.66   52.08
  -1   1  -2  752.23   67.38
  -1   1  -2  618.36   55.02
  -1   1  -2  729.91   65.34
   1  -1   3  211.34   19.68
   1  -1   3  218.75   18.67
   1  -1   3  232.39   21.59
   1  -1   3  214.17   17.72
  -1   1  -3  213.87   18.70
  -1   1  -3  245.87   21.47
  -1   1  -3  252.48   24.13
  -1   1  -3  230.57   21.98
   1  -1   4    1.14    2.30
   1  -1   4    1.02    1.92
   1  -1   4    1.10    1.31
   1  -1   4    0.95    1.46
  -1   1  -4    1.22    2.42
  -1   1  -4    1.02    1.61
  -1   1  -4    1.19    2.65
  -1   1  -4    0.96    1.27
   1  -1   5    1.09    1.83
   1  -1   5    0.83    2.28
   1  -1   5    0.25    0.98
   1  -1   5    0.40    0.75
  -1   1  -5    0.57    1.02
  -1   1  -5    0.45    1.31
  -1   1  -5    0.39    1.92
  -1   1  -5    0.19    1.14
  -1   1  -6    0.94    3.74
  -1   1  -6    0.62    2.47
  -1   1  -7  102.14   17.76
  -1   1  -7  124.16   13.75
  -1   1  -8   13.04    4.74
  -1   1  -8   23.94    8.46
  -1   1  -9    4.57    4.36
  -1   1  -9    1.29    4.05
   1  -1  10   -0.03    1.60
  -1   1 -10   -0.55    2.05
   1   0 -11    0.44    1.34
  -1   0  11   -0.16    2.10
   1   0 -10    2.83    3.10
  -1   0  10    4.42    5.04
   1   0  -9   98.17   25.39
   1   0  -9   83.94   11.83
   1   0  -8   25.11    7.59
   1   0  -8   32.59   11.38
   1   0  -7   56.05   14.17
   1   0  -7   58.31   13.54
   1   0  -6    9.96    6.12
   1   0  -6   12.82    6.66
  -1   0   6   13.48    6.33
  -1   0   6    8.68    3.84
   1   0  -5   94.12   12.89
   1   0  -5   77.35    8.03
   1   0  -5   86.55   12.14
   1   0  -5   80.18    7.98
  -1   0   5   90.16    9.92
  -1   0   5   92.92   12.20
  -1   0   5   80.94    8.22
   1   0  -4  617.03   52.95
   1   0  -4  558.25   48.88
   1   0  -4  582.89   55.72
   1   0  -4  560.64   48.65
  -1   0   4  562.44   47.49
  -1   0   4  669.07   62.97
  -1   0   4  634.31   54.95
  -1   0   4  530.38   40.81
  -1   0   4  611.09   54.47
   1   0  -3  454.91   38.48
   1   0  -3  461.63   40.35
   1   0  -3  485.66   44.90
   1   0  -3  462.85   41.82
  -1   0   3  441.08   36.73
  -1   0   3  474.42   33.92
  -1   0   3  527.58   45.89
  -1   0   3  502.19   40.27
  -1   0   3  510.59   47.01
   1   0  -2    2.49    2.52
   1   0  -2    1.43    1.53
   1   0  -2    2.43    1.14
   1   0  -2    1.99    1.25
   1   0  -2    2.39    2.90
  -1   0   2    3.41    1.17
  -1   0   2    2.62    1.67
  -1   0   2    2.49    1.63
  -1   0   2    3.28    1.61
  -1   0   2    1.41    1.26
   1   0  -1  207.09   12.86
   1   0  -1  193.64   15.49
   1   0  -1  214.44   15.79
   1   0  -1  162.44   12.55
   1   0  -1  223.88   13.62
  -1   0   1  191.15   15.01
  -1   0   1  233.23   14.29
  -1   0   1  212.15   14.41
  -1   0   1  202.70   13.45
   1   0   0   46.59    4.67
   1   0   0   45.73    2.60
   1   0   0   41.91    4.60
  -1   0   0   46.55    7.35
  -1   0   0   54.87    5.78
  -1   0   0   49.49    3.88
   1   0   1    8.68    2.29
   1   0   1    9.49    5.14
   1   0   1    9.75    2.08
  -1   0  -1    8.19    1.99
  -1   0  -1    9.13    2.57
  -1   0  -1    9.00    2.38
  -1   0  -1    9.50    4.53
  -1   0  -1   10.02    2.18
   1   0   223177.83 4996.85
   1   0   225644.55 5578.64
   1   0   225738.29 5609.26
  -1   0  -223554.03 5033.15
  -1   0  -223695.92 5059.72
  -1   0  -225446.64 5533.88
  -1   0  -223947.01 5225.53
  -1   0  -225145.50 5491.42
  -1   0  -222255.11 4796.13
   1   0   3   40.86    6.68
   1   0   3   44.23    9.61
   1   0   3   37.19    4.75
  -1   0  -3   38.17    4.37
  -1   0  -3   37.30    5.07
  -1   0  -3   31.34    3.29
  -1   0  -3   34.17    5.75
  -1   0  -3   30.77    2.06
   1   0   4   86.91    9.77
   1   0   4   65.28    7.06
   1   0   4   71.80   10.35
  -1   0  -4   73.79    7.64
  -1   0  -4   74.82   11.28
  -1   0  -4   68.75    5.65
  -1   0  -4   59.30    7.13
   1   0   5   76.91   14.56
   1   0   5   57.22   11.22
  -1   0  -5   70.22   12.90
  -1   0  -5   64.30    8.46
  -1   0  -6   -0.23    0.74
  -1   0  -6    0.75    1.33
  -1   0  -7   20.74    9.91
  -1   0  -7   13.77    8.31
  -1   0  -8    8.70    6.86
  -1   0  -8    4.84    5.20
  -1   0  -9   39.03    6.52
  -1   0  -9   16.02    4.84
   1   0  10    0.70    3.56
  -1   0 -10   10.01    2.96
   1   1 -11    3.53    4.72
  -1  -1  11    2.44    3.82
   1   1 -10    0.97    3.35
  -1  -1  10    0.13    3.03
   1   1  -9    0.37    3.12
  -1  -1   9    0.20    1.98
   1   1  -8   49.27   12.66
   1   1  -8   48.03   18.59
   1   1  -7    0.84    3.57
   1   1  -7    1.38    3.87
   1   1  -6   65.33    7.33
   1   1  -6   51.86    7.13
   1   1  -6   57.15   11.72
  -1  -1   6   47.81    9.58
  -1  -1   6   43.38    5.53
   1   1  -5    1.33    2.76
   1   1  -5    1.66    1.78
   1   1  -5    0.99    2.07
   1   1  -5    1.63    1.43
  -1  -1   5    1.05    1.40
  -1  -1   5    0.83    2.12
  -1  -1   5    1.16    1.55
   1   1  -4  259.59   22.39
   1   1  -4  287.91   26.04
   1   1  -4  255.00   20.65
   1   1  -4  289.80   24.51
  -1  -1   4  246.82   24.44
  -1  -1   4  272.70   23.41
  -1  -1   4  259.95   21.62
   1   1  -3 2947.03  356.43
   1   1  -3 2833.62  329.96
   1   1  -3 3267.55  390.13
   1   1  -3 2764.83  330.18
  -1  -1   3 2807.15  333.91
  -1  -1   3 2975.30  352.28
  -1  -1   3 2831.40  329.74
   1   1  -2  150.75   10.43
   1   1  -2  139.76   14.57
   1   1  -2  131.82    8.55
   1   1  -2  141.35   12.09
  -1  -1   2  145.38   12.33
  -1  -1   2  130.66   11.16
  -1  -1   2  127.99   12.59
  -1  -1   2  129.56   13.44
   1   1  -1  833.04   71.05
   1   1  -1  810.03   68.23
   1   1  -1  813.83   72.81
   1   1  -1  840.35   76.19
  -1  -1   1  821.80   69.64
  -1  -1   1  849.89   80.17
  -1  -1   1  829.32   69.76
  -1  -1   1  910.69   75.42
   1   1   0   41.41    3.77
   1   1   0   47.14    7.26
   1   1   0   46.79   11.85
   1   1   0   54.60   23.07
  -1  -1   0   44.17    6.81
  -1  -1   0   49.28    6.95
  -1  -1   0   48.59    5.38
  -1  -1   0   38.67    7.36
   1   1   1  531.39   47.79
   1   1   1  570.58   40.87
   1   1   1  563.31   53.16
   1   1   1  537.84   45.15
  -1  -1  -1  600.12   49.78
  -1  -1  -1  582.13   48.65
  -1  -1  -1  559.24   49.10
  -1  -1  -1  493.37   46.08
  -1  -1  -1  498.14   42.74
   1   1   2  810.28   77.44
   1   1   2  765.83   70.61
  -1  -1  -2  756.62   66.64
  -1  -1  -2  661.40   57.99
  -1  -1  -2  747.01   75.05
  -1  -1  -2  783.05   71.68
  -1  -1  -2  750.54   72.33
   1   1   3   76.42   13.25
   1   1   3   71.52   10.47
  -1  -1  -3   64.36    8.70
  -1  -1  -3   66.91    5.23
  -1  -1  -3   71.19    8.52
  -1  -1  -3   69.94    7.87
  -1  -1  -3   49.82    4.80
   1   1   4 5937.41  837.85
   1   1   4 5051.03  736.92
  -1  -1  -4 5275.47  757.16
  -1  -1  -4 3603.30  522.77
  -1  -1  -4 5276.16  758.32
   1   1   5    3.56    1.46
  -1  -1  -5    4.64    3.74
  -1  -1  -5    4.25    5.24
  -1  -1  -6    9.26    5.61
  -1  -1  -6    6.93    3.74
  -1  -1  -7    0.61    1.98
  -1  -1  -7    0.86    3.93
  -1  -1  -8    3.33    5.75
  -1  -1  -8    2.60    3.90
  -1  -1  -9   -0.10    1.38
  -1  -1  -9    8.41    3.58
   1   2 -11    0.52    2.52
  -1  -2  11    0.71    2.44
   1   2 -10   14.68    9.88
  -1  -2  10   21.37    7.94
   1   2  -9   16.19   11.21
  -1  -2   9   35.23   10.06
   1   2  -8    6.37    2.52
   1   2  -8   10.00    6.70
  -1  -2   8   10.14    3.85
   1   2  -7    4.55    2.05
   1   2  -7    4.15    2.98
   1   2  -7    4.63    4.01
  -1  -2   7    2.89    2.36
   1   2  -6   46.75    8.01
   1   2  -6   52.72    8.05
   1   2  -6   40.68    9.46
  -1  -2   6   39.00    5.62
  -1  -2   6   49.97    7.61
  -1  -2   6   29.57    4.40
   1   2  -5 1054.82  106.33
   1   2  -5 1185.75  118.35
   1   2  -5 1156.14  108.77
   1   2  -5  978.27   95.09
  -1  -2   5  959.19   93.31
  -1  -2   5 1078.01  106.99
  -1  -2   5  961.85   97.04
   1   2  -4  203.37   21.43
   1   2  -4  216.11   20.05
   1   2  -4  228.77   23.14
  -1  -2   4  206.69   16.27
  -1  -2   4  212.36   19.37
  -1  -2   4  210.38   21.48
  -1  -2   4  251.55   22.64
   1   2  -3   17.83    2.17
   1   2  -3   15.02    5.22
   1   2  -3   20.08    6.43
   1   2  -3   15.29    1.99
   1   2  -3   19.41    6.85
  -1  -2   3   16.19    4.38
  -1  -2   3   18.24    4.44
  -1  -2   3   18.53    5.49
   1   2  -2   90.27    7.99
   1   2  -2  107.03    8.99
   1   2  -2  160.39   18.46
   1   2  -2  106.52   13.47
   1   2  -2  104.21    9.04
   1   2  -2  126.32   14.43
  -1  -2   2   98.29   13.40
  -1  -2   2  108.20    8.11
  -1  -2   2  105.13   11.64
  -1  -2   2  110.63   14.00
   1   2  -1 2928.48  348.20
   1   2  -1 3527.06  408.57
   1   2  -1 2713.46  329.87
   1   2  -1 2871.81  336.32
  -1  -2   1 2269.55  288.74
  -1  -2   1 3039.34  481.37
  -1  -2   1 3047.44  350.63
  -1  -2   1 2850.15  344.15
  -1  -2   1 3248.13  380.58
  -1  -2   1 3273.69  389.91
   1   2   0  138.56    9.54
   1   2   0  155.01   25.87
   1   2   0  148.43   15.92
  -1  -2   0  152.85   16.77
  -1  -2   0  144.05   17.59
  -1  -2   0  168.56   13.76
  -1  -2   0  149.62   13.37
   1   2   1   70.47   10.07
   1   2   1  135.60   86.29
   1   2   1   69.67   10.91
  -1  -2  -1   69.33    9.08
  -1  -2  -1   69.64   10.85
  -1  -2  -1   67.55    9.60
  -1  -2  -1   75.29   12.86
  -1  -2  -1   83.59    7.46
   1   2   2   55.08  101.45
   1   2   2   31.95   10.03
  -1  -2  -2   27.67    6.95
  -1  -2  -2   30.12    4.76
  -1  -2  -2   32.56    3.90
  -1  -2  -2   31.94    8.13
  -1  -2  -2   24.67    4.92
   1   2   3  274.56   26.67
   1   2   3  151.51   43.79
  -1  -2  -3  248.62   27.64
  -1  -2  -3  252.43   20.36
  -1  -2  -3  267.38   24.78
  -1  -2  -3  207.14   18.48
   1   2   4  335.31  233.16
  -1  -2  -4  126.78   15.50
  -1  -2  -4  113.20   17.54
   1   2   5   56.72    8.92
  -1  -2  -5   76.55   14.34
  -1  -2  -5   80.28    9.70
  -1  -2  -6  226.21   31.42
  -1  -2  -6  249.38   32.21
  -1  -2  -7    1.54    4.16
  -1  -2  -7    3.05    3.28
  -1  -2  -8    0.45    1.32
  -1  -2  -8    0.51    1.98
   1   2   9    0.66    1.70
   1   3 -12    0.04    2.02
   1   3 -11   10.29    5.61
   1   3 -10   42.14   16.94
  -1  -3  10   49.52    9.84
   1   3  -9    4.09    4.23
   1   3  -9    6.93    4.74
  -1  -3   9    7.90    4.74
   1   3  -8    5.05    4.35
   1   3  -8    6.34    7.18
  -1  -3   8    9.04    4.24
   1   3  -7   62.85    8.43
   1   3  -7   53.55   13.66
  -1  -3   7   65.49    9.01
   1   3  -6  101.11   10.01
   1   3  -6  139.04   16.39
   1   3  -6  122.57   17.00
  -1  -3   6   87.01    9.45
  -1  -3   6  126.02   10.92
  -1  -3   6  139.82   12.84
  -1  -3   6  110.76   14.64
   1   3  -5  259.48   26.73
   1   3  -5  221.54   20.13
   1   3  -5  216.91   20.39
  -1  -3   5  245.51   20.44
  -1  -3   5  226.33   18.52
  -1  -3   5  211.41   22.82
  -1  -3   5  207.56   19.26
   1   3  -4  170.16   11.22
   1   3  -4  181.39   14.86
   1   3  -4  181.35   21.33
   1   3  -4  185.31   20.16
   1   3  -4  147.31    9.30
  -1  -3   4  192.19   16.90
  -1  -3   4  178.02   17.08
  -1  -3   4  180.80   16.14
   1   3  -3 1339.60  127.98
   1   3  -3 1380.38  131.68
   1   3  -3 1318.27  144.27
   1   3  -3 1263.38  133.54
   1   3  -3 1259.36  131.78
  -1  -3   3 1409.40  146.36
  -1  -3   3 1287.44  132.04
  -1  -3   3 1310.75  135.15
   1   3  -2   18.78    4.89
   1   3  -2   20.42    4.52
   1   3  -2   19.82    5.11
   1   3  -2   19.55    6.93
   1   3  -2   28.25    5.76
   1   3  -2   21.11    4.59
  -1  -3   2   17.46    5.85
  -1  -3   2   10.39    5.08
  -1  -3   2   22.82    2.87
  -1  -3   2   23.51    8.43
   1   3  -1  244.22   22.28
   1   3  -1  180.97   14.29
   1   3  -1  238.18   19.75
   1   3  -1  210.70   22.95
   1   3  -1  220.92   17.07
  -1  -3   1  220.86   20.90
  -1  -3   1  215.44   21.46
  -1  -3   1  274.88   22.80
  -1  -3   1  219.67   16.10
  -1  -3   1  227.08  151.52
   1   3   0   54.75    6.11
   1   3   0   58.85    6.44
   1   3   0   55.46    8.59
  -1  -3   0   59.72    9.86
  -1  -3   0   62.81    7.03
  -1  -3   0   52.16    9.32
  -1  -3   0   63.45   10.95
  -1  -3   0   62.83   10.60
   1   3   1   23.28   29.75
   1   3   1   21.81    3.90
   1   3   1   20.44   10.00
   1   3   1   25.77    7.13
  -1  -3  -1   19.85    6.26
  -1  -3  -1   19.49    6.58
  -1  -3  -1   28.05    6.27
  -1  -3  -1   23.71    6.00
   1   3   2   12.57    8.37
   1   3   2   11.53   32.42
   1   3   2   11.39    4.75
  -1  -3  -2   11.56    3.75
  -1  -3  -2    6.57    3.68
  -1  -3  -2    8.04    5.23
  -1  -3  -2   12.87    3.98
   1   3   3    0.89    2.50
   1   3   3   -2.60   12.63
  -1  -3  -3    0.94    2.13
  -1  -3  -3    0.53    1.72
  -1  -3  -3    0.61    1.78
  -1  -3  -3    1.39    3.32
   1   3   4   62.11   10.68
  -1  -3  -4   75.04   10.93
  -1  -3  -4   68.07    8.61
   1   3   5   18.74    6.23
  -1  -3  -5   27.17    7.73
  -1  -3  -5   24.41    8.92
  -1  -3  -6    1.55    4.38
  -1  -3  -6    1.22    3.43
  -1  -3  -7    1.88    2.10
  -1  -3  -7    1.91    2.94
  -1  -3  -8    0.20    1.31
  -1  -3  -8    0.13    1.11
   1   4 -12    3.02    5.75
   1   4 -11    2.00    5.04
   1   4 -10   14.66    6.02
   1   4 -10   19.88   11.45
   1   4  -9  105.26   25.48
   1   4  -9  113.66   13.94
   1   4  -8  161.75   21.99
   1   4  -8  174.91   32.01
   1   4  -7   34.86   10.57
   1   4  -7   30.06   13.19
   1   4  -6    1.98    2.20
   1   4  -6    3.23    3.27
   1   4  -6    4.90    4.41
  -1  -4   6    2.70    2.22
  -1  -4   6    4.56    3.15
  -1  -4   6    2.78    2.37
   1   4  -5    1.19    2.02
   1   4  -5    2.26    3.52
   1   4  -5    1.74    3.20
  -1  -4   5    1.12    1.78
  -1  -4   5    1.71    1.45
  -1  -4   5    1.39    2.69
   1   4  -4   69.23    6.17
   1   4  -4   64.73    9.85
   1   4  -4   67.64    6.34
   1   4  -4   67.11   13.86
   1   4  -4   68.38   10.19
  -1  -4   4   69.00    8.50
  -1  -4   4   64.68    8.51
  -1  -4   4   57.95    9.76
   1   4  -3  622.71   52.09
   1   4  -3  485.05   45.72
   1   4  -3  672.04   63.93
   1   4  -3  578.11   49.01
   1   4  -3  567.91   56.03
  -1  -4   3  559.73   47.85
  -1  -4   3  453.67   43.49
   1   4  -2  582.73   52.27
   1   4  -2  592.49   52.92
   1   4  -2  681.20   60.95
   1   4  -2  707.02   62.75
  -1  -4   2  994.79  286.06
  -1  -4   2  645.77   56.46
  -1  -4   2  742.08   73.24
  -1  -4   2  566.96   51.81
  -1  -4   2  683.29   62.36
   1   4  -1    4.62    3.32
   1   4  -1    4.28    3.19
   1   4  -1    3.83    2.77
  -1  -4   1    2.42    3.65
  -1  -4   1    1.87    0.89
  -1  -4   1    3.61    3.34
  -1  -4   1    3.94    2.64
  -1  -4   1    3.77    2.48
  -1  -4   1    4.42    6.20
   1   4   0  210.20   22.55
   1   4   0  239.53   30.58
   1   4   0  202.96   22.04
  -1  -4   0  191.75   20.64
  -1  -4   0  238.73   25.57
  -1  -4   0  220.80   25.89
  -1  -4   0  238.01   26.05
  -1  -4   0  180.68   17.41
   1   4   1    9.62    4.71
   1   4   1   10.59    3.26
   1   4   1   11.01    5.57
  -1  -4  -1   12.90    6.62
  -1  -4  -1   10.42    5.16
  -1  -4  -1   10.21    4.65
  -1  -4  -1    6.52    4.52
  -1  -4  -1    7.43    2.95
   1   4   2   54.81   10.83
  -1  -4  -2   60.77    9.89
  -1  -4  -2   60.29   10.20
  -1  -4  -2   50.08   11.05
  -1  -4  -2   45.66    9.06
   1   4   3   80.97    9.34
  -1  -4  -3   73.77   11.56
  -1  -4  -3   95.74   10.78
  -1  -4  -3   82.32   14.87
   1   4   4  100.94   15.89
  -1  -4  -4   99.87   12.99
  -1  -4  -4  112.53   13.00
   1   4   5    2.51    3.60
  -1  -4  -5    4.41    5.27
  -1  -4  -5    4.51    4.05
  -1  -4  -6   13.32    6.89
  -1  -4  -6    8.97    5.63
  -1  -4  -7    0.09    2.26
  -1  -4  -7    0.81    2.47
   1   5 -12    4.69    7.24
   1   5 -11   12.44    4.69
   1   5 -11   19.53   11.71
   1   5 -10    8.17    5.89
   1   5 -10    7.29    9.65
   1   5  -9    9.76   14.92
   1   5  -9    9.73    7.60
   1   5  -8  144.38   18.23
   1   5  -8  163.94   42.05
   1   5  -7  104.47   12.81
   1   5  -7   99.39   23.89
   1   5  -6   13.15    6.20
   1   5  -6    3.81    8.37
  -1  -5   6    5.06    2.23
   1   5  -5   49.93    6.87
   1   5  -5   48.74   16.01
  -1  -5   5   37.04    5.74
  -1  -5   5   25.52    8.51
  -1  -5   5   47.35    7.43
   1   5  -4    2.21    1.33
   1   5  -4    1.34    1.54
   1   5  -4    2.65    1.80
  -1  -5   4    1.87    3.80
  -1  -5   4    0.94    2.05
  -1  -5   4   -3.69   27.04
  -1  -5   4    1.61    2.01
   1   5  -3  219.65   17.91
   1   5  -3  166.56   15.94
   1   5  -3  199.66   18.25
  -1  -5   3  222.77   25.47
  -1  -5   3  195.91  117.31
  -1  -5   3  171.75   13.69
   1   5  -2    1.28    1.34
   1   5  -2    1.94    2.48
   1   5  -2    0.90    1.30
   1   5  -2    2.04    2.14
  -1  -5   2    5.42   11.50
  -1  -5   2    1.48    3.86
  -1  -5   2    0.71    0.84
  -1  -5   2    1.37    2.49
  -1  -5   2    0.59    3.56
   1   5  -1  195.50   24.77
   1   5  -1  312.96   27.15
   1   5  -1  304.99   29.21
  -1  -5   1  245.43   24.19
  -1  -5   1  271.75   36.03
  -1  -5   1  291.04   32.75
  -1  -5   1  292.27   31.67
   1   5   0  171.46   20.25
   1   5   0  132.65   17.64
  -1  -5   0  166.34   21.70
  -1  -5   0  136.11   18.75
  -1  -5   0   92.20   13.56
   1   5   1    5.25    4.56
  -1  -5  -1    3.65    2.50
  -1  -5  -1    2.24    2.04
  -1  -5  -1    1.74    4.38
   1   5   2   34.18    6.60
  -1  -5  -2   32.89    8.18
  -1  -5  -2   22.72    8.13
  -1  -5  -2   27.09    8.92
   1   5   3  183.63   23.25
  -1  -5  -3  120.06   14.06
  -1  -5  -3  179.22   22.53
  -1  -5  -3  138.32   15.64
   1   5   4   10.79    3.88
  -1  -5  -4    8.08    6.06
  -1  -5  -4   11.05    5.04
   1   5   5   10.19    5.14
  -1  -5  -5   14.38    6.17
  -1  -5  -5   12.52    3.58
  -1  -5  -6   21.05    6.01
  -1  -5  -6   15.39    5.32
   1   6 -11    3.77    8.83
   1   6 -11    3.95    3.66
   1   6 -10    4.17    3.38
   1   6 -10    6.20    9.85
   1   6  -9   17.07   15.89
   1   6  -9   21.86   10.56
   1   6  -8    0.57    4.33
   1   6  -8    1.17    6.73
   1   6  -7   55.99    9.92
   1   6  -7   47.83   15.06
   1   6  -6   11.25    7.38
   1   6  -6    6.16    5.91
  -1  -6   6    2.74    4.27
   1   6  -5   68.11   12.41
  -1  -6   5   59.44   12.92
  -1  -6   5   55.20   64.07
   1   6  -4   67.91    7.61
   1   6  -4   57.12    7.21
   1   6  -4   60.50    5.76
  -1  -6   4   57.95  165.77
  -1  -6   4   65.96   10.00
   1   6  -3  216.93   21.71
   1   6  -3  319.49   29.07
  -1  -6   3  247.82   77.45
  -1  -6   3  323.05   37.37
   1   6  -2  131.61   13.39
  -1  -6   2  125.91   22.60
  -1  -6   2  107.24   27.54
   1   6  -1   62.58   11.56
  -1  -6   1   50.14   15.11
  -1  -6   1   50.22   13.08
   1   6   0    7.05    5.30
  -1  -6   0    3.51    3.29
  -1  -6   0    4.63    5.93
   1   6   1   38.14   10.72
  -1  -6  -1   33.07    8.85
  -1  -6  -1   31.26    7.21
   1   6   2    1.23    2.30
  -1  -6  -2    0.39    2.01
  -1  -6  -2    1.02    3.59
   1   6   3    0.52    2.67
  -1  -6  -3    0.50    1.28
  -1  -6  -3    0.14    2.22
   1   6   4    3.95    2.55
  -1  -6  -4    3.56    3.31
  -1  -6  -4    2.92    3.26
   1   6   5   21.82    5.33
  -1  -6  -5   18.43    4.00
  -1  -6  -5   27.91    6.32
   1   7 -11    0.49    2.28
  -1  -7  11    0.17   13.87
   1   7 -10    5.86    6.10
  -1  -7  10    0.71   42.92
   1   7  -9   19.84   10.12
  -1  -7   9    2.59   68.38
   1   7  -8   13.45    5.67
  -1  -7   8    0.33   53.94
   1   7  -7    3.62    5.91
  -1  -7   7    0.63   55.60
   1   7  -6   47.07   11.16
  -1  -7   6   28.60   99.47
  -1  -7   6   28.20    9.08
   1   7  -5   56.38   11.10
  -1  -7   5   24.10  176.55
  -1  -7   5   52.42   13.02
   1   7  -4  292.90   32.35
   1   7  -4  448.68   41.27
  -1  -7   4  520.52   86.18
  -1  -7   4  459.84   54.64
   1   7  -3   62.30   10.90
  -1  -7   3   58.65   16.81
  -1  -7   3   47.56   21.07
   1   7  -2    4.04    4.61
  -1  -7   2    2.02    5.69
  -1  -7   2    2.00    6.63
   1   7  -1  151.44   16.30
  -1  -7   1  141.19   25.37
  -1  -7   1  123.40   22.95
   1   7   0  193.34   20.92
  -1  -7   0  172.42   24.91
  -1  -7   0  180.44   29.78
   1   7   1    0.90    2.85
  -1  -7  -1   -0.08    3.06
  -1  -7  -1   -0.01    3.28
   1   7   2    0.51    2.36
  -1  -7  -2   -0.06    1.74
  -1  -7  -2    0.03    1.65
   1   7   3    0.42    1.31
  -1  -7  -3   -0.02    1.45
   1   7   4    0.20    1.48
   1   8 -10    4.87    4.77
  -1  -8  10    1.14   76.85
   1   8  -9   58.74    9.72
  -1  -8   9    1.46  177.80
   1   8  -8    1.06    3.93
  -1  -8   8    0.10   36.60
   1   8  -7   17.60    8.11
  -1  -8   7    0.16  210.77
   1   8  -6   38.60    8.96
  -1  -8   6    5.76  236.99
  -1  -8   6   24.97    8.63
  -1  -8   5    1.66    4.35
  -1  -8   5    2.97    8.96
   1   8  -4   36.05    5.12
  -1  -8   4   33.46   11.08
  -1  -8   4   31.91   12.57
   1   8  -3    0.63    2.56
  -1  -8   3    0.21    4.44
  -1  -8   3    0.79    4.24
   1   8  -2  353.65   38.91
  -1  -8   2  310.26   43.75
  -1  -8   2  215.79   37.82
   1   8  -1   18.96    7.16
  -1  -8   1    0.86    6.23
  -1  -8   1   16.67    9.09
   1   8   0   11.26    5.56
  -1  -8   0    2.76    6.62
  -1  -8   0    1.06    4.18
   1   8   1   26.09    8.03
  -1  -8  -1   12.25    7.08
  -1  -8  -1   15.78    5.64
   1   8   2   22.60    4.73
  -1  -8  -2    1.51    1.94
  -1  -8  -2    2.50    3.24
   1   9  -9   10.39    5.77
  -1  -9   9    0.58   12.38
   1   9  -8   10.73    4.97
  -1  -9   8    0.93   23.12
   1   9  -7   71.04   12.51
  -1  -9   7   80.25   17.20
  -1  -9   6    3.22    3.99
  -1  -9   6   -0.06    7.49
  -1  -9   5   -0.03    4.41
  -1  -9   5    6.40    4.98
   1   9  -4    3.19    2.74
  -1  -9   4    0.10    5.44
  -1  -9   4    1.59    5.28
   1   9  -3    8.50    4.27
  -1  -9   3    3.29    6.95
  -1  -9   3    1.35    5.46
   1   9  -2    3.71    2.45
  -1  -9   2    0.01    3.43
  -1  -9   2    3.52    6.12
   1   9  -1   13.56    5.94
  -1  -9   1   10.30    7.60
  -1  -9   1    3.35    5.82
   1   9   0   45.53    9.00
  -1  -9   0   21.87    5.72
  -1  -9   0   21.71    8.50
  -1 -10   8    0.88    3.52
  -1 -10   7    1.28    4.32
  -1 -10   6    1.97    3.24
  -1 -10   5   -0.40    2.67
  -1 -10   5   -0.33    2.45
  -1 -10   4    0.14    0.78
  -1 -10   4   -0.45    1.18
   1  10  -3    2.15    1.82
  -1 -10   3    0.93    3.61
  -1 -10   3    0.16    2.15
   2 -10   0   -0.13    1.14
   2 -10   0    0.60    2.29
  -2  10   0    0.40    1.71
   2 -10   1   23.96    8.07
   2 -10   1   13.84    7.98
  -2  10  -1   33.07    7.50
   2 -10   2    3.72    5.51
   2 -10   2    1.44    5.97
  -2  10  -2   13.07    3.17
   2 -10   3    9.76    5.12
   2 -10   3   -0.52    4.70
  -2  10  -3   24.43    5.11
   2 -10   4   -0.84    3.22
  -2  10  -4    0.63    1.52
   2 -10   5    1.20    2.81
   2 -10   6    3.24    5.66
  -2  10  -6    2.77    3.30
   2 -10   7    0.32    2.19
  -2  10  -7    1.29    1.65
   2  -9  -2   15.51    7.11
   2  -9  -2   17.50    7.45
  -2   9   2   22.65    6.97
   2  -9  -1    8.85    8.44
   2  -9  -1    8.71    4.51
  -2   9   1   13.93    6.66
   2  -9   0    4.83    4.02
   2  -9   0    3.63    3.48
  -2   9   0   10.41    5.95
   2  -9   1    0.54    3.23
   2  -9   1    0.44    2.92
  -2   9  -1    0.12    1.68
   2  -9   2    1.98    3.65
   2  -9   2    3.29    4.50
  -2   9  -2    2.58    4.38
   2  -9   3   -0.11   10.02
   2  -9   3    4.14    5.24
  -2   9  -3   13.87    5.20
   2  -9   4    0.07    7.96
  -2   9  -4    2.42    1.94
  -2   9  -4    4.45    3.35
   2  -9   5    0.01   10.49
  -2   9  -5   10.55    5.26
   2  -9   6   -0.12    3.03
  -2   9  -6    0.66    2.58
   2  -9   7   -0.08    4.99
  -2   9  -7    0.78    3.00
   2  -9   8    0.49    7.57
  -2   9  -8    8.88    5.35
   2  -8  -4   10.17    4.29
   2  -8  -4    6.18    3.01
  -2   8   4    8.70    3.78
   2  -8  -3    4.46    5.85
   2  -8  -3    6.61    5.58
  -2   8   3    6.73    5.26
   2  -8  -2   31.98   12.12
   2  -8  -2   36.80   14.71
  -2   8   2   35.24   11.11
   2  -8  -1    4.20    3.65
   2  -8  -1    4.15    6.48
  -2   8   1    6.19    6.24
   2  -8   0   31.56   13.56
   2  -8   0   34.25   12.61
  -2   8   0   47.39   12.60
   2  -8   1    0.31    1.75
   2  -8   1   -0.37    3.34
  -2   8  -1    0.09    2.81
   2  -8   2   25.76   10.29
   2  -8   2   28.00   10.43
  -2   8  -2   36.58   10.00
   2  -8   3   29.73    9.18
   2  -8   3   39.46   18.37
  -2   8  -3   45.39    9.13
  -2   8  -3   26.55    7.45
   2  -8   4    7.96   14.11
  -2   8  -4    9.01    5.95
  -2   8  -4   10.28    4.77
   2  -8   5    4.93   19.63
  -2   8  -5    4.25    5.70
   2  -8   6   -1.98  134.53
  -2   8  -6    7.06    7.02
   2  -8   7   -0.89   51.11
  -2   8  -7    1.79    4.98
   2  -8   8   -0.06   52.40
  -2   8  -8    3.37    3.28
   2  -8   9   38.60   98.16
  -2   8  -9   12.59    4.12
   2  -7  -5   14.75    6.37
   2  -7  -5   12.75    4.91
  -2   7   5   11.20    4.07
   2  -7  -4   35.19   10.96
   2  -7  -4   38.41   11.16
  -2   7   4   38.41    9.30
   2  -7  -3  168.82   30.14
   2  -7  -3  131.51   24.22
  -2   7   3  143.64   22.34
   2  -7  -2   21.56    9.89
   2  -7  -2   22.75   11.06
  -2   7   2   23.22   10.07
   2  -7  -1   32.01   12.93
   2  -7  -1   30.83   12.69
  -2   7   1   39.43    7.91
   2  -7   0    4.67    8.30
   2  -7   0    6.22    7.82
  -2   7   0    9.23    6.83
   2  -7   1    0.57    4.18
   2  -7   1    0.29    3.49
  -2   7  -1    1.27    2.28
   2  -7   2    2.96   11.19
   2  -7   2    2.11    4.99
  -2   7  -2    5.17    2.94
  -2   7  -2    2.36    3.51
   2  -7   3   42.32   23.87
   2  -7   3   29.95    8.66
  -2   7  -3   33.58    9.64
  -2   7  -3   39.16    8.56
   2  -7   4   20.24  234.87
  -2   7  -4   42.26   12.81
  -2   7  -4   38.39    7.81
   2  -7   5    4.06   76.27
  -2   7  -5    5.18    4.36
   2  -7   6    6.84   79.82
  -2   7  -6   54.33   11.03
   2  -7   7    0.33   87.20
  -2   7  -7   40.80   14.89
   2  -7   8    0.11   50.70
  -2   7  -8   10.30    7.86
   2  -7   9   -3.50   16.70
  -2   7  -9    0.83    3.09
  -2   7 -10   19.86    5.85
   2  -6  -7    3.99    4.27
   2  -6  -6   17.33    6.28
   2  -6  -6    7.85    2.44
   2  -6  -5    4.54    3.26
   2  -6  -5    3.40    4.54
  -2   6   5    3.49    3.51
   2  -6  -4    0.72    3.73
   2  -6  -4    0.64    2.27
  -2   6   4    0.83    1.78
   2  -6  -3  105.81   20.60
   2  -6  -3  103.77   19.54
  -2   6   3  103.65   16.71
   2  -6  -2   74.97   16.76
   2  -6  -2   80.19   17.59
  -2   6   2   82.59   10.63
   2  -6  -1  115.25   21.46
   2  -6  -1  105.96   21.57
  -2   6   1  112.98   17.86
   2  -6   0   34.98   11.65
   2  -6   0   26.65   14.14
  -2   6   0   33.59   10.05
   2  -6   1    1.91    9.30
   2  -6   1    3.58    2.91
   2  -6   1    2.07    2.63
  -2   6  -1    2.69    2.96
  -2   6  -1    4.23    4.39
   2  -6   2   84.23   51.66
   2  -6   2  117.82   16.03
  -2   6  -2  100.64   14.84
  -2   6  -2  125.23   16.24
   2  -6   3    2.49    1.80
   2  -6   3    1.25   34.46
  -2   6  -3    2.88    3.22
  -2   6  -3    3.14    4.73
   2  -6   4    1.89   25.76
  -2   6  -4    1.16    2.53
  -2   6  -4    2.48    3.87
   2  -6   5    5.87   45.23
  -2   6  -5   14.84    8.01
  -2   6  -6   21.07   16.62
  -2   6  -6   22.32    9.62
  -2   6  -7    3.26    3.84
  -2   6  -7    1.60    8.80
  -2   6  -8  127.36   21.02
  -2   6  -8   86.97   28.85
  -2   6  -9   22.57    9.85
  -2   6  -9   39.94    9.41
  -2   6 -10    0.29    1.61
   2  -5  -8    7.55    5.33
   2  -5  -7   26.78    8.89
  -2   5   7   20.05    5.98
   2  -5  -6    7.33    5.50
   2  -5  -6    1.90    3.95
  -2   5   6    6.10    2.78
   2  -5  -5    0.92    4.09
   2  -5  -5    3.16    4.41
   2  -5  -5    1.97    2.97
  -2   5   5    2.33    2.94
   2  -5  -4    1.31    3.90
   2  -5  -4    1.52    4.95
  -2   5   4    1.03    1.74
   2  -5  -3    2.52    4.85
   2  -5  -3    3.84    5.17
  -2   5   3    3.69    3.86
   2  -5  -2   13.81    4.88
   2  -5  -2   13.81    8.26
  -2   5   2   13.94    6.14
   2  -5  -1    4.62    3.14
   2  -5  -1    2.02    5.63
   2  -5  -1    1.88    2.34
  -2   5   1    3.68    3.89
  -2   5   1    4.23    4.12
   2  -5   0   24.72    4.27
   2  -5   0   26.47    7.62
   2  -5   0   33.07    5.98
  -2   5   0   22.34    5.24
  -2   5   0   31.28    7.90
   2  -5   1   16.27    4.33
   2  -5   1   15.18    5.95
   2  -5   1    7.99   12.97
   2  -5   1   16.18    6.49
  -2   5  -1   13.05    5.38
  -2   5  -1   17.26    6.31
   2  -5   2   18.91    5.27
   2  -5   2   20.52    5.93
   2  -5   2   12.14   79.58
   2  -5   2   21.80    3.88
  -2   5  -2   21.04    7.69
  -2   5  -2   20.43    6.24
   2  -5   3  788.04   78.69
   2  -5   3  688.73   67.43
   2  -5   3  732.35   71.12
   2  -5   3  615.27  145.33
  -2   5  -3  678.22   70.07
  -2   5  -3  661.32   65.80
   2  -5   4   26.44    4.83
  -2   5  -4   31.02    8.87
  -2   5  -4   27.45   13.75
  -2   5  -4   31.20    5.81
   2  -5   5    0.28    1.22
  -2   5  -5    1.08    3.00
  -2   5  -5    0.59    1.50
  -2   5  -5    0.30    4.16
  -2   5  -6    5.05    7.27
  -2   5  -6    4.82    3.31
  -2   5  -7    6.26    6.42
  -2   5  -7    3.63    7.21
  -2   5  -8   -0.06    2.88
  -2   5  -8   -0.12    1.30
  -2   5  -9    1.09    2.41
  -2   5  -9    1.42    4.43
  -2   5 -10    0.23    2.92
  -2   4   9   19.16    3.68
   2  -4  -8    0.81    3.37
  -2   4   8    0.40    2.56
   2  -4  -7    0.43    2.95
  -2   4   7    0.28    1.81
   2  -4  -6    4.12    5.01
   2  -4  -6    3.41    3.70
   2  -4  -6    3.68    4.76
   2  -4  -5    0.27    2.08
   2  -4  -5   -0.48    1.37
   2  -4  -5    0.69    1.85
  -2   4   5    0.34    1.32
   2  -4  -4    2.84    3.22
   2  -4  -4    1.63    2.78
   2  -4  -4    2.89    4.18
  -2   4   4    2.43    2.69
   2  -4  -3  163.97   17.03
   2  -4  -3  158.07   15.70
   2  -4  -3  178.05   17.44
  -2   4   3  161.51   13.83
  -2   4   3  169.95   17.98
  -2   4   3  245.83  102.96
  -2   4   3  207.09   19.79
   2  -4  -2   56.52    6.36
   2  -4  -2   65.02   12.21
   2  -4  -2   63.95    8.50
  -2   4   2   55.71    6.21
  -2   4   2   60.43    6.69
  -2   4   2   65.57    8.16
   2  -4  -1    1.52    1.38
   2  -4  -1    2.44    1.52
   2  -4  -1    0.97    3.60
   2  -4  -1    2.76    3.48
  -2   4   1    0.56    0.57
  -2   4   1    1.21    2.74
  -2   4   1    0.89    1.97
  -2   4   1    3.19    2.04
  -2   4   1    1.27    0.99
   2  -4   0    0.14    1.72
   2  -4   0    0.85    2.47
   2  -4   0    1.08    1.70
   2  -4   0    0.81    2.55
  -2   4   0    0.62    1.49
  -2   4   0    1.15    2.02
  -2   4   0    0.68    2.63
   2  -4   1  111.52   12.69
   2  -4   1   46.74  113.42
   2  -4   1  127.63   14.19
   2  -4   1   98.24    8.99
  -2   4  -1  111.99   13.92
  -2   4  -1  118.95   15.25
   2  -4   2  304.15   28.88
   2  -4   2  295.39   86.41
   2  -4   2  319.68   27.30
   2  -4   2  311.96   30.04
  -2   4  -2  269.86   23.38
  -2   4  -2  291.15   27.87
   2  -4   3  298.98   30.61
   2  -4   3  258.64   24.26
   2  -4   3  253.77   20.26
  -2   4  -3  288.03   30.37
  -2   4  -3  269.81   25.33
  -2   4  -3  265.18   33.40
   2  -4   4   36.68    5.67
   2  -4   4   28.52    5.02
  -2   4  -4   39.06    9.43
  -2   4  -4   27.81    6.42
  -2   4  -4   29.47    5.45
   2  -4   5  540.91   54.36
   2  -4   5  491.47   46.27
  -2   4  -5  546.47   51.55
  -2   4  -5  729.89   71.84
  -2   4  -5  893.11  101.75
  -2   4  -6    9.77    5.62
  -2   4  -6    9.16    9.65
  -2   4  -7    0.71    3.26
  -2   4  -7    0.98    5.14
  -2   4  -8   20.59   11.42
  -2   4  -8   12.44    5.44
  -2   4  -9    5.17    5.63
  -2   4 -10    0.10    1.74
   2  -3  -9   46.93   13.83
  -2   3   9   61.34   12.34
   2  -3  -8   39.50   13.70
  -2   3   8   52.60    9.51
   2  -3  -7   95.18   19.17
   2  -3  -7  124.54   20.57
   2  -3  -6   14.28    7.12
   2  -3  -6   13.71    6.91
   2  -3  -6   11.01    5.11
   2  -3  -5   29.06    7.57
   2  -3  -5   26.39    5.39
   2  -3  -5   28.61    7.61
   2  -3  -4  179.05   21.38
   2  -3  -4  205.97   25.66
   2  -3  -4  175.79   19.08
  -2   3   4  165.97  198.25
  -2   3   4  192.08   20.36
  -2   3   4  161.47   15.56
  -2   3   4  198.00   22.84
   2  -3  -3    8.26    2.10
   2  -3  -3    8.32    3.56
   2  -3  -3   10.00    5.05
   2  -3  -3    5.05    1.46
   2  -3  -3    8.52    4.24
  -2   3   3   12.12    3.50
  -2   3   3   10.71    3.38
  -2   3   3   13.69   63.30
  -2   3   3   10.05    3.47
   2  -3  -2   39.25    9.02
   2  -3  -2   39.21    8.53
   2  -3  -2   36.53    5.18
   2  -3  -2   35.23    4.30
   2  -3  -2   40.36    4.63
  -2   3   2   41.96    9.36
  -2   3   2   39.44    5.61
  -2   3   2   36.10    4.53
  -2   3   2   56.69   49.92
   2  -3  -1  774.55   75.57
   2  -3  -1  744.59   66.29
   2  -3  -1  690.32   65.35
   2  -3  -1  710.42   65.83
  -2   3   1  650.58   54.60
  -2   3   1  765.34   62.10
  -2   3   1  699.53   61.95
  -2   3   1  719.20   69.83
  -2   3   1  562.31   56.88
   2  -3   0  127.17   14.37
   2  -3   0  111.17   12.89
   2  -3   0  105.70   29.58
   2  -3   0  122.41   13.05
  -2   3   0   89.84    5.89
  -2   3   0  127.03   13.97
  -2   3   0   91.69    6.62
  -2   3   0  102.34   12.26
  -2   3   0  118.64   14.04
   2  -3   1    3.40   23.13
   2  -3   1    5.64    4.26
   2  -3   1    8.80    3.56
   2  -3   1    8.67    4.47
  -2   3  -1    8.10    3.10
  -2   3  -1    8.91    3.17
  -2   3  -1    6.16    4.38
   2  -3   2  162.65   14.29
   2  -3   2  175.73   14.39
   2  -3   2  169.20   17.15
  -2   3  -2  150.24   17.01
  -2   3  -2  152.02   16.09
  -2   3  -2  160.91   19.15
   2  -3   3   17.93    5.53
   2  -3   3   12.60    2.73
   2  -3   3   14.79    4.17
  -2   3  -3   16.28    5.85
  -2   3  -3   14.78    6.98
  -2   3  -3    9.59    1.79
  -2   3  -3   13.41    2.60
   2  -3   4  584.26   52.85
   2  -3   4  669.27   58.61
   2  -3   4  547.65   52.36
   2  -3   4  633.83   60.48
  -2   3  -4  609.46   55.27
  -2   3  -4  436.37   44.50
  -2   3  -4  478.66   50.34
  -2   3  -4  745.81   69.67
   2  -3   5  374.33   37.23
   2  -3   5  246.42   25.52
   2  -3   5  269.83   24.34
  -2   3  -5  285.39   26.08
  -2   3  -5  313.21   31.26
  -2   3  -5  346.51   29.39
  -2   3  -6   68.39   11.22
  -2   3  -6   48.50   11.75
  -2   3  -7   23.45    9.18
  -2   3  -8    1.46    3.60
  -2   3  -9   -0.08    1.59
  -2   3 -10   -0.76    1.40
   2  -2 -10   20.31    9.49
  -2   2  10   42.46    7.02
   2  -2  -9    4.87    6.87
  -2   2   9    7.69    7.51
   2  -2  -8   25.15    6.48
   2  -2  -8   18.85   10.41
   2  -2  -7  289.71   39.19
   2  -2  -7  374.61   38.13
   2  -2  -6  131.22   18.02
   2  -2  -6  109.96   16.56
   2  -2  -6  100.19   12.87
   2  -2  -5   41.40    9.16
   2  -2  -5   45.73    9.15
   2  -2  -5   41.04    8.17
  -2   2   5   36.00   16.47
  -2   2   5   49.72    9.70
  -2   2   5   47.18    8.68
   2  -2  -4   37.06    8.01
   2  -2  -4   34.34    4.80
   2  -2  -4   34.59    4.01
   2  -2  -4   38.38    7.79
  -2   2   4   32.47   12.85
  -2   2   4   36.59    4.44
  -2   2   4   44.03    5.88
  -2   2   4   38.69    7.28
   2  -2  -3   63.39    6.44
   2  -2  -3   68.34    6.98
   2  -2  -3   66.67   10.94
   2  -2  -3   54.18    4.92
   2  -2  -3   63.76    9.06
  -2   2   3   63.85    8.82
  -2   2   3   67.07    7.42
  -2   2   3   80.76   26.81
  -2   2   3   61.19    6.87
   2  -2  -2  711.79   63.29
   2  -2  -2  629.87   62.39
   2  -2  -2  663.72   60.30
   2  -2  -2  631.84   59.15
   2  -2  -2  667.73   60.06
  -2   2   2  625.19   61.43
  -2   2   2  652.94   59.35
  -2   2   2  613.54   56.02
  -2   2   2  771.45  398.54
   2  -2  -1  164.32   17.11
   2  -2  -1  145.43   15.29
   2  -2  -1  151.43   12.89
   2  -2  -1  152.45   15.89
  -2   2   1  158.39   16.71
  -2   2   1  249.36   65.26
  -2   2   1  127.39   17.26
  -2   2   1  150.94   12.49
  -2   2   1  147.26   16.61
  -2   2   1  158.75   13.47
   2  -2   0 1057.40   94.50
   2  -2   0  999.16   97.93
   2  -2   0  852.36  323.85
   2  -2   0 1055.96  102.10
  -2   2   0  902.33   85.92
  -2   2   0  962.33   94.48
  -2   2   0 1050.39   98.10
  -2   2   0  914.96   79.71
  -2   2   0  989.02   96.08
   2  -2   1    4.12    4.31
   2  -2   1    6.13    2.07
   2  -2   1    3.97    3.75
   2  -2   1    3.41    1.24
  -2   2  -1    4.50    1.62
  -2   2  -1    5.52    2.06
  -2   2  -1    4.76    3.54
  -2   2  -1    0.24    3.32
  -2   2  -1    6.93    4.80
   2  -2   2    0.70    2.22
   2  -2   2    0.38    1.45
   2  -2   2    0.72    0.53
   2  -2   2    0.99    1.65
  -2   2  -2    0.84    1.15
  -2   2  -2    0.64    2.11
  -2   2  -2    0.52    1.54
  -2   2  -2    1.11    2.27
   2  -2   3    0.96    1.61
   2  -2   3    1.46    2.47
   2  -2   3    1.52    2.51
   2  -2   3    2.33    1.36
  -2   2  -3    1.23    2.45
  -2   2  -3    2.37    1.70
  -2   2  -3    0.85    1.69
  -2   2  -3    0.67    2.21
   2  -2   4   74.43    9.24
   2  -2   4   88.05   11.04
   2  -2   4   84.45   10.30
   2  -2   4   80.52    9.05
  -2   2  -4   79.41    9.26
  -2   2  -4   95.80   10.32
  -2   2  -4   82.93    9.66
   2  -2   5    1.55    1.21
  -2   2  -5    1.86    1.82
  -2   2  -5    4.61    2.72
  -2   2  -5    2.81    2.27
  -2   2  -5    2.32    2.51
  -2   2  -6   54.45    7.95
  -2   2  -6   71.19    9.46
  -2   2  -7   10.54    6.02
  -2   2  -7   19.30    5.63
  -2   2  -8    2.49    4.42
  -2   2  -8    5.29    3.89
  -2   2  -9    1.81    3.03
   2  -1 -11    0.52    2.49
  -2   1  11    0.98    2.95
   2  -1 -10   -0.46    2.70
  -2   1  10    0.04    2.86
   2  -1  -9   17.85   11.30
  -2   1   9   33.87    8.39
   2  -1  -8  214.31   29.50
   2  -1  -8  191.16   25.30
   2  -1  -7   61.12   14.90
   2  -1  -7   75.82   10.85
   2  -1  -6    0.39    2.21
   2  -1  -6    0.18    1.23
   2  -1  -6   -0.18    1.84
  -2   1   6    0.07    1.42
   2  -1  -5  549.89   48.33
   2  -1  -5  499.06   47.15
   2  -1  -5  421.85   45.69
   2  -1  -5  392.93   42.19
   2  -1  -5  501.20   45.92
  -2   1   5  551.58   57.97
  -2   1   5  535.09   50.00
  -2   1   5  570.07   54.28
   2  -1  -4    3.81    3.40
   2  -1  -4    4.59    3.93
   2  -1  -4   11.52    3.13
   2  -1  -4    4.13    1.75
   2  -1  -4    4.52    4.32
  -2   1   4   10.02    4.84
  -2   1   4    8.21    4.29
  -2   1   4    7.17    2.14
  -2   1   4    7.49    4.10
   2  -1  -3   13.17    5.70
   2  -1  -3   12.54    2.49
   2  -1  -3   17.23    3.13
   2  -1  -3   11.18    2.63
   2  -1  -3   15.53    3.00
   2  -1  -3   14.72    3.44
  -2   1   3   15.07    5.89
  -2   1   3   15.17    2.89
  -2   1   3   17.20    6.46
  -2   1   3   16.87    6.51
   2  -1  -2  564.04   47.83
   2  -1  -2  584.84   49.55
   2  -1  -2  528.15   48.85
   2  -1  -2  528.97   43.59
   2  -1  -2  504.28   48.76
  -2   1   2  595.15   56.76
  -2   1   2  537.94   49.96
  -2   1   2  585.53   56.59
  -2   1   2  548.44   46.86
  -2   1   2  596.10   55.30
   2  -1  -1    8.12    3.95
   2  -1  -1    7.50    4.78
   2  -1  -1   10.35    2.97
   2  -1  -1    4.27    4.22
  -2   1   1    8.03    4.42
  -2   1   1   10.11    5.04
  -2   1   1    8.25    3.74
  -2   1   1    7.86    3.64
  -2   1   1    9.94   14.87
  -2   1   1    9.35    4.37
   2  -1   0    1.92   14.55
   2  -1   0    2.30    2.02
   2  -1   0    2.05    1.59
   2  -1   0    1.58    1.13
   2  -1   0    2.21    1.93
   2  -1   0    2.02    3.30
  -2   1   0    2.47    3.84
  -2   1   0    3.59    1.87
  -2   1   0    1.84    1.72
  -2   1   0    2.03    2.37
   2  -1   1  307.30   22.67
   2  -1   1  337.44   32.44
   2  -1   1  364.24   33.49
  -2   1  -1  303.99   28.09
  -2   1  -1  300.88   22.86
  -2   1  -1  324.19   25.57
  -2   1  -1  331.55   23.41
  -2   1  -1  365.80   33.84
   2  -1   2    6.97    2.78
   2  -1   2    9.03    4.34
   2  -1   2    7.73    5.21
   2  -1   2    6.58    3.33
  -2   1  -2   11.25    3.89
  -2   1  -2    8.61    4.22
  -2   1  -2    7.34    2.45
  -2   1  -2    9.47    4.29
   2  -1   3  270.57   24.69
   2  -1   3  321.24   26.37
   2  -1   3  250.38   20.51
  -2   1  -3  276.53   26.04
  -2   1  -3  200.12   29.87
  -2   1  -3  249.87   21.90
  -2   1  -3  254.73   23.85
   2  -1   4   83.22    9.91
   2  -1   4  120.69   10.15
   2  -1   4   99.34   10.31
   2  -1   4  152.43   17.62
  -2   1  -4  100.73   10.95
  -2   1  -4  100.66   17.00
  -2   1  -4  129.24   11.26
  -2   1  -4  137.89   15.02
   2  -1   5    6.45    3.39
  -2   1  -5   14.41    5.27
  -2   1  -5    6.94    3.90
  -2   1  -5    8.16    3.41
  -2   1  -6    5.74    4.08
  -2   1  -6    5.63    3.88
  -2   1  -7    1.76    2.89
  -2   1  -7    2.08    3.69
  -2   1  -8    0.31    1.49
  -2   1  -8   -0.35    2.12
  -2   1  -9    0.22    1.66
  -2   1  -9    0.56    2.02
   2   0 -11    0.62    1.81
  -2   0  11   -0.35    1.19
   2   0 -10    5.25    6.54
  -2   0  10   10.36    7.01
   2   0  -9    8.15    6.85
  -2   0   9   14.79    9.44
   2   0  -8    1.03    1.81
   2   0  -8   -0.57    3.13
  -2   0   8   -0.42    2.22
   2   0  -7  411.58   50.57
   2   0  -7  492.11   54.98
   2   0  -6   66.32    8.02
   2   0  -6   96.93   10.35
   2   0  -6   60.23    6.81
   2   0  -6   83.56   12.82
   2   0  -6   67.42    8.82
  -2   0   6   72.11    9.29
  -2   0   6   71.21    9.24
  -2   0   6   86.73   12.56
   2   0  -5  269.25   23.63
   2   0  -5  274.42   24.21
   2   0  -5  273.44   25.85
   2   0  -5  231.91   21.95
   2   0  -5  327.61   27.89
  -2   0   5  355.10   34.86
  -2   0   5  317.64   30.06
  -2   0   5  290.53   26.06
   2   0  -4    0.34    1.78
   2   0  -4    0.54    1.69
   2   0  -4    0.90    2.05
   2   0  -4    0.44    1.30
   2   0  -4    0.72    2.46
  -2   0   4    0.75    1.35
  -2   0   4    0.53    0.47
  -2   0   4    1.69    1.80
  -2   0   4    0.75    1.97
   2   0  -3  116.35   10.48
   2   0  -3  114.10    8.87
   2   0  -3  120.40   13.95
   2   0  -3  127.76    9.76
   2   0  -3  126.17    8.51
  -2   0   3  123.47   12.38
  -2   0   3  136.90   16.60
  -2   0   3  133.00   11.75
  -2   0   3  112.22    7.66
  -2   0   3  149.08   17.99
   2   0  -2 1200.60  114.81
   2   0  -2 1327.05  121.56
   2   0  -2 1219.38  122.82
   2   0  -2 1201.76  119.20
   2   0  -2 1124.61  105.83
  -2   0   2 1168.10  110.58
  -2   0   2 1295.24  122.94
  -2   0   2 1299.44  131.72
  -2   0   2 1140.14  114.55
   2   0  -1   80.02   10.61
   2   0  -1   75.68    9.53
   2   0  -1   72.96    7.22
   2   0  -1   94.46   12.76
  -2   0   1   78.28   15.19
  -2   0   1   84.84   11.37
  -2   0   1   83.00   10.44
   2   0   0   69.75   14.26
   2   0   0   72.86   10.63
  -2   0   0   70.18   14.06
  -2   0   0   65.04    6.08
  -2   0   0   74.14    8.06
  -2   0   0   70.73   10.50
   2   0   1   27.06    4.54
   2   0   1   25.95    4.54
   2   0   1   23.97   12.15
  -2   0  -1   24.55    8.10
  -2   0  -1   32.58    6.27
  -2   0  -1   21.20    3.88
  -2   0  -1   27.16    2.94
  -2   0  -1   26.36    7.28
   2   0   2    1.50    1.23
   2   0   2    3.61    4.29
   2   0   2    3.40    2.63
  -2   0  -2    0.90    3.12
  -2   0  -2    2.89    1.38
  -2   0  -2    1.10    0.52
  -2   0  -2    0.43    0.57
  -2   0  -2    0.93    1.22
  -2   0  -2    1.71    1.54
   2   0   3   64.74    5.43
   2   0   3   46.92    7.69
   2   0   3   73.83    9.68
   2   0   3   83.80   10.28
  -2   0  -3   83.48    6.97
  -2   0  -3   80.08   12.01
  -2   0  -3   47.79    6.62
  -2   0  -3   65.09    6.33
   2   0   4 2043.80  225.14
   2   0   4 1522.34  171.96
  -2   0  -4 1369.68  155.90
  -2   0  -4 1115.06  193.51
  -2   0  -4 1876.73  212.36
  -2   0  -5   41.74    5.45
  -2   0  -5   62.84   12.16
  -2   0  -5   50.43    8.86
  -2   0  -6   36.57   10.90
  -2   0  -6   37.69   10.27
  -2   0  -7    7.94    4.63
  -2   0  -7   16.43    7.07
  -2   0  -8   -0.19    0.88
  -2   0  -8    0.67    1.62
  -2   0  -9   -0.07    1.63
   2   1 -11   16.37    9.54
  -2  -1  11   34.87    9.53
   2   1 -10    5.07    6.80
  -2  -1  10    9.25    7.29
   2   1  -9    2.50    3.48
  -2  -1   9    5.78    5.55
   2   1  -8    0.36    3.03
  -2  -1   8    1.05    2.48
   2   1  -7   10.69    4.04
   2   1  -7    8.99    3.42
   2   1  -7   13.73    6.38
  -2  -1   7    6.10    3.09
  -2  -1   7   12.52    4.42
   2   1  -6   23.63    6.75
   2   1  -6   19.62    4.79
   2   1  -6   14.96    4.68
  -2  -1   6   13.44    4.81
  -2  -1   6   21.78    5.21
  -2  -1   6   19.24    5.87
  -2  -1   6   22.74    4.78
   2   1  -5  523.39   51.48
   2   1  -5  603.57   52.36
   2   1  -5  507.08   44.57
  -2  -1   5  636.25   55.73
  -2  -1   5  444.05   40.90
  -2  -1   5  530.91   45.78
  -2  -1   5  495.60   47.37
   2   1  -4   25.19    6.72
   2   1  -4   23.69    3.63
   2   1  -4   24.22    4.07
  -2  -1   4   24.30    4.25
  -2  -1   4   24.72    6.30
  -2  -1   4   26.23    6.95
  -2  -1   4   25.61    4.96
  -2  -1   4   24.97    5.41
   2   1  -3   91.51   12.96
   2   1  -3   84.10    8.56
   2   1  -3   67.26    5.38
   2   1  -3   93.33    7.58
  -2  -1   3   85.16   12.19
  -2  -1   3   97.93   10.57
  -2  -1   3   96.38   12.65
  -2  -1   3   91.33   12.80
  -2  -1   3   88.48    9.02
   2   1  -2  189.30   20.22
   2   1  -2  174.69   12.81
   2   1  -2  166.57   13.79
   2   1  -2  186.72   20.26
  -2  -1   2  182.80   23.93
  -2  -1   2  182.28   19.72
  -2  -1   2  177.39   12.93
   2   1  -1  699.60   72.77
   2   1  -1  761.63   65.61
   2   1  -1  708.08   66.66
   2   1  -1  770.81   71.24
  -2  -1   1  762.86   86.00
  -2  -1   1  804.11   65.13
  -2  -1   1  720.95   77.28
  -2  -1   1  725.60   68.54
  -2  -1   1  759.12   70.43
   2   1   0  583.41   51.39
   2   1   0  663.39   54.05
   2   1   0  614.78   59.39
   2   1   0  627.49   53.60
  -2  -1   0  548.90   56.62
  -2  -1   0  666.42   58.51
  -2  -1   0  691.28   52.90
  -2  -1   0  578.63   49.80
   2   1   1  469.47  166.10
   2   1   1  295.34   30.18
   2   1   1  281.64   27.29
   2   1   1  265.19   18.58
  -2  -1  -1  251.99   20.70
  -2  -1  -1  290.44   31.14
  -2  -1  -1  296.28   21.90
  -2  -1  -1  273.24   21.85
   2   1   2    2.03    0.65
   2   1   2    4.04    3.33
   2   1   2    2.07    0.53
   2   1   2    3.26    4.42
  -2  -1  -2    2.64    3.09
  -2  -1  -2    2.87    4.28
  -2  -1  -2    1.27    1.16
  -2  -1  -2    1.41    1.08
  -2  -1  -2    2.73    1.44
   2   1   3  127.20   22.60
   2   1   3   78.13   12.13
  -2  -1  -3   92.45   11.57
  -2  -1  -3  112.08   11.74
  -2  -1  -3   77.11   10.38
   2   1   4  144.72   29.90
  -2  -1  -4  119.12   13.68
  -2  -1  -4  118.18   15.13
  -2  -1  -4  141.05   15.61
  -2  -1  -5   20.30    6.58
  -2  -1  -5   30.59   10.34
  -2  -1  -6  823.57   95.65
  -2  -1  -6  698.37   84.81
  -2  -1  -7    0.34    1.63
  -2  -1  -7   -0.24    2.82
  -2  -1  -8    0.07    2.09
   2   2 -12   -0.19    2.71
   2   2 -11    7.07    9.46
  -2  -2  11   15.11    6.38
   2   2 -10   17.29   10.61
  -2  -2  10   31.00    9.75
   2   2  -9    2.24    5.45
  -2  -2   9    4.33    5.36
   2   2  -8   41.99   12.01
   2   2  -8   43.81    9.19
  -2  -2   8   60.82   11.75
   2   2  -7   12.87    6.54
   2   2  -7    8.05    3.89
   2   2  -7   16.46    5.75
  -2  -2   7   14.19    4.57
  -2  -2   7   18.63    6.32
   2   2  -6    2.82    3.33
   2   2  -6    1.24    2.85
   2   2  -6    3.01    3.34
  -2  -2   6    2.24    3.22
  -2  -2   6    2.18    1.62
  -2  -2   6    2.34    2.50
  -2  -2   6    2.69    2.12
   2   2  -5   12.55    3.19
   2   2  -5   16.28    5.97
   2   2  -5   18.08    6.49
  -2  -2   5   16.57    5.47
  -2  -2   5   12.72    4.34
  -2  -2   5   15.66    4.35
  -2  -2   5   13.31    5.09
   2   2  -4  161.83   18.07
   2   2  -4  159.98   17.28
   2   2  -4  147.75   15.00
  -2  -2   4  144.31   12.26
  -2  -2   4  150.61   14.34
  -2  -2   4  148.89   12.41
  -2  -2   4  158.56   17.62
   2   2  -3  652.24   59.37
   2   2  -3  662.06   64.74
   2   2  -3  656.44   61.77
   2   2  -3  616.99   50.93
  -2  -2   3  640.29   65.67
  -2  -2   3  649.25   55.61
  -2  -2   3  599.17   59.29
  -2  -2   3  679.20   59.99
   2   2  -2  193.97   17.44
   2   2  -2  185.17   15.90
   2   2  -2  185.68   16.51
   2   2  -2  165.85   14.41
  -2  -2   2  184.12   15.26
  -2  -2   2  178.31   26.73
  -2  -2   2  173.39   19.72
  -2  -2   2  216.11   18.51
  -2  -2   2  162.53   14.55
   2   2  -1    0.62    4.12
   2   2  -1    1.06    2.47
   2   2  -1    0.74    1.12
   2   2  -1    0.77    1.42
  -2  -2   1    1.71    2.43
  -2  -2   1    0.60    1.53
  -2  -2   1    1.56    1.38
  -2  -2   1    0.53    3.48
  -2  -2   1    1.67    2.56
   2   2   0  169.82   19.18
   2   2   0  153.55   10.51
   2   2   0  173.82   18.95
   2   2   0  159.36   15.95
  -2  -2   0  166.25   21.23
  -2  -2   0  218.28   17.84
  -2  -2   0  176.75   14.30
  -2  -2   0  196.48   15.24
  -2  -2   0  156.71   17.12
   2   2   1 1153.03  169.55
   2   2   1  984.03  111.28
   2   2   1 1008.68  100.19
   2   2   1  709.32   58.71
  -2  -2  -1  925.27   87.34
  -2  -2  -1 1052.13  104.31
  -2  -2  -1 1116.35  115.28
  -2  -2  -1  834.27   80.31
  -2  -2  -1 1009.41   94.96
   2   2   2    2.20   11.18
   2   2   2    3.00    6.04
  -2  -2  -2    1.80    1.76
  -2  -2  -2    1.40    1.45
  -2  -2  -2    1.11    1.80
  -2  -2  -2    2.27    3.54
  -2  -2  -2    0.52    1.31
   2   2   3   56.23   64.61
  -2  -2  -3   40.46    8.63
  -2  -2  -3   38.96   10.32
  -2  -2  -3   32.07    5.69
   2   2   4    4.89    2.33
  -2  -2  -4    3.74    3.06
  -2  -2  -4    5.88    5.62
   2   2   5   61.24   10.81
  -2  -2  -5   65.97   11.90
  -2  -2  -5   92.89   18.04
  -2  -2  -6   49.99   11.29
  -2  -2  -6   24.20    5.75
  -2  -2  -7   18.88    5.82
  -2  -2  -8  114.62   18.25
   2   3 -12   24.45    9.54
   2   3 -11   -0.48    6.45
  -2  -3  11    4.37    2.78
   2   3 -10    3.08    5.73
   2   3 -10    1.05    1.75
  -2  -3  10    2.77    3.34
   2   3  -9   14.54    6.03
   2   3  -9   13.96    6.34
  -2  -3   9   21.67    7.20
   2   3  -8   33.92   12.45
   2   3  -8   42.40    7.25
  -2  -3   8   43.61    6.42
   2   3  -7    5.20    4.99
   2   3  -7    3.56    2.88
   2   3  -7    4.69    5.03
  -2  -3   7    6.56    4.01
   2   3  -6   18.32    7.07
   2   3  -6   17.80    6.63
   2   3  -6   10.34    4.61
  -2  -3   6   16.07    3.13
  -2  -3   6   14.77    5.04
  -2  -3   6   17.40    3.34
  -2  -3   6   13.62    4.84
   2   3  -5   90.86   14.08
   2   3  -5   92.31   12.77
   2   3  -5   93.41    9.66
  -2  -3   5   73.48    9.98
  -2  -3   5   80.44   11.64
  -2  -3   5   99.10   13.00
  -2  -3   5   87.06   10.64
   2   3  -4  124.88   15.40
   2   3  -4  102.23    7.30
   2   3  -4  112.85    7.79
   2   3  -4  135.73   16.23
   2   3  -4  187.48   23.89
  -2  -3   4  120.07   16.08
  -2  -3   4  118.05   12.67
  -2  -3   4  114.34    9.65
   2   3  -3  246.52   23.60
   2   3  -3  263.30   23.12
   2   3  -3  246.44   26.58
   2   3  -3  255.02   20.60
   2   3  -3  257.76   24.89
   2   3  -3  227.40   18.67
  -2  -3   3  233.71   22.85
  -2  -3   3  243.50   21.49
  -2  -3   3  214.28   23.89
  -2  -3   3  295.90   27.53
   2   3  -2    4.40    3.29
   2   3  -2    4.58    3.99
   2   3  -2    3.04    2.51
   2   3  -2    2.44    2.43
  -2  -3   2    3.81    3.10
  -2  -3   2    3.32   26.65
  -2  -3   2    3.44    1.94
  -2  -3   2    1.86    2.19
  -2  -3   2    1.83    1.62
  -2  -3   2    2.21    2.19
   2   3  -1 1333.48  142.72
   2   3  -1 1415.58  143.10
   2   3  -1 1224.76  121.30
   2   3  -1 1401.70  156.49
  -2  -3   1 1426.87  150.52
  -2  -3   1 1279.14  133.10
  -2  -3   1 1460.77  149.12
  -2  -3   1 1270.97  136.67
  -2  -3   1 1359.21  139.86
   2   3   0    6.20    7.57
   2   3   0    3.76    4.19
  -2  -3   0    4.46    4.85
  -2  -3   0    4.68    4.10
  -2  -3   0    5.12    2.52
  -2  -3   0    2.56    3.43
  -2  -3   0    3.29    3.85
  -2  -3   0    6.53    3.01
   2   3   1   68.78   19.21
   2   3   1   66.93   11.42
  -2  -3  -1   41.40    7.48
  -2  -3  -1   80.99   14.08
  -2  -3  -1   62.85    7.14
  -2  -3  -1   68.37    9.37
  -2  -3  -1   81.44   11.06
  -2  -3  -1   68.78   13.36
   2   3   2   -0.19    1.75
   2   3   2    1.69   14.28
  -2  -3  -2    1.73    3.67
  -2  -3  -2    1.23    1.79
  -2  -3  -2    2.38    1.76
  -2  -3  -2    0.85    1.71
   2   3   3   80.92   13.01
  -2  -3  -3   95.25   17.86
  -2  -3  -3   73.76    8.10
   2   3   4    2.86    3.74
  -2  -3  -4    3.42    5.01
  -2  -3  -4    2.62    1.79
   2   3   5   -0.05    1.56
  -2  -3  -5   -0.35    2.74
  -2  -3  -5   -0.22    1.70
  -2  -3  -6   12.54    8.11
  -2  -3  -7   16.01    7.95
   2   4 -12    2.37    5.44
   2   4 -11   33.35    5.68
   2   4 -11   56.99   14.48
   2   4 -10   29.76    9.05
   2   4 -10   23.40   12.95
   2   4  -9    3.34    4.14
   2   4  -9    4.30    4.63
  -2  -4   9    3.60    4.14
   2   4  -8    9.51    6.52
   2   4  -8    8.30    7.47
  -2  -4   8    4.93    4.81
   2   4  -7  287.12   38.40
   2   4  -7  222.33   24.43
   2   4  -7  325.30   36.10
  -2  -4   7  295.12   26.37
   2   4  -6  387.18   39.33
   2   4  -6  579.77   59.28
   2   4  -6  465.67   48.34
  -2  -4   6  402.05   40.17
  -2  -4   6  301.31   30.35
   2   4  -5  148.92   17.92
   2   4  -5  150.82   14.40
   2   4  -5  136.78   20.20
  -2  -4   5  106.53   11.15
  -2  -4   5  138.56   14.46
  -2  -4   5  152.97   19.04
   2   4  -4    1.51    2.44
   2   4  -4    1.94    3.16
   2   4  -4    1.41    2.90
   2   4  -4    0.84    1.11
   2   4  -4    0.23    1.52
  -2  -4   4    1.12    3.10
  -2  -4   4    0.83    1.92
  -2  -4   4    0.85    0.97
   2   4  -3   26.72    5.43
   2   4  -3   32.55    8.36
   2   4  -3   29.72    4.53
   2   4  -3   24.56    4.64
   2   4  -3   28.73    4.65
  -2  -4   3   25.87    5.05
  -2  -4   3   24.58    6.22
  -2  -4   3   32.84   39.67
  -2  -4   3   24.50    3.95
  -2  -4   3   29.31    7.97
   2   4  -2   92.63   13.66
   2   4  -2   67.73    7.99
   2   4  -2   73.71    9.88
   2   4  -2   96.48   11.12
   2   4  -2   96.19   10.22
  -2  -4   2   83.12    9.35
  -2  -4   2   83.32    8.61
  -2  -4   2   70.81    6.96
  -2  -4   2   96.93   13.84
  -2  -4   2   92.90   17.59
   2   4  -1  295.46   32.72
   2   4  -1  325.99   31.59
   2   4  -1  300.60   29.92
  -2  -4   1  262.20   27.97
  -2  -4   1  330.73   30.47
  -2  -4   1  259.43   28.78
  -2  -4   1  301.38   31.12
  -2  -4   1  237.34   22.81
   2   4   0  223.47   25.33
   2   4   0  228.14   31.75
   2   4   0  260.03   29.04
  -2  -4   0  189.54   23.22
  -2  -4   0  396.51   38.73
  -2  -4   0  217.46   27.22
  -2  -4   0  259.80   28.38
  -2  -4   0  234.09   24.41
   2   4   1  117.31   16.75
  -2  -4  -1  127.17   15.51
  -2  -4  -1   82.69   12.50
  -2  -4  -1  106.55   12.43
  -2  -4  -1  100.79   16.44
   2   4   2   36.09    9.17
  -2  -4  -2   28.92    9.06
  -2  -4  -2   16.20    5.75
  -2  -4  -2   28.42    5.79
   2   4   3    1.86    3.83
  -2  -4  -3    1.87    2.34
  -2  -4  -3    1.20    2.59
   2   4   4    5.30    4.57
  -2  -4  -4    3.98    5.36
  -2  -4  -4    3.45    3.18
   2   4   5    1.56    2.78
  -2  -4  -5    1.95    4.23
  -2  -4  -6    5.77    5.43
   2   5 -12    7.09    8.49
   2   5 -11    6.77    4.99
   2   5 -11    6.09    8.85
   2   5 -10   22.51    9.08
   2   5 -10   13.75    7.49
   2   5  -9  108.04   18.60
   2   5  -9   94.27   17.90
   2   5  -8   20.68    9.65
   2   5  -8   14.11    7.08
   2   5  -7    0.36    2.66
   2   5  -7    2.16    4.17
   2   5  -7    3.87    5.39
   2   5  -6  242.11   28.43
   2   5  -6  232.79   36.20
   2   5  -6  221.16   25.98
   2   5  -5  241.40   27.19
   2   5  -5  291.74   34.18
   2   5  -5  279.03   32.32
   2   5  -4  111.09   12.80
   2   5  -4  139.74   12.40
   2   5  -4  141.21   14.24
   2   5  -4  136.87   11.85
  -2  -5   4   72.27   10.57
  -2  -5   4  101.59   10.79
  -2  -5   4   96.16   59.04
  -2  -5   4  100.23   12.93
   2   5  -3    4.62    2.99
   2   5  -3    6.15    2.73
   2   5  -3    9.87    3.36
   2   5  -3    9.78    2.22
  -2  -5   3    7.65    3.58
  -2  -5   3    4.80    3.24
  -2  -5   3    8.83    3.70
  -2  -5   3    4.32    2.08
  -2  -5   3   36.80   92.36
   2   5  -2    1.24    2.00
   2   5  -2    1.15    1.44
   2   5  -2    1.67    2.61
  -2  -5   2    1.28    1.33
  -2  -5   2    1.67    3.95
  -2  -5   2    1.09    2.09
  -2  -5   2    1.16    2.40
   2   5  -1   50.62    9.20
   2   5  -1   50.62   10.72
  -2  -5   1   42.78    9.34
  -2  -5   1   48.77    9.89
  -2  -5   1   48.78   11.04
   2   5   0    1.97    3.23
  -2  -5   0    1.77    3.70
  -2  -5   0    1.20    2.51
  -2  -5   0    1.12    2.98
   2   5   1  110.95   16.29
  -2  -5  -1   93.35   15.14
  -2  -5  -1  100.44   12.88
  -2  -5  -1   85.34   14.70
   2   5   2   85.37   14.60
  -2  -5  -2   64.82   11.06
  -2  -5  -2   74.05   10.93
   2   5   3    2.42    3.71
  -2  -5  -3    0.72    3.43
  -2  -5  -3    0.87    2.04
   2   5   4    8.54    5.03
  -2  -5  -4    4.31    4.99
  -2  -5  -5   14.84    6.14
   2   6 -12    0.31    1.37
  -2  -6  12   -2.23   15.77
   2   6 -11   38.52    7.37
   2   6 -11   25.00   16.97
   2   6 -10   16.85    9.18
   2   6 -10   24.73   10.44
   2   6  -9   10.65    8.29
   2   6  -9    7.45    6.83
   2   6  -8   26.30   16.17
   2   6  -8   28.36   10.22
   2   6  -7   55.01   14.41
   2   6  -7   51.49   11.38
  -2  -6   7   29.30    8.99
   2   6  -6    1.91    3.96
  -2  -6   6    1.69    3.90
  -2  -6   6    0.64   20.68
   2   6  -5    4.67    3.89
  -2  -6   5    2.52    5.35
  -2  -6   5    6.17   67.26
  -2  -6   4  150.79  218.62
  -2  -6   4   64.55   10.75
   2   6  -3   89.41   12.54
  -2  -6   3   80.39   23.00
  -2  -6   3   87.40   13.66
   2   6  -2   12.75    5.83
  -2  -6   2   10.14    4.43
  -2  -6   2    7.52    6.57
   2   6  -1   86.56   14.89
  -2  -6   1   74.79   16.40
  -2  -6   1   60.14   12.25
   2   6   0   22.13    8.14
  -2  -6   0   12.29    3.19
  -2  -6   0   14.67    7.61
   2   6   1   46.56   11.39
  -2  -6  -1   38.83    8.71
  -2  -6  -1   18.61    7.74
  -2  -6  -1   24.58    8.91
   2   6   2    1.82    3.41
  -2  -6  -2    0.50    1.53
   2   6   3   16.83    5.85
  -2  -6  -3    4.46    4.87
   2   6   4    1.90    2.67
  -2  -6  -4    1.07    1.38
   2   7 -11    2.54    4.04
  -2  -7  11   -1.17   41.56
   2   7 -10    2.88    5.35
  -2  -7  10   -0.09   22.69
   2   7  -9   33.37   12.50
  -2  -7   9   -0.55   84.05
   2   7  -8   10.75    8.12
  -2  -7   8   -0.43   52.28
   2   7  -7   22.24    8.82
  -2  -7   7    9.51   67.93
  -2  -7   7   14.82    7.70
   2   7  -6    0.51    2.54
  -2  -7   6    3.48   39.80
  -2  -7   6    0.11    3.27
   2   7  -5    8.94    4.49
  -2  -7   5   11.26   20.76
  -2  -7   5    6.93    7.69
   2   7  -4   36.75    7.44
  -2  -7   4   38.05    8.86
  -2  -7   4   29.64   14.09
   2   7  -3   22.84    6.50
  -2  -7   3   22.24    6.73
  -2  -7   3   18.70    9.55
   2   7  -2   96.52   13.98
  -2  -7   2   79.58   11.89
  -2  -7   2   52.41   13.14
   2   7  -1   37.52   10.06
  -2  -7   1   16.15    6.35
  -2  -7   1   24.69   10.50
   2   7   0    8.60    5.42
  -2  -7   0    0.54    3.70
  -2  -7   0    1.91    3.03
   2   7   1   66.80   12.55
  -2  -7  -1   30.07   10.60
   2   7   2   41.33   11.33
   2   7   3    0.53    2.13
   2   8 -10    4.05    4.89
  -2  -8  10    4.11   61.27
   2   8  -9    3.89    3.17
  -2  -8   9   -1.79  112.30
   2   8  -8    1.98    4.14
  -2  -8   8   -1.65   56.02
   2   8  -7   10.62    5.31
  -2  -8   7    3.18    5.80
  -2  -8   7    3.30   20.04
   2   8  -6    3.18    3.22
  -2  -8   6    2.76    5.48
  -2  -8   6    2.24    7.70
  -2  -8   5   22.01    9.84
  -2  -8   5   18.75   11.29
   2   8  -4   23.73    4.27
  -2  -8   4   30.91    7.39
  -2  -8   4   21.11    9.99
   2   8  -3    0.96    1.55
  -2  -8   3    0.28    2.42
  -2  -8   3    0.28    2.67
   2   8  -2   50.24   10.05
  -2  -8   2   12.30    6.66
  -2  -8   2   38.91    8.11
   2   8  -1    4.49    4.16
  -2  -8   1    0.19    3.08
  -2  -8   1    1.55    4.66
   2   8   0  143.22   19.35
  -2  -8   0   64.39   17.19
   2   8   1    7.35    3.44
  -2  -8  -1    0.58    1.44
   2   9  -9    2.05    2.53
  -2  -9   9    0.10    4.85
   2   9  -8    7.83    3.71
  -2  -9   8    7.91    6.63
  -2  -9   7    6.30    5.72
  -2  -9   7    3.44    4.15
  -2  -9   6    2.10    5.42
  -2  -9   6    4.47    4.97
  -2  -9   5    0.58    7.88
  -2  -9   5   68.46   11.32
  -2  -9   4    0.17    2.44
  -2  -9   4    3.37    4.20
   2   9  -3    9.55    2.91
  -2  -9   3   -0.19    1.41
  -2  -9   3    5.14    4.97
   2   9  -2    4.31    3.14
  -2  -9   2   -0.06    2.35
  -2  -9   2    4.33    4.79
   2   9  -1    0.77    1.73
  -2  -9   1   -0.63    1.91
  -2 -10   6    1.93    3.37
  -2 -10   5    2.42    4.18
   3 -10   0    1.53    4.42
   3 -10   0    1.40    3.67
  -3  10   0    4.74    2.31
   3 -10   1   11.35    7.40
   3 -10   1   24.68    7.22
  -3  10  -1   36.34    5.37
   3 -10   2   -0.02    1.30
   3 -10   2    0.26    1.63
  -3  10  -2    0.03    1.57
   3 -10   3   -0.69    6.45
  -3  10  -3   24.44    5.47
   3 -10   4   -0.07    4.53
  -3  10  -4    7.37    3.27
   3 -10   5    0.08    3.50
  -3  10  -5    2.69    1.35
   3 -10   6    0.01    1.72
  -3  10  -6    0.60    1.59
   3  -9  -2   17.78    6.99
   3  -9  -2   20.48    8.02
  -3   9   2   24.36    6.94
   3  -9  -1    1.73    4.45
   3  -9  -1    1.08    2.35
  -3   9   1    1.57    3.57
   3  -9   0   10.30    4.50
   3  -9   0   20.66    7.99
  -3   9   0   23.15    7.81
   3  -9   1    1.69    5.98
   3  -9   1    9.86    3.66
  -3   9  -1    3.86    6.02
   3  -9   2    0.13    4.03
   3  -9   2    1.02    3.08
  -3   9  -2    2.03    3.42
   3  -9   3    0.01    3.54
  -3   9  -3    6.50    4.10
   3  -9   4    0.52    2.88
  -3   9  -4   -0.04    1.28
  -3   9  -4    0.21    1.59
   3  -9   5   15.42    9.87
  -3   9  -5   21.44    7.68
   3  -9   6    3.64    3.36
  -3   9  -6    6.63    5.11
  -3   9  -7    6.70    5.57
  -3   9  -8    0.80    3.40
   3  -8  -4   11.62    5.90
   3  -8  -4   16.56    6.57
  -3   8   4   15.89    4.65
   3  -8  -3    8.88    7.00
   3  -8  -3    7.37    6.11
  -3   8   3   11.06    5.64
   3  -8  -2   17.06   10.73
   3  -8  -2   16.50    9.64
  -3   8   2   19.79    5.39
   3  -8  -1    3.04    2.99
   3  -8  -1    2.32    5.80
  -3   8   1    4.18    5.43
   3  -8   0   97.10   14.17
   3  -8   0   71.04   18.54
  -3   8   0  107.38   13.63
   3  -8   1   10.55    6.39
   3  -8   1    2.42    4.44
  -3   8  -1   13.86    6.57
   3  -8   2   41.22   16.03
   3  -8   2   54.00   11.19
  -3   8  -2   43.58   10.08
  -3   8  -2   62.23   12.39
   3  -8   3    7.00    8.44
  -3   8  -3    6.24    3.25
  -3   8  -3    8.29    5.64
   3  -8   4    2.91   10.52
  -3   8  -4   11.39    6.62
  -3   8  -4    9.71    4.98
   3  -8   5    7.57   20.68
  -3   8  -5   14.85    5.33
   3  -8   6    0.46   15.12
  -3   8  -6    8.12    4.30
   3  -8   7    0.27    6.71
  -3   8  -7    0.71    3.53
  -3   8  -8    0.42    1.69
   3  -7  -6   23.62    7.24
   3  -7  -5    4.70    4.29
   3  -7  -5    5.76    2.59
  -3   7   5    1.45    2.66
   3  -7  -4    1.66    2.34
   3  -7  -4    1.86    2.75
  -3   7   4    1.44    2.00
   3  -7  -3   27.50   12.62
   3  -7  -3   24.66   11.70
  -3   7   3   29.37    9.80
   3  -7  -2   77.10   16.49
   3  -7  -2   88.68   19.90
  -3   7   2  100.35   13.16
   3  -7  -1  173.44   28.16
   3  -7  -1  213.35   31.83
  -3   7   1  224.59   24.76
   3  -7   0   34.51   10.96
   3  -7   0   26.08    7.86
  -3   7   0   38.65   11.59
   3  -7   1   35.60   14.72
   3  -7   1   44.07    7.38
  -3   7  -1   50.18   12.01
  -3   7  -1   38.49    9.42
   3  -7   2    9.67    9.62
   3  -7   2    9.47    4.97
  -3   7  -2   12.81    6.35
  -3   7  -2    8.60    5.97
   3  -7   3    4.15   20.37
  -3   7  -3    9.87    5.80
  -3   7  -3    7.75    6.56
   3  -7   4   35.08  134.25
  -3   7  -4   16.09    5.70
  -3   7  -4   16.18    5.92
   3  -7   5    0.14   45.12
  -3   7  -5    3.92    3.54
  -3   7  -5    1.78    3.14
   3  -7   6   10.51   41.72
  -3   7  -6   16.52    6.13
   3  -7   7    0.88   57.79
  -3   7  -7   14.38    8.62
  -3   7  -8    2.49    4.42
  -3   7  -9    5.83    4.67
   3  -6  -7  104.28   15.46
   3  -6  -6    0.25    2.27
   3  -6  -6    0.16    1.89
   3  -6  -5   17.68    7.95
   3  -6  -5   18.96    8.23
  -3   6   5   15.32    5.47
   3  -6  -4  109.51   14.86
   3  -6  -4  119.91   21.67
  -3   6   4  118.62   17.29
   3  -6  -3   10.35    6.97
   3  -6  -3   10.49    5.27
  -3   6   3   12.07    6.75
   3  -6  -2    4.79    4.01
   3  -6  -2    4.56    5.54
  -3   6   2    4.40    5.61
   3  -6  -1  233.77   32.57
   3  -6  -1  255.75   32.69
  -3   6   1  269.19   33.04
   3  -6   0  100.72   15.57
   3  -6   0   78.38   18.48
  -3   6   0  111.69   12.45
  -3   6   0   69.59   10.22
   3  -6   1  214.34   23.72
   3  -6   1  167.46   29.47
  -3   6  -1  193.56   23.01
  -3   6  -1  219.26   21.45
   3  -6   2   24.22   26.32
   3  -6   2   30.83    4.53
  -3   6  -2   29.55    8.39
  -3   6  -2   34.85    9.66
   3  -6   3   13.71  159.14
  -3   6  -3   42.34   12.02
  -3   6  -3   41.29    6.44
   3  -6   4    9.47   58.06
  -3   6  -4   56.96   14.71
  -3   6  -4   46.75    6.53
   3  -6   5    1.19   14.54
  -3   6  -5    0.97    3.95
  -3   6  -5    0.36    2.05
   3  -6   6    1.28    6.00
  -3   6  -6   -0.15    2.49
   3  -6   7   -2.60   15.15
  -3   6  -7    7.04    6.23
   3  -6   8    1.58   29.98
  -3   6  -8    9.14    5.63
  -3   6  -9    0.69    2.21
   3  -5  -8    6.04    4.96
   3  -5  -7   17.67    5.67
   3  -5  -7   20.79    5.35
   3  -5  -6   20.34    5.61
   3  -5  -6   23.87    5.22
   3  -5  -5  172.21   24.96
   3  -5  -5  190.32   26.79
   3  -5  -4   19.46    9.58
   3  -5  -4   19.36    9.93
  -3   5   4   18.70    6.54
   3  -5  -3    1.77    3.65
   3  -5  -3    1.95    4.57
  -3   5   3    1.29    3.39
   3  -5  -2   23.05    9.19
   3  -5  -2   19.91    7.72
  -3   5   2   22.79    5.00
   3  -5  -1    0.77    1.96
   3  -5  -1    2.23    3.87
   3  -5  -1    3.43    2.35
  -3   5   1    2.14    2.12
  -3   5   1    2.73    3.82
   3  -5   0    0.95    2.31
   3  -5   0    0.02    1.69
   3  -5   0   -0.60    3.03
   3  -5   0    1.21    2.60
  -3   5   0    0.70    2.12
  -3   5   0    0.44    2.65
   3  -5   1   78.68   10.93
   3  -5   1   96.16   31.80
   3  -5   1   77.36   12.55
   3  -5   1   81.44   10.38
  -3   5  -1   75.50   12.59
  -3   5  -1   74.49   12.60
   3  -5   2   80.91   12.11
   3  -5   2   19.06  158.42
   3  -5   2   76.16    8.82
   3  -5   2   71.00   10.73
  -3   5  -2   76.69   13.97
  -3   5  -2   71.81    8.42
   3  -5   3    6.76   32.84
  -3   5  -3   16.95    5.26
  -3   5  -3   15.45    5.63
   3  -5   4    5.30   29.99
  -3   5  -4   20.12    5.90
  -3   5  -4   16.59    6.27
  -3   5  -5   71.23   10.22
  -3   5  -5   35.56   15.40
  -3   5  -5   44.94    8.21
  -3   5  -6   48.52   11.50
  -3   5  -6   16.05   10.69
  -3   5  -7   -0.04    2.71
  -3   5  -7   -0.86    2.95
  -3   5  -8    0.78    1.40
   3  -4  -9    0.19    3.51
  -3   4   9    0.68    2.10
   3  -4  -8    6.43    6.52
  -3   4   8   11.87    5.83
   3  -4  -7   31.33    9.84
   3  -4  -7   24.61    7.75
  -3   4   7   37.31    8.78
   3  -4  -6    3.05    4.34
   3  -4  -6    2.73    4.28
  -3   4   6    2.79    4.28
   3  -4  -5    9.78    3.85
   3  -4  -5   11.26    4.48
  -3   4   5   12.56    3.51
   3  -4  -4   83.86   15.57
   3  -4  -4   75.88   14.82
  -3   4   4   76.15   10.70
  -3   4   4   72.86   10.27
   3  -4  -3    7.93    4.48
   3  -4  -3   10.82    6.19
  -3   4   3    7.54    2.77
  -3   4   3    7.44    2.97
  -3   4   3    9.13    4.41
   3  -4  -2    6.22    2.50
   3  -4  -2    7.58    3.11
   3  -4  -2    7.47    3.54
   3  -4  -2    5.89    4.16
  -3   4   2    8.35    5.82
  -3   4   2    1.82    2.25
  -3   4   2    6.18    2.56
   3  -4  -1   25.03    4.72
   3  -4  -1   25.01    4.75
   3  -4  -1   26.15    4.29
   3  -4  -1   26.62    7.08
  -3   4   1   31.06    7.53
  -3   4   1   20.77    3.60
  -3   4   1   27.55    7.33
   3  -4   0   32.59    8.45
   3  -4   0   37.52    6.58
   3  -4   0   39.37    8.35
   3  -4   0   39.05    7.18
  -3   4   0   34.98    8.21
  -3   4   0   36.71    5.52
  -3   4   0   41.79    7.25
   3  -4   1    5.69    2.55
   3  -4   1    9.37   55.64
   3  -4   1    3.85    2.44
   3  -4   1    6.51    2.85
  -3   4  -1    8.05    4.73
  -3   4  -1    5.76    4.12
   3  -4   2    1.65    3.44
   3  -4   2    1.24    1.78
   3  -4   2    1.89    1.37
   3  -4   2    0.76   12.96
  -3   4  -2    3.01    3.96
  -3   4  -2    2.54    3.04
   3  -4   3   29.54    8.22
   3  -4   3   24.37    5.74
  -3   4  -3   33.49    6.13
  -3   4  -3   18.83    9.27
  -3   4  -3   27.56    6.67
   3  -4   4    6.98    3.36
  -3   4  -4   11.55    3.94
  -3   4  -4    0.12    5.07
  -3   4  -4    8.27    3.97
  -3   4  -5   40.13    9.28
  -3   4  -5   10.89    7.42
  -3   4  -5   22.14    5.70
  -3   4  -6   10.01    4.91
  -3   4  -6    0.46    4.56
  -3   4  -7   98.88   15.46
   3  -3 -10    0.79    3.16
  -3   3  10    3.26    3.46
   3  -3  -9   -0.18    1.48
  -3   3   9    1.08    2.47
   3  -3  -8    7.91    6.86
  -3   3   8   10.32    6.71
   3  -3  -7   68.17   15.03
  -3   3   7  105.64   18.07
   3  -3  -6   92.07   15.07
   3  -3  -6   85.07   11.41
  -3   3   6  114.19   12.97
   3  -3  -5  370.77   37.85
   3  -3  -5  351.00   35.37
  -3   3   5  210.38   22.24
   3  -3  -4   71.09   12.99
   3  -3  -4   64.82   10.29
  -3   3   4  132.41  142.47
  -3   3   4   69.50    7.58
  -3   3   4   79.63    9.98
  -3   3   4   70.21    8.49
  -3   3   4   72.45   10.21
   3  -3  -3   56.68    5.24
   3  -3  -3   59.32    6.77
   3  -3  -3   52.30    5.97
   3  -3  -3   63.06   11.18
   3  -3  -3   61.21    8.52
  -3   3   3   58.18    7.17
  -3   3   3   64.70   56.03
  -3   3   3   69.62   12.80
  -3   3   3   61.88    8.33
  -3   3   3   57.80    7.62
   3  -3  -2   88.90    9.87
   3  -3  -2   85.40   12.64
   3  -3  -2   73.17    8.93
   3  -3  -2   89.23   10.07
  -3   3   2   81.88    8.59
  -3   3   2   97.13   14.05
  -3   3   2   72.86    7.40
  -3   3   2   87.74   11.07
   3  -3  -1    1.31    2.19
   3  -3  -1    0.74    1.04
   3  -3  -1    0.65    2.04
   3  -3  -1    0.29    2.25
  -3   3   1    0.06    1.13
  -3   3   1    0.70    2.30
  -3   3   1    0.43    1.06
  -3   3   1    0.63    1.40
  -3   3   1    0.84    1.31
   3  -3   0    4.76    2.08
   3  -3   0    3.11    2.52
   3  -3   0    3.03    2.81
   3  -3   0    4.14    2.84
  -3   3   0    2.84    3.19
  -3   3   0    1.47    1.65
  -3   3   0    3.37    3.62
  -3   3   0    4.05    2.42
  -3   3   0    1.24    1.05
   3  -3   1  439.99   43.40
   3  -3   1  409.53   35.64
   3  -3   1  317.80  118.59
   3  -3   1  436.72   36.39
  -3   3  -1  438.58   43.85
  -3   3  -1  423.81   34.87
  -3   3  -1  420.40   41.37
   3  -3   2   79.79   12.18
   3  -3   2   85.37    8.40
  -3   3  -2   54.99   11.30
  -3   3  -2  101.91   13.96
  -3   3  -2   90.60   11.97
   3  -3   3    0.31    1.15
   3  -3   3    0.31    0.94
   3  -3   3    0.07    1.63
  -3   3  -3    0.25    2.29
  -3   3  -3    0.08    1.87
  -3   3  -3    0.10    1.45
   3  -3   4   11.67    3.36
   3  -3   4    6.68    3.90
   3  -3   4   17.66    4.65
  -3   3  -4   12.10    6.63
  -3   3  -4   27.93    6.68
  -3   3  -4   20.85    5.24
  -3   3  -5    7.53    6.26
  -3   3  -5   15.52    5.35
  -3   3  -5    8.96    4.11
  -3   3  -6   74.21   11.35
   3  -2 -10    1.58    2.53
  -3   2  10    4.07    2.96
   3  -2  -9    0.80    2.13
  -3   2   9   -0.12    3.90
   3  -2  -8   43.28   13.51
  -3   2   8   66.08   14.45
   3  -2  -7    0.54    1.47
   3  -2  -7   -0.10    1.25
  -3   2   7    0.71    2.03
   3  -2  -6   79.91   13.24
   3  -2  -6   77.34   12.76
  -3   2   6   85.21   11.16
   3  -2  -5  663.30   65.00
   3  -2  -5  709.44   74.22
   3  -2  -5  700.78   69.15
  -3   2   5  643.61   64.51
  -3   2   5  760.63   79.14
  -3   2   5  783.01   78.36
  -3   2   5  706.45   98.96
   3  -2  -4  384.20   33.43
   3  -2  -4  392.43   39.93
   3  -2  -4  326.80   28.38
   3  -2  -4  384.69   35.95
  -3   2   4  248.73   57.35
  -3   2   4  385.43   36.23
  -3   2   4  379.07   32.00
  -3   2   4  457.97   39.28
  -3   2   4  408.74   41.46
   3  -2  -3  486.69   42.42
   3  -2  -3  370.84   31.63
   3  -2  -3  349.19   30.99
   3  -2  -3  369.51   37.54
   3  -2  -3  387.66   34.90
  -3   2   3  389.44   35.84
  -3   2   3  549.33  273.99
  -3   2   3  373.01   37.94
  -3   2   3  362.27   31.50
  -3   2   3  353.61   32.61
   3  -2  -2   23.85    3.45
   3  -2  -2   29.18    6.70
   3  -2  -2   23.91    5.16
   3  -2  -2   24.06    6.53
  -3   2   2   23.57    4.30
  -3   2   2   22.30    5.14
  -3   2   2   39.70   28.88
  -3   2   2   22.64    6.20
  -3   2   2   17.55    4.27
  -3   2   2    9.79    5.07
   3  -2  -1  129.97   14.56
   3  -2  -1  160.15   11.84
   3  -2  -1  146.49   15.15
   3  -2  -1  144.93   15.49
  -3   2   1  141.15   14.55
  -3   2   1  117.17   12.64
  -3   2   1  134.27   16.14
  -3   2   1  140.66   11.99
  -3   2   1  142.07   14.91
   3  -2   0  701.66   62.09
   3  -2   0  661.92   57.44
   3  -2   0  666.17   58.92
   3  -2   0  677.08   60.31
   3  -2   0  590.40   54.64
  -3   2   0  671.20   62.34
  -3   2   0  868.01   84.13
  -3   2   0  679.28   65.56
  -3   2   0  682.59   60.38
   3  -2   1    4.12    1.66
   3  -2   1    2.51    8.44
   3  -2   1    5.20    3.88
  -3   2  -1    3.36    2.06
  -3   2  -1    5.17    4.00
  -3   2  -1    3.11    1.47
  -3   2  -1    2.54    4.27
   3  -2   2  135.85   12.71
   3  -2   2  167.22   14.61
  -3   2  -2  141.59   13.86
  -3   2  -2  177.67   18.64
  -3   2  -2  157.89   17.47
   3  -2   3   94.94   11.54
   3  -2   3   96.20   12.65
  -3   2  -3   80.90    9.53
  -3   2  -3  110.12   12.73
  -3   2  -3   96.47    9.87
  -3   2  -4    3.50    2.74
  -3   2  -4   11.41    3.73
  -3   2  -4    7.21    3.01
  -3   2  -4    8.98    3.96
  -3   2  -5    2.59    2.48
  -3   2  -5    2.74    2.61
  -3   2  -6   15.62    4.59
   3  -1 -11    5.57    2.93
  -3   1  11   13.26    3.89
   3  -1 -10   17.95    6.00
  -3   1  10   41.13   11.44
   3  -1  -9   20.50   10.77
  -3   1   9   41.58   12.18
   3  -1  -8    0.80    2.17
  -3   1   8    0.70    4.11
   3  -1  -7    1.26    2.95
   3  -1  -7    0.55    1.47
  -3   1   7    1.71    4.35
   3  -1  -6  524.93   50.61
   3  -1  -6  624.54   64.33
   3  -1  -6  581.00   56.12
   3  -1  -6  596.74   62.63
  -3   1   6  878.26   82.04
  -3   1   6  593.67   63.32
  -3   1   6  664.54   67.89
   3  -1  -5   22.01    4.85
   3  -1  -5   21.84    5.35
   3  -1  -5   23.66    6.63
   3  -1  -5   17.95    3.62
  -3   1   5   31.03    8.79
  -3   1   5   18.66    7.22
  -3   1   5   30.01    4.79
  -3   1   5   25.86    7.16
   3  -1  -4   31.18    6.31
   3  -1  -4   30.47    4.33
   3  -1  -4   29.70    5.03
   3  -1  -4   29.52    4.60
   3  -1  -4   31.96    7.85
  -3   1   4   34.45    5.15
  -3   1   4   29.86    7.23
  -3   1   4   40.29    8.54
  -3   1   4   37.74    9.06
  -3   1   4   28.93    3.82
   3  -1  -3 1685.83  183.01
   3  -1  -3 1819.71  189.37
   3  -1  -3 1701.53  182.72
   3  -1  -3 1677.12  175.61
   3  -1  -3 1657.96  177.67
  -3   1   3 1596.74  175.06
  -3   1   3 1647.03  176.76
  -3   1   3 1762.97  192.37
  -3   1   3 1675.66  175.51
  -3   1   3 1727.82  191.72
   3  -1  -2  306.48   30.20
   3  -1  -2  315.63   23.42
   3  -1  -2  289.91   23.91
   3  -1  -2  303.05   26.69
   3  -1  -2  294.56   29.14
  -3   1   2  297.76   27.79
  -3   1   2  332.71   56.53
  -3   1   2  296.89   29.83
  -3   1   2  317.96   32.19
  -3   1   2  292.05   26.06
   3  -1  -1   20.01    5.26
   3  -1  -1   24.54    4.07
   3  -1  -1   25.17    6.96
   3  -1  -1   20.24    5.30
  -3   1   1   19.00    5.87
  -3   1   1   20.48    4.97
  -3   1   1   21.50    5.72
  -3   1   1   21.63    6.16
   3  -1   0  122.08   13.17
   3  -1   0  139.85   16.60
  -3   1   0  132.27   16.76
  -3   1   0  132.51   11.67
  -3   1   0  125.69   11.52
  -3   1   0  141.38   12.83
   3  -1   1   47.90    8.87
   3  -1   1   52.04    9.61
  -3   1  -1   44.37    5.64
  -3   1  -1   40.33    4.69
  -3   1  -1   67.16    7.02
  -3   1  -1   52.24    9.28
   3  -1   2   85.06   10.02
   3  -1   2   84.11    8.83
  -3   1  -2   75.74    8.19
  -3   1  -2   90.36    9.73
  -3   1  -2   84.94   12.25
   3  -1   3   52.90   11.38
   3  -1   3   53.42    9.24
  -3   1  -3   32.59    7.63
  -3   1  -3   60.13    8.20
  -3   1  -3   52.23    9.49
  -3   1  -4   29.03    6.51
  -3   1  -4   35.02    7.99
  -3   1  -5    9.43    4.73
  -3   1  -5   12.52    5.98
  -3   1  -6   10.62    5.00
  -3   1  -7    0.05    1.59
  -3   1  -8    0.47    1.34
   3   0 -11   17.47    8.40
  -3   0  11   44.44   10.57
   3   0 -10   -0.10    2.41
  -3   0  10    0.55    3.12
   3   0  -9    3.70    8.10
  -3   0   9    5.80    7.44
   3   0  -8   42.89   11.57
   3   0  -8   27.20    7.32
  -3   0   8   58.84    9.05
   3   0  -7   10.98    6.06
   3   0  -7   11.32    4.06
   3   0  -7   11.61    5.21
  -3   0   7   20.80    7.78
   3   0  -6    4.33    3.23
   3   0  -6    3.47    3.88
   3   0  -6    4.81    3.49
   3   0  -6    4.22    2.66
  -3   0   6    6.12    5.13
  -3   0   6    5.82    3.18
  -3   0   6    2.90    4.33
  -3   0   6    4.03    4.27
   3   0  -5  591.25   52.97
   3   0  -5  606.36   61.25
   3   0  -5  589.19   54.17
   3   0  -5  624.93   59.56
  -3   0   5  556.59   52.77
  -3   0   5  684.84   68.37
  -3   0   5  818.54   81.06
  -3   0   5  681.33   68.66
   3   0  -4  509.19   47.76
   3   0  -4  442.44   35.77
   3   0  -4  493.84   43.00
   3   0  -4  479.24   43.16
   3   0  -4  497.29   49.14
  -3   0   4  522.35   51.13
  -3   0   4  535.62   51.97
  -3   0   4  507.13   45.08
  -3   0   4  540.17   48.93
   3   0  -3  313.07   25.81
   3   0  -3  293.54   25.08
   3   0  -3  311.60   31.45
   3   0  -3  288.71   22.13
   3   0  -3  276.58   24.63
  -3   0   3  276.06   28.53
  -3   0   3  306.46   30.57
  -3   0   3  319.11   25.61
  -3   0   3  326.23   33.64
   3   0  -2    2.68    3.45
   3   0  -2    3.52    2.28
   3   0  -2    1.63    2.57
   3   0  -2    1.41    2.33
   3   0  -2    2.27    4.23
  -3   0   2    2.41    4.65
  -3   0   2    2.56   13.34
  -3   0   2    2.05    3.58
  -3   0   2    1.72    2.28
   3   0  -1  626.03   62.49
   3   0  -1  725.54   62.23
   3   0  -1  651.90   60.56
   3   0  -1  633.91   60.03
  -3   0   1  660.06   75.84
  -3   0   1  662.37   62.23
  -3   0   1  620.84   59.69
   3   0   0  151.36   20.09
   3   0   0  164.22   14.44
  -3   0   0  145.35   19.21
  -3   0   0  137.85   12.98
  -3   0   0  142.48   12.91
  -3   0   0  155.11   17.84
   3   0   1   31.18   10.31
   3   0   1    6.47   12.98
   3   0   1   29.30    7.55
  -3   0  -1   27.39    7.64
  -3   0  -1   22.08    3.60
  -3   0  -1   18.76    3.30
  -3   0  -1   26.55    4.31
   3   0   2   45.08    8.67
  -3   0  -2   39.94    7.63
  -3   0  -2   20.58    4.24
  -3   0  -2   40.46    8.96
  -3   0  -2   31.99    3.68
   3   0   3   10.42    5.81
   3   0   3   10.18    5.58
  -3   0  -3    9.38    4.66
  -3   0  -3   10.92    5.98
  -3   0  -4    2.93    2.31
  -3   0  -4    2.90    4.56
  -3   0  -5   19.14    6.24
  -3   0  -5   25.86    9.34
  -3   0  -6   95.11   15.68
  -3   0  -7   15.66    7.18
  -3   0  -8    9.39    3.25
   3   1 -12   -0.48    2.16
  -3  -1  12    0.20    2.24
   3   1 -11    0.24    2.10
  -3  -1  11   -0.21    1.39
   3   1 -10   93.21   20.74
  -3  -1  10  196.42   21.60
   3   1  -9  103.26   21.12
  -3  -1   9  191.14   27.46
   3   1  -8    1.03    2.62
   3   1  -8    0.22    1.18
   3   1  -8    0.10    2.18
  -3  -1   8    0.83    3.52
   3   1  -7    2.79    4.89
   3   1  -7    3.46    3.36
   3   1  -7    1.51    3.25
  -3  -1   7    3.86    5.08
   3   1  -6   14.95    4.32
   3   1  -6   14.35    4.89
   3   1  -6   19.04    6.37
   3   1  -6   13.70    5.75
  -3  -1   6    8.57    3.14
  -3  -1   6   18.96    7.48
  -3  -1   6   38.65    7.14
  -3  -1   6   14.05    5.69
   3   1  -5  112.26   13.13
   3   1  -5   98.50   12.59
   3   1  -5   97.12   12.57
   3   1  -5   97.79   13.88
  -3  -1   5   71.99    7.15
  -3  -1   5   97.49   10.05
  -3  -1   5   99.23    9.67
  -3  -1   5   97.87   14.13
   3   1  -4    4.93    1.81
   3   1  -4    3.96    1.74
   3   1  -4    3.26    0.87
   3   1  -4    4.74    4.33
   3   1  -4    6.05    3.59
  -3  -1   4    1.45    5.30
  -3  -1   4    4.75    4.44
  -3  -1   4    6.86    2.70
  -3  -1   4    3.70    1.71
   3   1  -3 2051.97  224.33
   3   1  -3 2029.55  227.87
   3   1  -3 2264.55  246.40
   3   1  -3 1826.47  195.86
  -3  -1   3 2329.45  266.81
  -3  -1   3 1574.16  169.33
  -3  -1   3 1738.23  197.57
  -3  -1   3 2253.84  254.47
   3   1  -2   14.43    4.15
   3   1  -2   10.75    3.33
   3   1  -2   16.10    6.10
   3   1  -2   11.74    3.75
  -3  -1   2    3.82   18.31
  -3  -1   2   13.30    3.54
  -3  -1   2   12.35    4.14
   3   1  -1  132.52   14.43
   3   1  -1  110.62    9.95
   3   1  -1  115.28   10.36
   3   1  -1  110.15    9.96
  -3  -1   1  106.86   18.77
  -3  -1   1  109.33    9.80
  -3  -1   1  111.50   13.86
   3   1   0   46.39   13.31
   3   1   0   40.17    3.36
   3   1   0   38.98    5.53
   3   1   0   44.47    8.74
  -3  -1   0   40.82    5.35
  -3  -1   0   40.48   10.30
  -3  -1   0   39.82    5.73
   3   1   1   11.83    8.97
   3   1   1    7.62    1.49
   3   1   1   12.53    5.07
  -3  -1  -1    8.26    2.65
  -3  -1  -1    9.50    5.90
  -3  -1  -1    6.72    1.43
  -3  -1  -1    4.25    1.91
   3   1   2  297.16   32.62
  -3  -1  -2  269.46   30.30
  -3  -1  -2  296.98   36.41
  -3  -1  -3   11.81    5.49
  -3  -1  -3   13.26    4.77
  -3  -1  -4    0.94    3.05
  -3  -1  -4    1.22    2.56
   3   1   5   -0.23    1.08
  -3  -1  -5    3.81    3.12
  -3  -1  -6   18.75    7.94
  -3  -1  -7    8.35    3.91
  -3  -1  -8  118.81   18.26
   3   2 -12    3.84    6.82
  -3  -2  12   15.95    6.15
   3   2 -11   44.38   16.12
  -3  -2  11   88.64   17.18
   3   2 -10    3.15    5.48
  -3  -2  10    4.49    5.52
   3   2  -9   55.41   11.07
   3   2  -9   52.43    9.47
  -3  -2   9   91.53   16.25
   3   2  -8  201.99   24.02
   3   2  -8  145.88   21.29
   3   2  -8  136.99   19.18
  -3  -2   8  240.42   28.55
   3   2  -7   16.18    4.17
   3   2  -7    7.64    5.44
   3   2  -7   13.02    5.81
  -3  -2   7   17.94    7.33
   3   2  -6   38.02    7.61
   3   2  -6   54.85   11.25
   3   2  -6   60.77   11.69
  -3  -2   6   47.83    6.70
  -3  -2   6   31.36    6.31
  -3  -2   6   57.99    7.24
  -3  -2   6   43.95    6.54
   3   2  -5    0.69    1.20
   3   2  -5    2.50    3.92
   3   2  -5    2.75    1.84
  -3  -2   5    2.30    1.85
  -3  -2   5    1.28    1.56
  -3  -2   5    2.00    2.04
  -3  -2   5    1.75    4.25
   3   2  -4    1.51    2.53
   3   2  -4    0.20    0.54
   3   2  -4    1.15    2.22
   3   2  -4    0.84    1.29
  -3  -2   4    1.03    1.97
  -3  -2   4    1.47    2.50
  -3  -2   4    0.20    1.25
  -3  -2   4    0.23    0.91
   3   2  -3   70.11   12.16
   3   2  -3   64.02   11.19
   3   2  -3   66.95    8.03
   3   2  -3   53.45    7.21
  -3  -2   3   63.57    7.50
  -3  -2   3   67.17   17.40
  -3  -2   3   60.95   11.00
   3   2  -2   48.67    5.96
   3   2  -2   48.18   10.92
   3   2  -2   49.12    9.09
   3   2  -2   50.58    7.71
  -3  -2   2   36.80    5.29
  -3  -2   2   52.31    8.23
  -3  -2   2   50.79   14.32
  -3  -2   2   46.63    9.04
   3   2  -1   16.04    2.49
   3   2  -1   23.17    9.32
   3   2  -1   17.75    5.05
   3   2  -1   20.96    3.50
  -3  -2   1   21.06    6.12
  -3  -2   1   12.49    1.74
  -3  -2   1   14.95    6.61
  -3  -2   1   17.00    4.91
  -3  -2   1   12.53    1.71
   3   2   0    8.11    7.81
   3   2   0    3.76    1.26
   3   2   0    5.74    2.79
   3   2   0    7.39    2.87
  -3  -2   0    8.69    2.92
  -3  -2   0    6.92    5.77
  -3  -2   0    6.17    1.45
  -3  -2   0    6.80    2.05
  -3  -2   0    6.06    2.77
   3   2   1    1.49    4.71
   3   2   1    0.50    2.44
  -3  -2  -1    0.61    2.05
  -3  -2  -1   -0.01    1.13
  -3  -2  -1    0.26    0.99
  -3  -2  -2   91.71   15.17
  -3  -2  -2   87.89   17.24
  -3  -2  -3  148.89   16.86
  -3  -2  -3  145.90   23.88
   3   2   4    1.39    2.26
  -3  -2  -4    7.38    5.23
   3   2   5    4.05    4.24
  -3  -2  -5    7.28    6.18
  -3  -2  -6   -0.38    3.06
  -3  -2  -7   13.76    7.19
   3   3 -12    0.66    4.83
   3   3 -11   18.20    7.15
  -3  -3  11   34.81    6.52
   3   3 -10   95.61   22.15
   3   3 -10   82.18   13.57
  -3  -3  10  141.84   21.24
   3   3  -9   20.47    8.61
   3   3  -9   15.60   10.29
  -3  -3   9   26.60    9.85
   3   3  -8    0.71    3.06
   3   3  -8    0.64    3.19
   3   3  -8   -0.02    2.04
  -3  -3   8    0.60    2.04
   3   3  -7    1.05    3.59
   3   3  -7    0.93    1.92
   3   3  -7    0.61    1.77
  -3  -3   7    0.94    3.76
   3   3  -6    2.80    4.00
   3   3  -6    2.49    3.21
   3   3  -6    2.99    3.76
  -3  -3   6    2.26    4.47
  -3  -3   6    0.63    1.92
  -3  -3   6    2.10    2.98
   3   3  -5    7.57    3.21
   3   3  -5    3.28    5.55
   3   3  -5    9.47    5.49
  -3  -3   5    4.53    7.20
  -3  -3   5    8.53    4.06
  -3  -3   5    2.99    2.33
  -3  -3   5    5.57    4.84
   3   3  -4   17.09    5.84
   3   3  -4   39.86    8.93
   3   3  -4   44.61    8.47
   3   3  -4   28.09    3.39
  -3  -3   4   36.64    8.34
  -3  -3   4   19.68    3.74
  -3  -3   4   40.32    4.55
   3   3  -3   29.51    7.09
   3   3  -3   35.10    8.57
   3   3  -3   32.67    4.95
   3   3  -3   33.29    5.81
  -3  -3   3   25.29    4.48
  -3  -3   3   18.56   43.67
  -3  -3   3   35.30   11.46
  -3  -3   3   34.33    8.15
  -3  -3   3   23.96    3.58
   3   3  -2   13.57    5.85
   3   3  -2   13.76    5.64
   3   3  -2   10.55    2.39
   3   3  -2    9.66    2.92
  -3  -3   2   11.23    4.03
  -3  -3   2    9.77    2.14
  -3  -3   2    6.37    3.02
  -3  -3   2   11.86    5.92
  -3  -3   2   12.79    5.11
   3   3  -1  153.03   22.16
   3   3  -1  120.92   13.79
   3   3  -1  134.78   11.37
   3   3  -1   73.12    9.68
  -3  -3   1  128.90   14.79
  -3  -3   1  127.10   13.89
  -3  -3   1   89.78    9.17
  -3  -3   1  130.88   18.12
  -3  -3   1   77.83    8.86
   3   3   0   11.89    9.29
   3   3   0   12.27    5.57
  -3  -3   0   10.57    5.62
  -3  -3   0    7.88    7.57
  -3  -3   0    8.06    4.01
  -3  -3   0    9.04    3.80
  -3  -3  -1  290.17   30.47
  -3  -3  -1  302.97   34.92
  -3  -3  -1  150.66   17.33
  -3  -3  -1  172.78   17.31
  -3  -3  -2   -0.74    2.15
  -3  -3  -2    0.50    3.54
   3   3   3    7.53    5.76
  -3  -3  -3    7.05    8.02
   3   3   4    8.74    5.66
  -3  -3  -4    8.78    8.58
   3   3   5   14.61    5.26
  -3  -3  -5   24.44    8.40
  -3  -3  -6   -0.06    1.97
   3   4 -12    0.95    3.87
   3   4 -11   19.16    6.94
   3   4 -11   10.84    9.61
  -3  -4  11   21.41    7.81
   3   4 -10   14.32    6.74
   3   4 -10   14.23    8.01
  -3  -4  10   14.17    7.16
   3   4  -9  159.64   24.39
   3   4  -9  156.49   32.86
  -3  -4   9  141.50   16.85
   3   4  -8  126.48   15.19
   3   4  -8  117.17   19.46
   3   4  -8   72.07   13.36
  -3  -4   8  103.99   17.84
   3   4  -7   27.86    9.42
   3   4  -7   12.86    8.15
   3   4  -7   21.09    7.61
  -3  -4   7   25.74   10.34
   3   4  -6    0.92    1.81
   3   4  -6    1.36    2.62
   3   4  -6    0.50    2.88
  -3  -4   6    0.17    0.96
  -3  -4   6    0.88    2.34
   3   4  -5  301.29   32.44
   3   4  -5  321.52   37.14
   3   4  -5  261.79   32.83
  -3  -4   5  306.78   39.02
  -3  -4   5  340.14   33.72
   3   4  -4  308.10   26.20
   3   4  -4  264.43   23.12
   3   4  -4  349.57   37.67
   3   4  -4  265.35   22.78
  -3  -4   4  322.43   37.20
  -3  -4   4  106.66   60.13
  -3  -4   4  285.23   24.81
  -3  -4   4  299.80   33.38
   3   4  -3   46.81    6.72
   3   4  -3   46.42    8.23
   3   4  -3   58.82   11.45
   3   4  -3   51.19    7.34
   3   4  -3   50.80    6.77
  -3  -4   3   46.39    9.55
  -3  -4   3   57.71   11.21
  -3  -4   3   54.05   17.80
  -3  -4   3   32.79    5.19
   3   4  -2    1.10    2.70
   3   4  -2    0.35    1.22
   3   4  -2    1.16    2.68
   3   4  -2    0.44    1.89
  -3  -4   2    0.19    2.94
  -3  -4   2    0.50    2.50
   3   4  -1   44.21    6.30
  -3  -4   1   46.99   12.04
  -3  -4   1   38.03    9.34
   3   4   0   24.02    5.09
  -3  -4   0   24.66    9.82
  -3  -4   0   16.61    6.30
   3   4   1  102.64   17.29
  -3  -4  -1   95.87   18.81
   3   4   2   27.92   10.02
  -3  -4  -2   22.78   10.26
   3   4   3   65.26   14.31
  -3  -4  -3   69.31   15.61
   3   4   4    3.99    4.25
  -3  -4  -4    3.50    3.18
   3   4   5    1.21    1.38
  -3  -4  -5    2.15    2.18
   3   5 -12    3.45    2.94
   3   5 -12    1.64    5.63
   3   5 -11   37.29    7.12
   3   5 -11   18.02   12.91
   3   5 -10   48.94   11.74
   3   5 -10   32.99    9.29
   3   5  -9   17.14    7.75
   3   5  -9   39.89    7.90
   3   5  -8   53.99    8.74
   3   5  -8   34.38   13.80
   3   5  -8   30.77    9.23
   3   5  -7  224.00   27.27
   3   5  -7  196.33   25.41
   3   5  -7  170.73   28.33
   3   5  -6   24.96    9.34
   3   5  -6   26.11    7.59
  -3  -5   6   23.29    8.88
  -3  -5   6   11.96   39.98
   3   5  -5    7.09    3.99
   3   5  -5    7.82    3.90
  -3  -5   5    3.74    4.45
  -3  -5   5    4.93   30.50
   3   5  -4  122.93   19.66
  -3  -5   4  322.66  181.21
   3   5  -3  234.41   22.82
  -3  -5   3  177.47   21.91
  -3  -5   3  221.97   21.81
  -3  -5   3  272.76   26.42
   3   5  -2  184.10   17.75
  -3  -5   2  157.21   22.09
  -3  -5   2  162.23   18.44
   3   5  -1   40.71    9.77
  -3  -5   1   33.83   10.36
  -3  -5   1   28.96    9.37
   3   5   0    0.05    1.67
  -3  -5   0    0.02    2.58
  -3  -5   0    0.77    2.06
   3   5   1    0.10    2.81
  -3  -5  -1    0.82    2.90
   3   5   2    3.96    4.24
  -3  -5  -2    1.84    2.81
   3   5   3   30.47    9.56
  -3  -5  -3   26.43    8.97
   3   5   4   14.84    6.11
  -3  -5  -4   15.98    4.29
   3   6 -12    0.51    2.05
  -3  -6  12    1.94   17.41
   3   6 -11    5.30    5.78
  -3  -6  11    7.12   30.82
   3   6 -10    0.47    3.71
   3   6 -10    0.51    2.82
   3   6  -9   90.87   12.61
  -3  -6   9   -3.20   75.54
   3   6  -8  151.74   20.78
  -3  -6   8   69.60   10.15
  -3  -6   8   26.39   63.49
   3   6  -7    5.95    5.16
  -3  -6   7    2.89    3.18
  -3  -6   7   -3.53   29.36
   3   6  -6   61.63   11.59
  -3  -6   6   22.71   69.01
  -3  -6   6   61.36   10.44
   3   6  -5   58.85    9.73
  -3  -6   5   77.76   11.46
  -3  -6   5   35.14   27.62
   3   6  -4    1.91    2.48
  -3  -6   4    2.43    4.92
   3   6  -3   -0.07    1.55
  -3  -6   3    0.43    2.50
   3   6  -2   92.50   10.64
  -3  -6   2   38.80   10.87
  -3  -6   2   72.54   15.21
   3   6  -1   81.07   10.24
  -3  -6   1   34.20   10.25
  -3  -6   1   49.95   12.38
   3   6   0    2.38    3.70
  -3  -6   0    0.52    2.86
  -3  -6   0    0.13    2.87
   3   6   1    5.52    4.57
  -3  -6  -1   -0.08    3.50
   3   6   2    3.73    4.17
  -3  -6  -2    1.06    3.04
   3   6   3    5.94    2.30
  -3  -6  -3   -0.03    3.19
   3   7 -11    8.09    5.92
  -3  -7  11    6.80   54.48
   3   7 -10    0.64    3.87
  -3  -7  10    5.52   20.45
   3   7  -9    1.24    4.35
  -3  -7   9   -0.26   40.37
   3   7  -8    4.29    2.90
  -3  -7   8    3.79   45.37
  -3  -7   8    0.66    2.58
   3   7  -7   82.47   14.22
  -3  -7   7   16.95  194.55
  -3  -7   7   70.82   16.63
   3   7  -6    1.88    3.06
  -3  -7   6    1.84    5.39
  -3  -7   6    0.89    9.07
  -3  -7   5    5.01    7.57
  -3  -7   4    6.43    4.13
   3   7  -3    9.33    4.58
  -3  -7   3    9.02    4.82
   3   7  -2   15.47    4.42
  -3  -7   2    6.69    7.51
   3   7  -1    2.59    2.37
  -3  -7   1    0.07    2.24
   3   7   0    5.43    4.39
  -3  -7   0    0.80    2.05
   3   7   1   13.11    4.07
   3   7   2    0.40    2.26
   3   8 -10    3.34    4.22
  -3  -8  10    2.86    8.99
   3   8  -9   41.87   10.07
  -3  -8   9    8.29   20.67
   3   8  -8    1.25    2.66
  -3  -8   8   -0.27    3.49
  -3  -8   8    0.46    2.79
   3   8  -7    2.08    2.68
  -3  -8   7    0.26    3.42
  -3  -8   7    1.66    4.24
  -3  -8   6    0.33    2.10
  -3  -8   5    2.52    5.95
  -3  -8   4    2.90    4.94
   3   8  -3    4.44    3.82
  -3  -8   3    4.91    5.76
   3   8  -2    5.02    4.32
  -3  -8   2    2.58    5.21
   3   8  -1    1.59    2.92
  -3  -8   1    0.16    3.01
   3   8   0   18.29    4.38
  -3  -9   7    6.96    2.88
  -3  -9   7    0.11    0.84
  -3  -9   6    3.96    5.02
  -3  -9   5    3.29    4.98
  -3  -9   4    5.58    5.57
   3   9  -3    7.60    2.75
  -3  -9   3    9.90    6.27
   4 -10   1   -0.21    0.77
  -4  10  -1    0.37    1.70
   4 -10   2    0.02    2.33
  -4  10  -2   10.39    3.61
  -4  10  -3   21.25    6.15
   4  -9  -2    1.05    1.63
   4  -9  -2    3.34    3.56
  -4   9   2    4.93    3.27
   4  -9  -1    2.99    3.98
   4  -9  -1    0.56    4.02
  -4   9   1    3.59    2.51
   4  -9   0    0.32    3.66
   4  -9   0    5.49    4.36
  -4   9   0    6.61    3.25
   4  -9   1    1.18    3.91
   4  -9   1    9.11    4.29
  -4   9  -1   14.19    6.01
   4  -9   2   -0.15    2.67
  -4   9  -2    3.37    3.42
   4  -9   3   -0.26    2.34
  -4   9  -3    1.06    2.16
  -4   9  -3    2.10    2.90
   4  -9   4    0.06    1.61
  -4   9  -4    0.33    2.00
  -4   9  -4    0.22    1.11
  -4   9  -5   21.07    4.44
  -4   9  -5    9.04    3.84
  -4   9  -6   -0.25    2.33
   4  -8  -4    0.17    1.40
   4  -8  -4    2.91    3.27
  -4   8   4    2.42    2.07
   4  -8  -3    0.82    2.01
   4  -8  -3    0.49    1.48
  -4   8   3    0.93    2.47
   4  -8  -2   24.60    9.78
   4  -8  -2   26.28    6.58
  -4   8   2   28.03    8.81
   4  -8  -1   -0.20    1.32
   4  -8  -1   -0.29    1.77
  -4   8   1    0.55    1.69
   4  -8   0    6.99    3.41
   4  -8   0    1.53    4.50
  -4   8   0    7.60    3.82
   4  -8   1    0.28    1.74
   4  -8   1   -0.59    1.84
  -4   8  -1    0.09    2.44
   4  -8   2   39.57   12.04
  -4   8  -2   60.59   10.99
  -4   8  -2   81.88   14.20
   4  -8   3    0.21    3.02
  -4   8  -3    1.02    3.90
  -4   8  -3    0.85    1.91
   4  -8   4    2.22    6.44
  -4   8  -4   34.77   10.27
  -4   8  -4   18.68    6.65
  -4   8  -5   12.67    7.76
  -4   8  -5    3.65    3.46
  -4   8  -6    3.64    4.04
  -4   8  -7   -0.88    3.22
   4  -7  -6    0.84    2.41
   4  -7  -6    1.35    2.32
   4  -7  -5   20.85    6.87
   4  -7  -5    8.90    5.29
   4  -7  -4   36.90    9.79
   4  -7  -4   52.08    8.85
  -4   7   4   42.44    8.94
   4  -7  -3   23.45    6.53
   4  -7  -3   19.02    7.46
  -4   7   3   21.14    7.88
   4  -7  -2    8.22    3.58
   4  -7  -2   13.45    7.86
  -4   7   2   10.80    4.30
   4  -7  -1    4.06    5.40
   4  -7  -1    2.54    3.94
  -4   7   1    2.98    5.23
   4  -7   0  129.78   17.82
   4  -7   0   48.88   14.23
  -4   7   0  129.94   19.30
   4  -7   1   60.76   13.74
   4  -7   1   86.85   13.11
  -4   7  -1   80.19   13.02
  -4   7  -1   96.79   16.79
   4  -7   2    9.69    4.56
  -4   7  -2   23.13    6.10
  -4   7  -2   21.35    8.01
   4  -7   3    0.67    4.04
  -4   7  -3    3.97    5.40
  -4   7  -3    3.45    2.76
  -4   7  -4   55.37   10.12
  -4   7  -4   46.20   11.31
  -4   7  -5   11.40    4.81
  -4   7  -5    4.81    4.29
  -4   7  -6   14.22    8.75
  -4   7  -7    1.25    2.71
  -4   7  -8    1.74    2.84
   4  -6  -7    2.99    3.17
   4  -6  -7    5.01    3.57
   4  -6  -6    2.18    3.75
   4  -6  -6    1.54    3.16
   4  -6  -5  331.14   42.95
   4  -6  -5  404.20   49.39
   4  -6  -4    2.68    5.05
   4  -6  -4    1.43    3.31
  -4   6   4    1.51    1.93
   4  -6  -3   74.87   15.33
   4  -6  -3   66.16   16.27
  -4   6   3   61.62   12.74
   4  -6  -2  195.30   20.93
   4  -6  -2  242.30   32.09
  -4   6   2  228.57   29.01
   4  -6  -1   21.41    8.33
   4  -6  -1   13.00    6.62
  -4   6   1   15.91    4.80
  -4   6   1   21.25    5.33
   4  -6   0    0.77    3.41
   4  -6   0    3.75    3.80
  -4   6   0    2.78    3.47
  -4   6   0    3.21    4.56
   4  -6   1  119.70   15.83
   4  -6   1  185.71   19.69
  -4   6  -1  213.97   27.83
  -4   6  -1  191.26   25.49
   4  -6   2   33.26   11.77
  -4   6  -2  102.07   16.88
  -4   6  -2   97.32   15.07
  -4   6  -3  166.14   26.38
  -4   6  -3  144.92   21.42
  -4   6  -4   16.93    9.48
  -4   6  -4   12.75    6.73
  -4   6  -5   24.38    9.54
  -4   6  -5   10.66    5.70
  -4   6  -6    1.07    2.40
  -4   6  -7    4.34    3.52
  -4   6  -8    0.11    1.29
   4  -5  -8    0.86    1.77
   4  -5  -8    1.48    2.63
   4  -5  -7    1.22    2.73
   4  -5  -7    0.60    2.90
   4  -5  -6   17.64    6.91
   4  -5  -6   23.74    8.80
   4  -5  -5   80.70   16.34
   4  -5  -5   71.81   13.10
   4  -5  -4   14.30    3.88
   4  -5  -4   19.10    9.08
  -4   5   4   14.73    5.52
   4  -5  -3  540.59   59.81
   4  -5  -3  612.86   70.23
  -4   5   3  576.62   62.29
   4  -5  -2    5.96    3.58
   4  -5  -2    5.66    2.05
   4  -5  -2    8.60    5.95
  -4   5   2    7.04    5.07
   4  -5  -1    0.60    2.53
   4  -5  -1    0.63    1.83
  -4   5   1    0.34    2.05
  -4   5   1    0.19    1.57
   4  -5   0   72.64   12.95
   4  -5   0  136.99   15.28
  -4   5   0  126.91   16.95
  -4   5   0  125.98   13.20
   4  -5   1    1.67    1.80
   4  -5   1    2.30    2.31
  -4   5  -1    4.94    5.67
  -4   5  -1    4.05    4.28
  -4   5  -2   18.95    9.35
  -4   5  -2   17.13    7.61
  -4   5  -3  141.72   23.27
  -4   5  -3  136.81   21.02
  -4   5  -4   50.84   13.70
  -4   5  -4   39.40    9.57
  -4   5  -5   18.89    7.62
  -4   5  -5    5.67    5.02
  -4   5  -6    5.99    5.51
  -4   5  -7    0.34    2.05
   4  -4  -9    2.88    2.88
  -4   4   9    3.10    4.00
   4  -4  -8    6.08    2.82
   4  -4  -8    7.52    5.42
  -4   4   8   10.11    3.21
   4  -4  -7   -0.18    1.60
   4  -4  -7    0.71    1.40
  -4   4   7    0.31    2.39
   4  -4  -6    6.71    5.97
   4  -4  -6    4.56    4.26
  -4   4   6    5.34    4.56
   4  -4  -5   10.01    5.26
   4  -4  -5   13.56    7.64
   4  -4  -4   73.81    8.48
   4  -4  -4   85.42   15.87
  -4   4   4   72.92   10.31
   4  -4  -3   67.55    8.50
   4  -4  -3   51.41    7.20
   4  -4  -3   68.56   13.14
   4  -4  -3   56.99    8.24
  -4   4   3   62.69    9.66
   4  -4  -2  147.90   14.43
   4  -4  -2  180.43   18.01
   4  -4  -2  175.18   15.27
   4  -4  -2  167.43   19.95
  -4   4   2  111.06   11.09
  -4   4   2  157.52   18.10
   4  -4  -1   72.68   10.67
   4  -4  -1   67.84   10.55
   4  -4  -1   67.39   10.21
   4  -4  -1   38.25    7.40
  -4   4   1   60.87    7.22
  -4   4   1   73.20   10.82
  -4   4   1   63.37   10.90
   4  -4   0   12.03    4.91
   4  -4   0    6.62    3.18
   4  -4   0   12.42    5.39
   4  -4   0   10.71    3.78
  -4   4   0   14.14    7.68
  -4   4   0   11.37    3.76
  -4   4   0   11.77    3.68
   4  -4   1    4.37    1.81
  -4   4  -1    7.99    4.83
  -4   4  -1    1.87    1.09
  -4   4  -1    5.42    4.10
  -4   4  -2    0.37    3.27
  -4   4  -2    0.51    2.91
  -4   4  -3   14.01    7.64
  -4   4  -3   12.28    6.11
  -4   4  -4    1.75    3.75
  -4   4  -4    0.52    2.96
  -4   4  -5    0.81    2.66
  -4   4  -5    0.12    2.04
  -4   4  -6    0.92    3.20
   4  -3 -10   10.32    5.40
  -4   3  10   35.41    8.68
   4  -3  -9    5.03    5.55
  -4   3   9   14.05    6.41
   4  -3  -8   35.19    9.67
   4  -3  -8   36.92   11.06
  -4   3   8   61.14    9.14
   4  -3  -7    1.92    2.22
   4  -3  -7    2.86    2.66
  -4   3   7    3.57    4.86
   4  -3  -6    0.34    2.26
   4  -3  -6    1.14    3.15
  -4   3   6    0.47    3.12
   4  -3  -5   46.18   11.48
   4  -3  -5   41.07    7.87
  -4   3   5   48.75   10.23
   4  -3  -4   89.48   10.46
   4  -3  -4   90.78   10.41
   4  -3  -4   71.34    8.16
   4  -3  -4   96.50   11.07
  -4   3   4   92.49   12.44
  -4   3   4   85.77   10.72
  -4   3   4   84.16   10.11
  -4   3   4  104.38   55.95
   4  -3  -3  512.71   50.74
   4  -3  -3  484.59   45.02
   4  -3  -3  418.30   38.89
   4  -3  -3  382.20   34.25
   4  -3  -3  464.28   48.09
  -4   3   3  437.85   42.51
  -4   3   3  398.84   36.69
  -4   3   3  495.93   51.06
  -4   3   3  439.41   41.72
   4  -3  -2    8.32    2.21
   4  -3  -2   11.09    2.90
   4  -3  -2    9.51    3.91
   4  -3  -2    9.75    4.91
  -4   3   2    4.01    3.33
  -4   3   2    6.95    2.69
  -4   3   2    9.34    4.46
  -4   3   2   10.12    2.99
  -4   3   2    9.90    4.39
   4  -3  -1   23.95    6.55
   4  -3  -1   19.44    5.01
   4  -3  -1   18.44    5.63
  -4   3   1   13.16    4.53
  -4   3   1   18.82    3.95
  -4   3   1   11.75    3.16
  -4   3   1   18.84    4.75
  -4   3   1   20.04    6.44
   4  -3   0    4.68    2.73
   4  -3   0    2.60    3.88
   4  -3   0    3.74    2.22
  -4   3   0    4.57    4.57
  -4   3   0    3.82    2.37
  -4   3   0    3.37    4.10
   4  -3   1    0.10    2.06
   4  -3   1    0.00    2.38
  -4   3  -1    0.59    3.25
  -4   3  -1    0.49    1.57
   4  -3   2    0.91    1.87
   4  -3   2    0.94    2.87
  -4   3  -2    2.18    3.51
  -4   3  -2    1.00    3.12
  -4   3  -3   59.00   11.66
  -4   3  -3   49.79   10.51
  -4   3  -4   34.24    9.67
  -4   3  -4   22.06    7.38
  -4   3  -5    2.51    3.57
  -4   3  -5    6.22    4.38
   4  -2 -10   12.30    6.88
  -4   2  10   33.60    9.46
   4  -2  -9   91.93   24.00
  -4   2   9  160.41   24.84
   4  -2  -8   12.44    4.52
   4  -2  -8   13.50    6.67
  -4   2   8   27.60    9.59
   4  -2  -7    1.38    3.76
   4  -2  -7    0.98    3.10
  -4   2   7    2.77    4.81
   4  -2  -6    0.74    2.50
  -4   2   6    4.49    4.42
   4  -2  -5    0.30    1.12
   4  -2  -5    0.18    1.77
   4  -2  -5    0.37    1.31
   4  -2  -5    0.42    2.54
  -4   2   5   -1.97   23.17
  -4   2   5    0.00    2.49
   4  -2  -4  160.61   17.14
   4  -2  -4  119.97   11.69
   4  -2  -4  109.31   11.37
   4  -2  -4  143.58   18.91
   4  -2  -4  108.85   10.25
  -4   2   4  118.36   14.37
  -4   2   4   99.00   58.77
  -4   2   4  128.21   17.20
  -4   2   4  123.86   12.05
  -4   2   4  120.36   13.57
   4  -2  -3  859.89   76.47
   4  -2  -3  607.30   61.16
   4  -2  -3  651.69   62.54
   4  -2  -3  620.25   57.45
   4  -2  -3  724.88   67.08
  -4   2   3  660.97   65.84
  -4   2   3  585.54   59.91
  -4   2   3  654.57   62.42
  -4   2   3  667.15   63.36
  -4   2   3  363.30   95.95
   4  -2  -2  329.90   31.39
   4  -2  -2  283.76   26.37
   4  -2  -2  338.41   32.96
  -4   2   2  294.95   31.21
  -4   2   2  298.00   26.77
  -4   2   2  326.54   31.08
  -4   2   2  323.94   31.03
   4  -2  -1  710.11   63.86
   4  -2  -1  654.49   63.69
   4  -2  -1  690.90   65.44
  -4   2   1  694.57   75.92
  -4   2   1  643.77   62.98
  -4   2   1  605.08   55.72
  -4   2   1  674.62   63.26
  -4   2   1  713.47   70.64
   4  -2   0   39.81    5.66
   4  -2   0   62.18    9.89
   4  -2   0   54.55    9.70
   4  -2   0   37.45    7.07
  -4   2   0   37.70    6.51
  -4   2   0   46.09    5.43
  -4   2   0   60.64   10.43
  -4   2   0   59.72   10.55
   4  -2   1   54.21    7.05
   4  -2   1   66.98   11.33
  -4   2  -1   51.04    7.36
  -4   2  -1   66.81    7.97
  -4   2  -1   75.95   11.40
   4  -2   2  159.10   17.56
   4  -2   2  181.02   22.64
  -4   2  -2  238.94   26.58
  -4   2  -2  173.04   22.15
   4  -2   3    0.04    1.02
  -4   2  -3   -0.06    0.89
  -4   2  -3    0.21    1.36
  -4   2  -3   -0.05    1.13
  -4   2  -4   10.70    5.30
  -4   2  -4    7.95    3.74
  -4   2  -4   11.65    4.07
  -4   2  -5   25.47    7.20
   4  -1 -11    0.27    2.29
  -4   1  11    4.32    4.76
   4  -1 -10   -0.02    3.15
  -4   1  10    2.27    2.86
   4  -1  -9   23.88    8.39
  -4   1   9   42.22    8.90
   4  -1  -8   37.77    6.91
   4  -1  -8   32.99    6.84
  -4   1   8   65.77   14.80
   4  -1  -7  178.41   22.77
   4  -1  -7  208.79   26.94
  -4   1   7  295.89   35.87
   4  -1  -6    8.13    5.54
   4  -1  -6    7.17    3.52
   4  -1  -6    5.89    2.25
  -4   1   6    3.52    6.07
  -4   1   6   11.10    6.48
   4  -1  -5   44.56    5.63
   4  -1  -5   44.65    7.00
   4  -1  -5   38.80    4.64
  -4   1   5   53.49   10.32
  -4   1   5   47.62   10.84
  -4   1   5   41.19   17.52
  -4   1   5   45.94   10.43
   4  -1  -4  828.91   78.05
   4  -1  -4  862.85   83.04
   4  -1  -4 1096.71  108.03
   4  -1  -4 1096.48  109.10
  -4   1   4  914.41   94.97
  -4   1   4  970.81   93.92
  -4   1   4  824.87  317.22
  -4   1   4  955.48  100.09
  -4   1   4  938.07   89.62
   4  -1  -3    1.63    1.98
   4  -1  -3    1.67    1.47
   4  -1  -3    2.09    2.07
   4  -1  -3    1.20    1.95
  -4   1   3    1.26    3.12
  -4   1   3    1.86    3.83
  -4   1   3    1.65    2.70
  -4   1   3    1.62    2.20
  -4   1   3    1.88    7.35
   4  -1  -2   90.34    9.41
   4  -1  -2   91.83   11.66
   4  -1  -2   83.22   11.83
   4  -1  -2   76.24   10.06
  -4   1   2   79.31   15.80
  -4   1   2   74.67    7.57
  -4   1   2   78.57   11.06
  -4   1   2   82.11   11.16
   4  -1  -1 1134.56  115.76
   4  -1  -1 1029.08  106.26
   4  -1  -1 1195.64  124.25
  -4   1   1 1130.87  126.53
  -4   1   1 1226.02  125.01
  -4   1   1 1084.08  110.17
  -4   1   1 1118.00  117.05
   4  -1   0  297.67   28.14
   4  -1   0  208.03   22.10
   4  -1   0  334.92   33.12
  -4   1   0  263.75   26.68
  -4   1   0  221.81   21.71
  -4   1   0  289.11   26.39
  -4   1   0  303.02   26.07
   4  -1   1   14.64    6.09
   4  -1   1   13.14    6.12
  -4   1  -1    6.74    4.26
  -4   1  -1   13.48    4.57
  -4   1  -1   14.45    6.04
   4  -1   2    0.39    1.58
   4  -1   2    3.33    3.58
   4  -1   2    2.48    3.53
  -4   1  -2    0.84    2.88
  -4   1  -2    2.25    2.13
  -4   1  -2    1.36    2.01
  -4   1  -3   27.08    8.05
  -4   1  -3   25.59    7.41
  -4   1  -4   53.25   10.90
  -4   1  -4   47.91    7.51
  -4   1  -5    1.14    2.62
  -4   1  -5    1.53    3.29
  -4   1  -6    1.94    2.87
  -4   1  -7   -0.24    1.70
   4   0 -11   11.83    7.13
  -4   0  11   55.85    9.19
   4   0 -10   16.39    9.06
  -4   0  10   55.13    9.33
   4   0  -9   39.51    7.77
   4   0  -9   33.51   10.25
  -4   0   9   78.77   16.38
   4   0  -8    0.79    2.20
   4   0  -8    0.71    3.02
   4   0  -8    0.37    3.71
  -4   0   8    1.29    2.79
   4   0  -7   25.35    5.86
   4   0  -7   28.67    7.80
   4   0  -7   17.36    8.03
  -4   0   7   33.56    7.16
   4   0  -6   95.86   15.78
   4   0  -6   91.53   12.86
  -4   0   6  100.51   16.58
   4   0  -5    1.80    2.61
   4   0  -5    5.75    3.04
   4   0  -5    4.40    3.27
   4   0  -5    9.35    3.32
  -4   0   5    6.79    5.03
  -4   0   5    2.40    2.68
  -4   0   5    4.92    3.02
  -4   0   5    7.01    2.60
   4   0  -4    0.70    3.12
   4   0  -4    0.53    2.51
   4   0  -4    0.82    1.68
   4   0  -4    0.32    0.98
  -4   0   4    0.45    3.30
  -4   0   4    0.27    1.05
  -4   0   4    0.83    2.27
  -4   0   4    0.26    1.42
   4   0  -3   88.11    9.59
   4   0  -3   99.69   13.87
   4   0  -3   77.24    7.41
   4   0  -3   91.82   13.35
  -4   0   3   96.13   19.54
  -4   0   3   84.14   12.28
  -4   0   3   88.46    9.54
  -4   0   3   78.97    9.01
   4   0  -2 1122.69  120.09
   4   0  -2 1258.02  127.71
   4   0  -2 1130.17  114.09
   4   0  -2 1176.08  122.07
  -4   0   2 1140.98  133.46
  -4   0   2 1163.56  121.99
  -4   0   2 1127.82  117.04
   4   0  -1   66.79    8.36
   4   0  -1   70.01    8.48
   4   0  -1   68.10    7.29
   4   0  -1   66.36    7.53
  -4   0   1   66.94    9.79
  -4   0   1   58.62    6.25
  -4   0   1   67.67   10.74
   4   0   0    3.76    5.21
   4   0   0    4.59    1.50
   4   0   0    1.79    1.70
   4   0   0    3.98    3.91
  -4   0   0    3.02    4.33
  -4   0   0    1.41    1.71
  -4   0   0    3.33    2.20
   4   0   1  367.57   43.62
   4   0   1  327.87   31.08
   4   0   1  352.95   38.48
  -4   0  -1  314.64   36.30
  -4   0  -1  345.71   38.47
  -4   0  -2    0.37    2.61
  -4   0  -2    1.02    3.34
  -4   0  -3   15.84    4.64
  -4   0  -3   16.02    4.87
  -4   0  -4    2.14    3.64
  -4   0  -4    2.49    2.89
  -4   0  -5    2.86    4.79
  -4   0  -5    9.33    3.95
  -4   0  -6    1.61    3.12
  -4   0  -7    0.34    2.10
   4   1 -12    1.28    4.35
  -4  -1  12   17.52    6.32
   4   1 -11   55.79   17.86
  -4  -1  11  214.78   28.10
   4   1 -10    3.18    4.19
  -4  -1  10    8.73    8.26
   4   1  -9    5.85    4.39
   4   1  -9    1.35    4.74
   4   1  -9    4.94    4.60
  -4  -1   9   11.90    4.59
   4   1  -8  266.68   27.33
   4   1  -8  270.32   35.80
  -4  -1   8  330.58   33.80
   4   1  -7  416.45   48.78
   4   1  -7  490.64   47.94
  -4  -1   7  442.32   52.30
   4   1  -6    7.67    3.12
   4   1  -6   17.94    6.71
   4   1  -6   18.28    5.88
  -4  -1   6    7.10    3.53
  -4  -1   6   23.88    8.95
   4   1  -5    1.20    3.33
   4   1  -5    2.04    3.34
   4   1  -5    0.57    2.31
  -4  -1   5    1.42    2.74
  -4  -1   5    1.45    3.45
  -4  -1   5    0.64    1.47
  -4  -1   5    1.19    3.13
   4   1  -4   64.79   11.34
   4   1  -4   54.26   10.18
   4   1  -4   52.76    5.79
  -4  -1   4   59.78   16.03
  -4  -1   4   53.46    7.34
  -4  -1   4   61.14   12.10
   4   1  -3   62.40    8.88
   4   1  -3   68.73    6.40
   4   1  -3   71.42   11.96
   4   1  -3   57.27    6.99
  -4  -1   3   70.12   11.56
  -4  -1   3   61.27    8.04
   4   1  -2   24.21    5.43
   4   1  -2   20.75    2.78
   4   1  -2   19.78    5.85
   4   1  -2   20.80    4.99
  -4  -1   2   21.41   11.90
  -4  -1   2   20.08    6.14
  -4  -1   2   20.55    5.83
   4   1  -1  837.43   85.14
   4   1  -1  946.94   94.75
   4   1  -1  928.08   89.70
   4   1  -1  988.38  100.82
  -4  -1   1  884.48   91.12
  -4  -1   1  912.69  100.82
  -4  -1   1  784.26   79.83
   4   1   0   73.81    8.19
   4   1   0  139.59   22.36
   4   1   0   99.64    9.15
   4   1   0  126.60   16.48
  -4  -1   0  107.75   13.88
  -4  -1   0   69.08    8.47
  -4  -1   0  116.41   18.21
  -4  -1  -1   28.29    8.83
  -4  -1  -1   29.81   11.21
  -4  -1  -2    0.52    3.01
  -4  -1  -2    0.13    3.57
  -4  -1  -3    3.54    4.43
  -4  -1  -3    2.77    5.68
  -4  -1  -4   32.52    6.91
  -4  -1  -4   36.40   12.29
   4   1   5    0.11    1.00
  -4  -1  -5   -1.69    2.65
  -4  -1  -6    0.74    2.89
  -4  -1  -7   -0.47    2.21
   4   2 -12   -0.07    3.82
  -4  -2  12    1.55    3.48
   4   2 -11    4.31    5.63
  -4  -2  11   12.49    7.85
   4   2 -10    1.86    3.69
   4   2 -10    3.29    4.65
  -4  -2  10    6.30    6.86
   4   2  -9  234.54   27.66
   4   2  -9  157.11   23.83
   4   2  -9  133.85   21.16
  -4  -2   9  320.94   39.56
   4   2  -8    7.89    5.19
   4   2  -8    6.52    4.94
   4   2  -8    2.41    2.22
  -4  -2   8    9.63    7.64
   4   2  -7  143.84   22.05
   4   2  -7  119.73   19.66
  -4  -2   7  139.92   25.62
   4   2  -6  560.94   63.34
   4   2  -6  544.86   58.79
  -4  -2   6  592.47   72.05
   4   2  -5  150.58   20.34
   4   2  -5  141.90   14.30
   4   2  -5  146.63   15.88
  -4  -2   5  167.49   31.33
  -4  -2   5  140.10   20.78
   4   2  -4    0.16    0.64
   4   2  -4    0.03    1.36
   4   2  -4    0.11    2.13
  -4  -2   4    0.02    0.76
  -4  -2   4    0.21    3.80
  -4  -2   4    0.20    1.95
  -4  -2   4    0.11    2.20
   4   2  -3    1.22    3.53
   4   2  -3    1.42    3.04
   4   2  -3    0.81    1.15
   4   2  -3    1.46    1.58
  -4  -2   3    1.10    2.22
  -4  -2   3    1.65    6.08
  -4  -2   3    0.79    2.90
   4   2  -2    1.17    4.23
   4   2  -2    1.26    2.66
   4   2  -2    0.84    1.59
   4   2  -2    1.85    2.14
  -4  -2   2    1.15    2.60
  -4  -2   2    1.86    4.38
  -4  -2   2    0.90    2.57
   4   2  -1   39.12   12.29
   4   2  -1   32.10    4.27
   4   2  -1   40.19    8.01
   4   2  -1   32.27    6.72
  -4  -2   1   40.66    9.45
  -4  -2   1   39.33   12.58
  -4  -2   1   31.08    6.43
  -4  -2   0   -0.02    1.99
  -4  -2   0    0.02    1.47
  -4  -2   0   -0.15    0.94
  -4  -2   0   -0.03    0.62
  -4  -2  -1  140.27   15.96
  -4  -2  -1  162.70   26.57
  -4  -2  -2    3.77    5.24
  -4  -2  -2    2.71    6.13
  -4  -2  -3    0.87    2.64
  -4  -2  -3   -0.75    3.05
   4   2   4    9.09    3.67
  -4  -2  -4   10.43    7.47
   4   2   5    3.15    2.27
  -4  -2  -5    7.35    5.22
  -4  -2  -6    4.15    4.42
   4   3 -12    1.00    6.02
  -4  -3  12   38.62    8.47
   4   3 -11    1.53    3.81
   4   3 -11    4.78    6.74
  -4  -3  11   10.18    6.15
   4   3 -10    1.15    6.25
   4   3 -10    2.98    4.61
  -4  -3  10    4.69    6.07
   4   3  -9   39.65   10.64
   4   3  -9   21.28    7.59
   4   3  -9   13.12    8.06
  -4  -3   9   41.90   12.79
   4   3  -8  246.34   26.59
   4   3  -8  185.67   27.47
  -4  -3   8  244.81   28.65
   4   3  -7   78.25   15.85
   4   3  -7   68.90   10.82
  -4  -3   7   86.35   22.66
   4   3  -6   13.76    5.29
   4   3  -6   17.22    8.35
  -4  -3   6   14.05   12.88
   4   3  -5   89.45   18.13
   4   3  -5   99.98   16.90
  -4  -3   5   93.16   25.47
   4   3  -4  151.87   20.11
   4   3  -4  100.91    9.61
   4   3  -4  141.32   12.44
  -4  -3   4  105.46   10.64
  -4  -3   4  168.85   29.81
   4   3  -3   17.18    4.45
   4   3  -3   17.14    7.16
   4   3  -3   12.98    3.89
   4   3  -3   13.98    4.30
  -4  -3   3   11.73    3.88
  -4  -3   3   16.36    9.26
  -4  -3   3   15.68    6.28
   4   3  -2    8.22    2.93
   4   3  -2    9.54    4.04
   4   3  -2    6.22    2.64
  -4  -3   2    7.19    2.55
  -4  -3   2    6.47    7.12
  -4  -3   2    5.54    4.62
   4   3  -1    9.12    2.64
  -4  -3   1    8.35    5.39
  -4  -3   1    5.52    8.02
  -4  -3   0    2.28    3.90
  -4  -3   0    1.18    2.38
  -4  -3  -1   39.17   12.03
  -4  -3  -1   40.08   15.00
   4   3   2    0.03    1.96
  -4  -3  -2    2.90    4.15
   4   3   3   10.62    6.84
  -4  -3  -3    7.81    8.83
   4   3   4   -0.12    2.17
  -4  -3  -4   -0.48    3.25
  -4  -3  -5    0.28    2.25
   4   4 -12   -0.16    1.24
   4   4 -12    0.33    1.04
  -4  -4  12   -0.03    1.64
   4   4 -11    1.19    2.15
   4   4 -11    1.56    3.11
  -4  -4  11    2.56    4.41
   4   4 -10   53.64   12.24
   4   4 -10   15.68    9.33
  -4  -4  10   56.04   14.44
   4   4  -9   35.89   10.58
   4   4  -9    9.01    7.43
   4   4  -9   18.15    4.89
  -4  -4   9   37.34   12.49
   4   4  -8   13.77    5.48
   4   4  -8   10.94    7.30
  -4  -4   8   13.53    7.01
   4   4  -7  176.79   20.24
   4   4  -7  161.91   25.07
  -4  -4   7  180.26   33.09
   4   4  -6  252.97   30.99
   4   4  -6  251.28   33.94
  -4  -4   6  273.51   44.10
   4   4  -5   34.59    9.09
   4   4  -5   34.93   11.83
  -4  -4   5   36.66   14.19
   4   4  -4    0.22    1.02
   4   4  -4    0.46    2.38
   4   4  -4    0.07    0.90
   4   4  -4   -0.26    1.54
  -4  -4   4    0.02    2.35
   4   4  -3   42.66    6.88
   4   4  -3   44.59    5.82
   4   4  -3   60.22   12.44
  -4  -4   3   55.72   13.59
   4   4  -2   10.81    3.82
  -4  -4   2   45.13    9.87
   4   4  -1    0.45    1.54
  -4  -4   1    0.54    3.70
  -4  -4   1    0.10    2.23
   4   4   0    1.01    2.17
  -4  -4   0    0.82    4.85
   4   4   1   22.94    9.43
  -4  -4  -1   18.46    6.79
   4   4   2    1.33    3.99
  -4  -4  -2    1.22    4.91
   4   4   3   17.15    7.09
  -4  -4  -3   26.37   10.65
   4   4   4    0.88    2.03
  -4  -4  -4    0.18    1.43
   4   5 -12   10.31    4.90
   4   5 -11   58.89    8.15
   4   5 -11   13.80    6.89
   4   5 -10   24.83    8.95
   4   5 -10    5.99    7.93
   4   5  -9   61.70   13.52
   4   5  -9   34.98    6.90
  -4  -5   9   49.66   14.21
   4   5  -8   17.85    7.94
   4   5  -8   13.55    7.70
  -4  -5   8    8.51    9.85
   4   5  -7   77.06   15.74
   4   5  -7   71.18   16.04
  -4  -5   7   67.82   16.65
   4   5  -6   37.45    6.64
   4   5  -6   37.95   12.35
  -4  -5   6   32.39   10.70
   4   5  -5  209.98   23.22
   4   5  -5  259.23   26.86
  -4  -5   5  165.24   21.60
   4   5  -4   46.40    8.75
  -4  -5   4   38.31   11.41
   4   5  -3    8.89    4.48
  -4  -5   3    7.69    6.53
  -4  -5   3    8.76    7.12
   4   5  -2   27.13    8.15
  -4  -5   2   22.65   10.12
  -4  -5   2   22.57    9.42
   4   5  -1  119.89   17.67
  -4  -5   1  107.94   20.21
  -4  -5   1   57.21   13.46
   4   5   0   78.37   15.41
  -4  -5   0   59.02   10.71
   4   5   1    7.49    5.33
  -4  -5  -1    3.52    6.51
   4   5   2   -0.03    2.45
  -4  -5  -2    0.55    2.92
   4   5   3    0.49    2.00
  -4  -5  -3    0.13    1.93
   4   6 -11   14.12    7.40
  -4  -6  11    0.71   24.30
   4   6 -10    0.23    2.56
   4   6  -9   52.60   11.48
  -4  -6   9   21.41    5.37
   4   6  -8    4.81    4.14
  -4  -6   8    0.36    2.52
   4   6  -7   83.86    9.92
  -4  -6   7    0.66    6.28
   4   6  -6  133.74   17.10
  -4  -6   6  164.80   20.43
  -4  -6   5    8.46    7.79
  -4  -6   4   28.79    6.29
  -4  -6   4   53.96   12.67
   4   6  -3   65.36   10.89
  -4  -6   3   70.86   15.45
  -4  -6   3   39.88   11.21
   4   6  -2    1.68    3.49
  -4  -6   2    1.49    2.05
  -4  -6   2    1.27    3.98
   4   6  -1    0.90    1.79
  -4  -6   1    0.34    2.46
  -4  -6   1   -0.07    2.37
   4   6   0   35.30    9.56
  -4  -6   0   16.96    8.48
   4   6   1   27.68    8.53
  -4  -6  -1   17.74    8.42
   4   6   2    1.89    2.53
  -4  -6  -2   -0.07    1.61
   4   7 -11   15.58    7.00
   4   7 -10    4.53    3.15
   4   7  -9    0.28    2.44
  -4  -7   9    0.11    2.11
   4   7  -8    2.76    3.85
  -4  -7   8    1.69    4.75
   4   7  -7    0.82    2.59
  -4  -7   7    1.44    4.50
  -4  -7   6    1.22    5.03
  -4  -7   5   70.83   16.93
  -4  -7   4   26.53   10.36
   4   7  -3    0.44    2.05
  -4  -7   3    0.09    2.62
   4   7  -2   16.37    5.97
  -4  -7   2    4.28    5.92
   4   7  -1    6.62    4.22
  -4  -7   1    0.73    3.13
   4   7   0    2.19    1.98
   4   8 -10   19.93    6.32
   4   8  -9   -0.66    2.27
   4   8  -8    0.52    1.79
  -4  -8   8    0.57    2.88
  -4  -8   7   27.72   10.50
  -4  -8   6    1.91    4.97
  -4  -8   5    0.31    2.54
  -4  -8   4    0.10    2.08
   4   8  -3    3.39    2.95
  -4  -8   3    5.90    4.49
   4   8  -2   -0.14    0.69
  -4  -8   2    0.33    0.84
  -4  -9   6    4.46    4.62
   5  -9  -2   19.38    5.86
  -5   9   2   19.59    6.06
   5  -9  -1    2.10    3.05
  -5   9   1    3.78    2.45
   5  -9   0   10.73    4.19
  -5   9   0   17.73    4.42
  -5   9  -1    6.99    6.19
   5  -9   2   -0.22    0.77
  -5   9  -2    0.17    2.43
  -5   9  -3   11.54    4.74
  -5   9  -3   11.02    5.50
  -5   9  -4   -0.02    1.73
  -5   9  -4    0.42    1.52
  -5   9  -5    1.28    1.52
   5  -8  -3    8.77    3.72
   5  -8  -3   24.91    6.99
  -5   8   3   18.85    5.77
   5  -8  -2    0.48    2.07
   5  -8  -2    3.52    3.71
  -5   8   2    3.02    3.63
   5  -8  -1    0.27    2.62
  -5   8   1    1.06    3.24
   5  -8   0    2.02    3.07
  -5   8   0    3.21    4.78
  -5   8  -1    3.31    2.15
  -5   8  -1    4.35    3.28
  -5   8  -2    0.68    2.32
  -5   8  -2    0.16    3.51
  -5   8  -3    0.03    0.87
  -5   8  -3   -0.07    1.45
  -5   8  -4   16.17    7.20
  -5   8  -4    8.21    5.39
  -5   8  -5    1.60    3.31
  -5   8  -5    0.50    1.84
  -5   8  -6    7.78    5.36
   5  -7  -5   14.65    5.46
   5  -7  -5    2.76    2.75
   5  -7  -4    1.25    2.10
   5  -7  -4    2.64    4.44
  -5   7   4    1.57    1.66
   5  -7  -3    7.10    5.33
   5  -7  -3    2.25    1.75
  -5   7   3    6.31    4.40
   5  -7  -2   14.70    7.20
  -5   7   2    9.19    7.53
   5  -7  -1   29.77    5.89
  -5   7   1   33.87   11.31
   5  -7   0   23.71    6.80
  -5   7   0   22.69    7.12
  -5   7   0   29.07    6.82
  -5   7  -1    0.66    2.68
  -5   7  -1    0.57    3.74
  -5   7  -2   89.27   17.43
  -5   7  -2   95.30   19.76
  -5   7  -3   18.83    9.27
  -5   7  -3   13.88    8.41
  -5   7  -4    7.26    4.14
  -5   7  -4    4.25    2.89
  -5   7  -5    0.11    1.93
  -5   7  -5   -0.02    1.15
  -5   7  -6   27.43    9.03
  -5   7  -7    1.45    1.37
   5  -6  -7    0.36    1.27
   5  -6  -6   20.27    4.63
   5  -6  -6    5.37    3.95
   5  -6  -5   12.08    5.83
   5  -6  -5    2.09    3.05
   5  -6  -4    7.89    4.33
   5  -6  -4   14.95    5.13
  -5   6   4   10.11    5.51
   5  -6  -3  480.74   58.42
  -5   6   3  448.07   47.88
   5  -6  -2   12.67    4.58
  -5   6   2   11.88    4.86
   5  -6  -1   75.81    9.67
  -5   6   1   78.92   16.87
   5  -6   0  120.30   15.75
  -5   6   0  126.27   18.00
  -5   6   0  147.05   17.55
  -5   6  -1   27.59   10.51
  -5   6  -1   27.86    7.15
  -5   6  -2    3.78    3.75
  -5   6  -2    3.51    6.29
  -5   6  -3   44.17   13.56
  -5   6  -3   31.17   11.00
  -5   6  -4   81.40   17.19
  -5   6  -4   51.49   12.92
  -5   6  -5   48.43    8.11
  -5   6  -5   17.89    7.37
  -5   6  -6    2.19    3.83
  -5   6  -7    1.45    1.96
   5  -5  -8    2.12    3.16
   5  -5  -8    3.49    2.74
   5  -5  -7   -0.29    1.33
   5  -5  -7    0.05    1.36
   5  -5  -6   19.72    7.99
   5  -5  -6    8.14    4.36
   5  -5  -5    2.03    4.98
   5  -5  -4   10.16    7.24
  -5   5   4    4.81    4.55
   5  -5  -3   71.36    9.97
   5  -5  -3  112.46   17.99
  -5   5   3  100.80   11.91
   5  -5  -2    1.46    2.81
   5  -5  -2    0.97    3.53
  -5   5   2    1.11    3.85
   5  -5  -1  860.68   94.90
  -5   5   1  831.73   91.62
  -5   5   1  923.65  106.62
   5  -5   0    4.42    3.26
  -5   5   0    7.55    6.12
  -5   5   0    4.66    6.16
  -5   5  -1    8.54    7.60
  -5   5  -1    7.35    7.74
  -5   5  -2  151.60   25.25
  -5   5  -2  134.65   17.95
  -5   5  -3    9.71    7.97
  -5   5  -3    7.81    6.60
  -5   5  -4    4.75    5.24
  -5   5  -4    0.71    4.37
  -5   5  -5   49.27   10.67
  -5   5  -5   17.65    8.11
  -5   5  -6   16.30    6.09
   5  -4  -8    3.52    3.98
   5  -4  -8    2.18    2.75
  -5   4   8    2.14    3.66
   5  -4  -7   19.18    7.68
   5  -4  -7    8.07    4.71
   5  -4  -6   38.90   12.53
   5  -4  -5    0.50    3.52
   5  -4  -4    0.90    3.66
   5  -4  -4    0.65    1.45
  -5   4   4    0.40    2.16
   5  -4  -3    1.11    2.48
   5  -4  -3    3.62    4.14
  -5   4   3    1.46    3.20
   5  -4  -2  180.13   18.41
   5  -4  -2  181.98   22.29
  -5   4   2  173.76   18.14
   5  -4  -1  113.44   14.42
  -5   4   1  121.36   17.06
  -5   4   1  128.00   19.06
  -5   4   0   78.65   10.87
  -5   4   0   83.31   16.91
  -5   4  -1  237.50   31.92
  -5   4  -1  215.67   30.73
  -5   4  -2    0.65    2.14
  -5   4  -2    0.00    3.08
  -5   4  -3    9.03    4.25
  -5   4  -3    5.33    6.39
  -5   4  -4    8.47    5.71
  -5   4  -4    4.17    5.35
  -5   4  -5    1.13    1.60
  -5   4  -5    0.60    2.68
  -5   3  10    9.33    4.14
   5  -3  -9   -0.21    1.39
   5  -3  -9    0.40    1.72
  -5   3   9    0.94    2.54
   5  -3  -8   69.70   13.13
   5  -3  -8   26.86    8.93
  -5   3   8   95.49   16.24
   5  -3  -7   31.90    7.52
  -5   3   7   32.67   11.80
   5  -3  -6  152.73   18.73
  -5   3   6  136.98   17.14
   5  -3  -5    7.64    3.17
   5  -3  -5   13.40    7.02
  -5   3   5    6.96    5.74
   5  -3  -4    8.97    3.64
   5  -3  -4   12.91    4.31
  -5   3   4    6.68    5.43
  -5   3   4    6.89    3.95
   5  -3  -3    2.62    2.81
   5  -3  -3    2.67    3.80
  -5   3   3    1.21    3.26
  -5   3   3    1.45    1.79
  -5   3   3    2.20    2.95
   5  -3  -2   54.02    7.47
   5  -3  -2   46.21    9.31
  -5   3   2   46.98   10.02
   5  -3  -1  119.05   11.59
  -5   3   1  136.92   18.04
  -5   3   1  122.83   14.49
  -5   3   1  149.65   15.92
  -5   3   0   48.51   11.76
  -5   3   0   42.82    7.68
  -5   3  -1    1.50    2.42
  -5   3  -1    0.91    3.79
  -5   3  -2   41.54   10.68
  -5   3  -2   34.44   11.10
  -5   3  -3    1.45    3.55
  -5   3  -3    1.89    4.18
  -5   3  -4    1.10    2.53
  -5   3  -4    0.52    3.40
  -5   3  -5    0.20    1.97
   5  -2 -10    7.90    4.66
  -5   2  10   50.01    7.12
   5  -2  -9    0.45    1.64
   5  -2  -9   -0.16    2.22
  -5   2   9    0.45    3.83
   5  -2  -8   57.60   14.63
  -5   2   8   79.41   18.85
   5  -2  -7  170.39   27.08
  -5   2   7  198.78   31.23
   5  -2  -6   47.71    7.93
   5  -2  -6   71.89   15.06
  -5   2   6   74.11   10.92
   5  -2  -5   48.47    8.14
   5  -2  -5   64.78   14.45
  -5   2   5   59.24   13.72
   5  -2  -4   56.43    6.87
   5  -2  -4   81.03   10.46
   5  -2  -4  103.05   11.68
  -5   2   4   84.29   11.05
  -5   2   4   75.39   10.12
   5  -2  -3    0.43    1.94
   5  -2  -3    0.39    0.86
   5  -2  -3    0.24    2.46
  -5   2   3   -0.07    2.80
  -5   2   3    0.31    1.53
  -5   2   3   -0.14    1.91
   5  -2  -2   73.73   11.60
   5  -2  -2   58.47    6.96
   5  -2  -2   59.49    7.46
  -5   2   2   60.16    9.29
  -5   2   2   48.60    7.83
  -5   2   2   50.07    8.78
  -5   2   2   62.48    7.95
   5  -2  -1  211.88   22.02
   5  -2  -1  187.20   19.22
  -5   2   1  181.02   20.60
  -5   2   1  153.39   15.68
  -5   2   1  248.81   21.50
  -5   2   1  158.73   15.98
  -5   2   1  225.52   24.54
   5  -2   0   80.68    8.68
  -5   2   0   63.66   10.12
  -5   2   0  116.31   14.37
  -5   2   0  108.89   15.66
   5  -2   1  196.94   22.46
  -5   2  -1  178.20   22.13
  -5   2  -1  337.57   27.76
  -5   2  -1  346.96   37.09
  -5   2  -2    0.70    1.35
  -5   2  -2    0.52    3.30
  -5   2  -3    8.39    3.62
  -5   2  -3    7.61    6.90
  -5   2  -4    3.32    4.15
  -5   2  -5    0.25    2.19
  -5   1  11    1.24    4.47
   5  -1 -10    0.29    0.96
   5  -1 -10    0.32    1.10
  -5   1  10    1.30    3.98
   5  -1  -9   27.61    6.69
  -5   1   9   50.90   10.49
   5  -1  -8    8.38    7.25
  -5   1   8   13.45   10.16
   5  -1  -7   25.00    6.53
   5  -1  -7   32.89   11.49
  -5   1   7   41.37   13.70
   5  -1  -6   65.90   10.28
   5  -1  -6   56.39    9.25
  -5   1   6   72.68   17.72
   5  -1  -5  496.55   50.74
   5  -1  -5  568.86   63.24
  -5   1   5  556.73   66.63
   5  -1  -4   22.75    4.26
   5  -1  -4   30.68    6.25
   5  -1  -4   35.14    9.37
  -5   1   4   34.15    5.11
  -5   1   4   21.74    4.72
  -5   1   4   34.18   13.23
   5  -1  -3   26.76    8.32
   5  -1  -3   16.23    4.54
   5  -1  -3   20.69    7.12
   5  -1  -3   24.33    6.11
  -5   1   3   19.90   10.78
  -5   1   3   20.62    6.16
  -5   1   3   19.97    6.56
  -5   1   3   15.53    5.02
   5  -1  -2  308.97   28.59
   5  -1  -2  252.73   26.89
   5  -1  -2  281.62   24.67
   5  -1  -2  245.52   24.97
  -5   1   2  262.76   35.14
  -5   1   2  235.52   24.49
  -5   1   2  238.94   22.08
  -5   1   2  254.54   26.77
   5  -1  -1    1.17    2.57
   5  -1  -1    1.01    2.38
   5  -1  -1    0.54    1.65
   5  -1  -1    0.42    2.47
  -5   1   1    0.50    2.86
  -5   1   1    0.57    1.57
  -5   1   1    0.30    1.64
   5  -1   0   53.83   11.10
   5  -1   0   67.56    7.63
  -5   1   0   46.30   10.73
  -5   1   0   60.46    8.90
   5  -1   1  198.31   24.74
  -5   1  -1  309.14   34.40
  -5   1  -1  379.26   40.15
   5  -1   2   75.30    9.28
  -5   1  -2   93.97   16.23
  -5   1  -2   66.09   13.75
  -5   1  -3   34.29    9.18
  -5   1  -3   21.19    7.55
  -5   1  -4    0.25    1.13
  -5   1  -4   -0.17    0.82
  -5   1  -5    3.03    3.37
  -5   1  -5    1.16    2.75
  -5   1  -6    0.35    1.49
   5   0 -11    0.21    1.73
  -5   0  11    3.25    4.44
   5   0 -10   23.48    8.59
  -5   0  10   64.68   15.78
   5   0  -9   43.16   13.60
  -5   0   9   67.19   19.23
   5   0  -8   15.15    9.28
   5   0  -8   16.73    7.08
  -5   0   8   26.33   13.02
   5   0  -7   11.81    6.04
   5   0  -7   16.25    5.53
  -5   0   7   19.52   11.59
   5   0  -6    0.78    4.68
   5   0  -6    2.22    2.86
  -5   0   6    2.06    6.53
   5   0  -5   71.16   13.54
   5   0  -5   71.45   10.74
  -5   0   5   77.47   20.52
   5   0  -4   70.75    8.57
   5   0  -4   48.58    6.64
   5   0  -4   76.66   10.02
  -5   0   4   82.67   21.13
  -5   0   4   47.92    6.47
   5   0  -3  127.35   14.08
   5   0  -3  110.48   12.60
   5   0  -3  119.01   15.96
  -5   0   3  123.62   25.91
  -5   0   3  117.42   11.89
  -5   0   3  107.12   14.04
  -5   0   3  105.68   13.04
   5   0  -2   15.53    7.42
   5   0  -2   14.65    4.40
   5   0  -2   11.87    5.40
   5   0  -2   11.02    5.14
  -5   0   2   10.23    9.21
  -5   0   2    9.64    4.30
  -5   0   2   10.98    5.14
   5   0  -1    4.24    3.24
   5   0  -1    5.50    1.84
   5   0  -1    2.90    2.77
  -5   0   1    2.95    3.06
  -5   0   1    1.89    2.26
  -5   0   1    3.12    4.14
   5   0   0  554.15   59.22
  -5   0   0  536.35   63.17
  -5   0   0  615.39   68.93
   5   0   1    8.08    1.93
  -5   0  -1   12.89    6.56
  -5   0  -2    0.06    3.23
  -5   0  -2   -0.91    3.09
  -5   0  -3  127.08   21.79
  -5   0  -3   92.82   17.82
  -5   0  -4    3.57    2.88
  -5   0  -4    2.35    2.61
   5   0   5    0.21    1.03
  -5   0  -5    0.18    1.93
  -5   0  -6   -0.14    1.38
  -5  -1  11    0.37    2.43
   5   1 -10   34.67    8.06
   5   1 -10   30.89    8.94
  -5  -1  10   78.99   17.48
   5   1  -9  237.98   25.75
   5   1  -9  217.46   30.83
  -5  -1   9  334.53   37.09
   5   1  -8   95.95   21.31
   5   1  -8   95.08   13.02
  -5  -1   8  105.76   26.09
   5   1  -7   90.11   20.03
   5   1  -7   71.15   14.17
  -5  -1   7   88.40   24.29
   5   1  -6  258.62   34.93
   5   1  -6  253.20   31.14
  -5  -1   6  273.48   44.62
   5   1  -5  556.32   64.28
   5   1  -5  552.66   58.65
  -5  -1   5  632.44   86.40
   5   1  -4    8.91    3.34
   5   1  -4   15.97    7.16
   5   1  -4   14.65    3.02
  -5  -1   4    6.84    3.01
  -5  -1   4   17.22    7.75
   5   1  -3    5.49    3.24
   5   1  -3    5.24    4.22
   5   1  -3    4.58    3.10
  -5  -1   3    3.32    3.02
  -5  -1   3    6.01    9.35
  -5  -1   3    3.96    4.20
   5   1  -2   40.01    6.13
   5   1  -2   33.70    5.42
   5   1  -2   41.31    8.11
  -5  -1   2   34.68    7.91
  -5  -1   2   37.69   13.49
  -5  -1   2   30.07    7.12
   5   1  -1    2.42    1.79
   5   1  -1    1.65    2.24
  -5  -1   1    2.68    2.13
  -5  -1   1    2.83    3.22
  -5  -1   1    1.52    2.18
  -5  -1   0    0.64    3.31
  -5  -1   0    0.71    4.02
  -5  -1  -1  131.38   23.12
  -5  -1  -1  123.25   24.47
  -5  -1  -2  121.19   20.86
  -5  -1  -2  128.43   23.66
  -5  -1  -3    2.53    4.99
  -5  -1  -3    2.24    5.00
  -5  -1  -4    0.98    2.15
  -5  -1  -4   -0.16    3.11
   5   1   5    1.56    3.01
  -5  -1  -5    4.03    3.47
  -5  -2  12    6.46    7.62
   5   2 -11   21.21    5.32
  -5  -2  11   61.91   15.88
   5   2 -10    9.32    3.62
   5   2 -10    4.34    4.98
  -5  -2  10   14.42   10.42
   5   2  -9   13.97    8.12
   5   2  -9   15.46    5.24
  -5  -2   9   17.04   13.11
   5   2  -8   18.18   11.00
   5   2  -8   19.94    9.96
  -5  -2   8   20.74   14.60
   5   2  -7  681.86   87.70
   5   2  -7  735.29   79.63
  -5  -2   7  756.61   91.15
   5   2  -6    7.13    8.27
   5   2  -6    7.64    5.98
  -5  -2   6    8.64   13.04
   5   2  -5   48.10    9.26
   5   2  -5   45.02   11.31
  -5  -2   5   50.52   14.35
   5   2  -4  499.92   50.49
   5   2  -4  484.19   55.73
  -5  -2   4  512.44   75.30
   5   2  -3  287.37   28.17
   5   2  -3  301.79   29.53
  -5  -2   3  268.95   26.06
  -5  -2   3  329.80   45.86
   5   2  -2   14.00    3.80
   5   2  -2   14.04    5.83
  -5  -2   2   17.43    4.40
  -5  -2   2   18.30    9.21
   5   2  -1   -0.09    0.58
  -5  -2   1    0.51    1.77
  -5  -2   1    0.14    2.41
  -5  -2   0   -0.24    1.37
  -5  -2   0    0.56    3.53
  -5  -2  -1    8.52    7.31
  -5  -2  -1    6.44    9.05
  -5  -2  -2    0.85    2.40
  -5  -2  -2    0.41    4.40
   5   2   3   -0.57    3.43
  -5  -2  -3   49.34    8.60
   5   2   4    4.33    4.20
  -5  -2  -4    2.03    5.60
  -5  -2  -5    0.39    2.09
  -5  -3  12   24.31    6.74
   5   3 -11    6.28    5.39
  -5  -3  11   13.48    6.23
   5   3 -10   75.10   14.76
   5   3 -10   39.40   10.71
  -5  -3  10   98.81   23.25
   5   3  -9   89.65   17.89
   5   3  -9   62.79   15.32
  -5  -3   9  101.13   27.25
   5   3  -8    2.73    6.07
   5   3  -8    5.19    6.29
  -5  -3   8    5.94    6.48
   5   3  -7   26.23   11.89
   5   3  -7   33.92    7.95
   5   3  -6  121.73   22.87
   5   3  -6  146.19   23.80
  -5  -3   6  139.89   38.11
   5   3  -5  204.03   29.22
   5   3  -5  185.02   23.46
  -5  -3   5  218.52   41.39
   5   3  -4    6.26    6.75
   5   3  -4    7.52    2.75
  -5  -3   4    8.87    9.57
   5   3  -3   98.42   16.14
   5   3  -3   84.23    8.36
  -5  -3   3   70.39   10.62
  -5  -3   3   95.52   13.14
   5   3  -2  134.04   18.04
  -5  -3   2  153.60   19.89
  -5  -3   2  191.26   30.43
  -5  -3   1    1.13    3.19
  -5  -3   1    1.07    5.28
  -5  -3   1    0.58    2.24
  -5  -3   0    0.67    3.42
  -5  -3   0    0.38    4.83
  -5  -3  -1    1.44    3.08
  -5  -3  -1    0.72    5.03
   5   3   2    3.50    4.87
  -5  -3  -2    2.23    5.72
   5   3   3    4.30    4.28
  -5  -3  -3    0.97    4.97
   5   3   4   -0.13    1.50
  -5  -3  -4    0.56    1.81
   5   4 -12    8.04    2.65
   5   4 -11    2.94    3.82
  -5  -4  11    2.97    6.55
   5   4 -10   15.66    7.36
   5   4 -10    5.53    3.21
  -5  -4  10   19.44    9.63
   5   4  -9   -0.26    3.30
   5   4  -9    0.36    1.72
  -5  -4   9    0.33    4.45
   5   4  -8  153.72   26.53
   5   4  -8  177.33   27.87
  -5  -4   8  186.60   38.37
   5   4  -7    3.26    5.16
   5   4  -7    3.15    5.97
  -5  -4   7    0.51    9.03
   5   4  -6    2.11    4.22
   5   4  -6    1.80    5.53
  -5  -4   6    2.35    6.59
   5   4  -5   68.54   12.46
   5   4  -5   77.38   17.90
  -5  -4   5   65.72   17.64
   5   4  -4  178.61   20.72
   5   4  -4  220.17   29.65
  -5  -4   4  222.79   32.44
   5   4  -3   25.56    4.92
   5   4  -3   35.30    9.77
  -5  -4   3   40.19    8.80
   5   4  -2    0.32    1.48
  -5  -4   2    0.18    4.21
  -5  -4   2    0.65    2.58
   5   4  -1   -0.01    1.00
  -5  -4   1   -0.05    2.42
   5   4   0   -0.38    1.60
  -5  -4   0    0.56    1.98
   5   4   1    2.79    4.12
  -5  -4  -1    0.48    2.68
   5   4   2    0.17    1.81
  -5  -4  -2   -0.02    1.23
   5   4   3    1.68    3.15
  -5  -4  -3    2.76    3.58
   5   5 -11   -0.10    1.52
  -5  -5  11    0.12    1.28
   5   5 -10   66.14   13.04
   5   5 -10   35.18    9.14
  -5  -5  10   43.83   12.63
   5   5  -9   81.91   11.96
   5   5  -9  101.95   17.01
  -5  -5   9   82.17   17.46
   5   5  -8    8.58    8.28
   5   5  -8   15.19    7.73
  -5  -5   8   11.76    5.10
   5   5  -7   42.44   11.25
   5   5  -7   43.28   13.50
  -5  -5   7   33.46   11.47
   5   5  -6    5.58    2.86
   5   5  -6    5.92    4.31
  -5  -5   6    3.26    5.02
   5   5  -5   47.37    8.99
   5   5  -5   66.58   15.17
  -5  -5   5   57.39    9.89
  -5  -5   4    3.72    6.16
  -5  -5   4    5.86    4.14
   5   5  -3   73.59   12.61
  -5  -5   3  106.86   15.24
  -5  -5   3   75.49   16.47
   5   5  -2   44.35    7.08
  -5  -5   2   45.30   14.00
  -5  -5   2   22.82    8.70
   5   5  -1    6.69    5.37
  -5  -5   1    3.04    6.24
   5   5   0    4.16    4.15
  -5  -5   0    2.81    3.10
   5   5   1   15.21    6.81
  -5  -5  -1   12.26    4.45
   5   5   2    6.87    2.71
  -5  -5  -2    3.81    4.36
   5   6 -11    5.45    4.92
   5   6 -10    1.03    2.70
  -5  -6  10    0.33    2.27
   5   6  -9   15.59    6.77
  -5  -6   9    9.60    4.23
   5   6  -8   11.00    5.80
  -5  -6   8    9.79    4.74
   5   6  -7   63.47   10.46
  -5  -6   7   42.38    9.86
  -5  -6   7   72.13   11.26
   5   6  -6    4.61    3.27
  -5  -6   6    3.21    4.31
  -5  -6   6    9.55    7.00
  -5  -6   5   39.91   11.30
  -5  -6   5   59.82   10.47
  -5  -6   4   28.61    6.74
  -5  -6   4   45.96    8.61
   5   6  -3    3.07    3.44
  -5  -6   3    1.22    4.79
  -5  -6   3    4.43    4.47
   5   6  -2   13.71    5.20
  -5  -6   2    9.33    3.74
  -5  -6   2    2.60    4.26
   5   6  -1   36.78    9.03
  -5  -6   1   23.36    8.77
   5   6   0    2.58    3.04
  -5  -6   0    0.31    3.37
   5   7 -10   25.08    4.98
   5   7  -9   17.97    5.86
  -5  -7   9   10.11    6.98
   5   7  -8    0.09    1.74
  -5  -7   8    0.51    1.81
  -5  -7   7    5.51    4.21
  -5  -7   6   -0.12    2.61
  -5  -7   5    4.14    5.19
  -5  -7   4    0.01    1.46
   5   7  -3   14.25    4.56
  -5  -7   3   17.58    4.14
   5   7  -2    9.87    3.42
  -5  -7   2    1.64    2.96
  -5  -8   8   19.57    7.43
  -5  -8   7   11.39    6.05
  -5  -8   6    1.00    1.58
  -5  -8   5    2.63    2.05
  -6   9   0   40.39   10.13
  -6   9  -1    0.67    1.57
  -6   9  -2   13.55    3.67
   6  -8  -3   11.48    5.33
  -6   8   3    9.96    4.71
   6  -8  -2   -0.09    1.59
  -6   8   2    0.41    2.07
   6  -8  -1   10.68    4.46
  -6   8   1   16.74    7.82
   6  -8   0    0.21    1.18
  -6   8   0   -0.00    2.67
   6  -8   1    3.55    4.41
  -6   8  -1   14.28    6.52
   6  -8   2    1.88    2.22
  -6   8  -2    3.57    4.12
  -6   8  -3    5.02    2.86
  -6   8  -3    2.88    4.34
  -6   8  -4    0.76    1.53
  -6   8  -4    0.06    1.74
   6  -7  -5    3.60    4.56
   6  -7  -4    0.36    3.12
  -6   7   4    0.68    2.12
   6  -7  -3    1.23    3.63
  -6   7   3    1.19    3.46
   6  -7  -1   -0.23    0.81
   6  -7  -1    0.14    0.94
  -6   7   1    0.51    1.67
   6  -7   0    0.08    1.07
  -6   7   0   -0.09    2.62
  -6   7  -1   21.78    5.79
  -6   7  -1   22.59    6.89
  -6   7  -2   18.18    7.72
  -6   7  -2   14.03    8.26
  -6   7  -3   -0.68    2.31
  -6   7  -3    0.39    2.23
  -6   7  -4   15.87    6.14
  -6   7  -4    5.07    5.31
  -6   7  -5   -0.07    0.44
  -6   7  -5    0.59    1.35
   6  -6  -6   16.65    7.56
   6  -6  -5    0.78    3.88
   6  -6  -4   67.85   14.49
  -6   6   4   42.36   10.38
   6  -6  -3    5.57    5.58
  -6   6   3    4.49    4.99
   6  -6  -2    4.16    3.49
   6  -6  -2    6.21    4.82
  -6   6   2    5.16    5.75
   6  -6  -1  140.24   18.94
   6  -6  -1  189.55   25.10
  -6   6   1  203.26   30.44
  -6   6   0    3.19    6.49
  -6   6  -1   28.43   10.12
  -6   6  -1   28.10   12.14
  -6   6  -2   25.47    6.40
  -6   6  -2   20.15   10.16
  -6   6  -3   16.13    7.84
  -6   6  -3    9.18    7.74
  -6   6  -4   10.06    3.71
  -6   6  -4    6.55    3.33
  -6   6  -5    0.51    2.32
  -6   6  -5    4.11    3.31
   6  -5  -8    1.40    1.69
   6  -5  -7    0.77    3.29
   6  -5  -6    1.47    2.71
   6  -5  -5    0.41    3.73
   6  -5  -4   46.50   12.79
  -6   5   4   31.03    9.27
   6  -5  -3    0.01    1.72
   6  -5  -3    0.87    3.06
  -6   5   3    0.98    2.90
   6  -5  -2    4.59    5.24
   6  -5  -2    6.85    2.93
  -6   5   2    6.74    6.77
   6  -5  -1   78.03   10.66
   6  -5  -1   42.57    9.76
  -6   5   1   76.12   17.01
  -6   5   0   15.09    8.96
  -6   5   0   12.20    5.75
  -6   5  -1  594.75   72.39
  -6   5  -1  553.79   64.15
  -6   5  -2    5.22    5.99
  -6   5  -2    3.74    6.29
  -6   5  -3    9.16    3.78
  -6   5  -3    5.08    4.19
  -6   5  -4   38.92    9.30
  -6   5  -4   25.83   10.04
   6  -5   5    0.25    1.36
  -6   5  -5    1.64    1.98
   6  -4  -8    3.18    4.57
   6  -4  -7   11.69    5.00
   6  -4  -6    0.52    2.25
   6  -4  -5   20.94    8.99
   6  -4  -5    8.67    3.58
   6  -4  -4   51.01   13.07
   6  -4  -4   35.24    4.99
  -6   4   4   35.91    9.02
   6  -4  -3   -0.62    2.12
   6  -4  -3   -0.33    2.96
  -6   4   3    0.06    2.77
   6  -4  -2    5.52    4.59
   6  -4  -2    3.44    4.36
  -6   4   2    3.88    5.46
   6  -4  -1    3.66    3.40
  -6   4   1    4.54    5.85
  -6   4   0   82.56   17.32
  -6   4   0   65.50   11.19
  -6   4  -1  101.14   17.79
  -6   4  -1   91.44   19.21
  -6   4  -2    4.07    4.84
  -6   4  -2    2.75    5.88
  -6   4  -3  202.37   25.16
  -6   4  -3  150.43   21.87
   6  -4   4    0.12    1.52
  -6   4  -4    1.64    1.88
  -6   4  -5    0.28    1.85
   6  -3  -9    0.84    1.64
  -6   3   9   -0.05    3.29
   6  -3  -8   16.35    8.08
  -6   3   8    8.19    8.43
   6  -3  -7   14.97    8.40
  -6   3   7    5.58    8.28
   6  -3  -6  130.53   21.32
   6  -3  -6   71.46   10.25
  -6   3   6   92.93   18.18
   6  -3  -5   16.51    9.08
   6  -3  -5   11.66    4.67
   6  -3  -4   80.85   11.72
   6  -3  -4   94.80   12.49
  -6   3   4   61.82   11.26
   6  -3  -3   26.31    5.03
   6  -3  -3   23.90    8.69
  -6   3   3   20.31    7.59
   6  -3  -2   44.16    9.82
   6  -3  -2   30.59    5.73
  -6   3   2   36.20    9.63
   6  -3  -1    3.37    2.96
  -6   3   1    1.72    4.63
   6  -3   0    2.03    3.23
  -6   3   0   10.20    5.63
  -6   3  -1   13.23    4.50
  -6   3  -1    4.65    8.08
  -6   3  -2   46.69   13.41
   6  -3   3    1.66    2.14
  -6   3  -3    7.29    5.36
  -6   3  -4    3.94    4.36
  -6   3  -5    1.36    2.46
   6  -2 -10    0.48    1.98
  -6   2  10    1.16    3.96
   6  -2  -9   36.79   11.41
  -6   2   9   45.97   14.00
   6  -2  -8  111.71   21.57
  -6   2   8  120.68   23.73
   6  -2  -7    0.78    2.60
   6  -2  -7    2.83    3.25
  -6   2   7    2.93    5.71
   6  -2  -6  109.58   20.24
   6  -2  -6   88.20   13.16
  -6   2   6  113.60   23.79
   6  -2  -5   69.04   15.72
   6  -2  -5   61.29   10.76
  -6   2   5   61.30   17.17
   6  -2  -4  112.09   14.17
   6  -2  -4  112.42   18.02
  -6   2   4   93.55   13.69
  -6   2   4   70.39   10.65
   6  -2  -3  130.07   16.61
   6  -2  -3  106.25   16.22
  -6   2   3   92.13   18.50
  -6   2   3   87.12   10.43
   6  -2  -2  207.82   22.74
   6  -2  -2  127.29   16.39
  -6   2   2  117.16   18.00
  -6   2   2  159.13   20.62
   6  -2  -1    2.43    2.97
  -6   2   1    0.35    2.45
  -6   2   1    0.52    2.16
   6  -2   0    6.30    4.42
  -6   2   0    2.41    3.34
   6  -2   1   23.57    7.26
  -6   2  -1   18.56    9.77
   6  -2   2   23.23    6.63
  -6   2  -2   27.51   11.16
  -6   2  -3   53.79    9.29
  -6   2  -4    2.04    2.61
  -6   2  -5   -0.11    1.52
   6  -1 -10    4.30    4.56
  -6   1  10   13.75    9.42
   6  -1  -9   34.83   13.09
  -6   1   9   39.16   16.12
   6  -1  -8    6.77    7.35
   6  -1  -8    4.56    4.85
  -6   1   8    9.61    9.40
   6  -1  -7  142.14   18.20
   6  -1  -7  114.59   17.38
  -6   1   7  146.52   29.33
   6  -1  -6   53.18   13.99
   6  -1  -6   53.37   10.62
  -6   1   6   65.37   14.09
   6  -1  -5    3.79    3.98
   6  -1  -5    3.50    5.34
  -6   1   5    3.58    8.35
   6  -1  -4   85.12   11.68
   6  -1  -4   78.03    9.90
  -6   1   4   75.97   20.11
  -6   1   4   48.91    6.66
   6  -1  -3  454.70   45.95
   6  -1  -3  348.15   39.55
  -6   1   3  421.32   54.38
  -6   1   3  327.31   32.93
   6  -1  -2   39.35    8.26
   6  -1  -2   22.61    7.51
  -6   1   2   29.20   10.27
  -6   1   2   30.30    9.05
   6  -1  -1    6.49    2.55
  -6   1   1    3.66    5.12
  -6   1   1    4.43    3.26
   6  -1   0    2.22    2.64
  -6   1   0    1.87    4.57
  -6   1   0    0.57    3.76
   6  -1   1   -0.05    0.68
  -6   1  -1    0.47    1.36
  -6   1  -1    0.04    1.83
  -6   1  -2   17.13    6.98
  -6   1  -2    6.58    3.33
  -6   1  -3   63.87   13.08
  -6   1  -3   17.88    8.25
  -6   1  -4    6.95    5.75
   6  -1   5   -0.20    0.73
  -6   0  11   10.13   10.58
   6   0 -10    3.15    2.96
  -6   0  10    7.58    9.25
   6   0  -9   13.26    5.87
   6   0  -9   14.30    8.65
  -6   0   9   27.33   15.31
   6   0  -8   85.80   21.38
   6   0  -8   76.10   15.86
  -6   0   8   93.64   28.45
   6   0  -7    7.28    8.07
   6   0  -7    6.73    6.03
  -6   0   7    8.39    7.61
   6   0  -6    0.34    2.59
   6   0  -6    0.38    2.02
  -6   0   6    1.72    6.26
   6   0  -5   24.27    7.34
   6   0  -5   21.07    9.22
  -6   0   5   24.51   16.97
   6   0  -4    4.68    4.09
   6   0  -4    3.61    3.40
  -6   0   4    4.60   10.16
   6   0  -3   40.92    7.69
   6   0  -3   28.58    5.69
  -6   0   3   30.23    8.05
  -6   0   3   38.97    9.66
   6   0  -2   43.86    7.46
   6   0  -2   25.42    7.03
  -6   0   2   38.63    9.96
  -6   0   2   36.87   12.10
   6   0  -1  139.11   16.32
  -6   0   1  143.97   17.06
  -6   0   1  138.87   23.27
   6   0   0    6.45    2.97
  -6   0   0    8.96    3.92
  -6   0   0    9.88    4.60
  -6   0  -1    1.35    2.52
  -6   0  -1    0.59    2.54
  -6   0  -2   95.18   19.28
  -6   0  -2   57.87   14.96
  -6   0  -3    0.56    3.46
  -6   0  -3    0.71    3.01
  -6   0  -4    0.19    2.07
  -6   0  -4   -0.00    1.37
   6   1 -11    0.46    1.05
  -6  -1  11    2.05    3.28
   6   1 -10    1.07    2.60
   6   1 -10    0.36    1.93
  -6  -1  10    3.01    6.74
   6   1  -9    0.44    2.89
   6   1  -9   -0.03    3.95
  -6  -1   9    2.24    6.75
   6   1  -8   81.94   18.15
   6   1  -8   74.88   18.76
  -6  -1   8   95.44   31.16
   6   1  -7  154.11   27.06
   6   1  -7  144.98   17.04
  -6  -1   7  183.89   29.46
   6   1  -6  159.13   25.59
   6   1  -6  187.08   26.30
  -6  -1   6  197.48   44.00
   6   1  -5   79.73   16.82
   6   1  -5   93.04   14.60
  -6  -1   5  102.99   21.44
   6   1  -4   77.69   11.78
   6   1  -4   85.53   13.11
  -6  -1   4   90.16   27.34
   6   1  -3  156.35   14.93
   6   1  -3  121.94   18.52
  -6  -1   3  121.40   17.65
  -6  -1   3  161.38   20.96
   6   1  -2    1.66    2.12
   6   1  -2    0.78    2.47
  -6  -1   2    1.23    3.47
  -6  -1   2    1.00    5.23
   6   1  -1    6.74    1.95
  -6  -1   1    8.81    6.44
  -6  -1   1    8.74    8.06
  -6  -1   0   19.72    6.29
  -6  -1   0    8.78   10.81
  -6  -1  -1    2.21    2.75
  -6  -1  -1    0.51    5.00
  -6  -1  -2    0.29    2.82
  -6  -1  -2   -0.54    2.59
  -6  -1  -3    5.57    5.92
  -6  -1  -3    2.01    4.42
   6   1   4   15.51    6.72
  -6  -1  -4   20.12    6.28
   6   2 -11    0.74    1.30
   6   2 -11    0.96    2.30
  -6  -2  11    4.44    5.99
   6   2 -10    5.87    5.45
   6   2 -10    4.45    5.24
  -6  -2  10   11.36   11.57
   6   2  -9   47.07   13.11
   6   2  -9   39.95   13.92
  -6  -2   9   54.90   24.10
   6   2  -8   36.48   13.74
   6   2  -8   36.95    8.79
   6   2  -7   28.29   13.41
   6   2  -7   34.10   12.99
  -6  -2   7   29.77   13.36
   6   2  -6   96.65   21.04
   6   2  -6   98.45   17.73
  -6  -2   6  114.32   24.22
   6   2  -5  592.72   73.87
   6   2  -5  622.91   64.16
  -6  -2   5  682.52   99.33
   6   2  -4   51.48   12.92
   6   2  -4   57.39   10.14
  -6  -2   4   60.94   19.99
   6   2  -3    1.03    2.92
   6   2  -3    1.21    1.95
  -6  -2   3    0.42    1.31
  -6  -2   3    1.31    4.71
   6   2  -2   82.82   13.13
  -6  -2   2  132.24   14.33
  -6  -2   2  184.39   22.03
  -6  -2   1  145.19   22.25
  -6  -2   1  193.25   34.19
  -6  -2   0    2.90    3.22
  -6  -2   0    2.63    7.05
  -6  -2  -1    1.11    2.62
  -6  -2  -1    1.79    4.86
   6   2   2    0.41    1.62
  -6  -2  -2   -0.15    3.26
   6   2   3    0.37    1.64
  -6  -2  -3    1.52    3.27
   6   3 -11    6.79    4.53
   6   3 -11    2.73    3.20
  -6  -3  11   15.46    9.13
   6   3 -10   40.91   11.53
   6   3 -10   32.22   10.38
  -6  -3  10   48.80   19.29
   6   3  -9   24.91   10.62
   6   3  -9   21.81   10.29
  -6  -3   9   22.07   17.66
   6   3  -8   64.79   11.08
   6   3  -8   53.41   16.55
  -6  -3   8   72.44   18.66
   6   3  -7  152.53   28.28
   6   3  -7  181.11   21.80
  -6  -3   7  173.89   40.94
   6   3  -6   10.37    9.36
   6   3  -6   13.76    8.54
  -6  -3   6   10.82   12.75
   6   3  -5   24.21   11.29
   6   3  -5   29.70    9.86
  -6  -3   5   25.56   14.32
   6   3  -4    2.34    4.92
   6   3  -4    3.71    4.11
  -6  -3   4    3.85    6.56
   6   3  -3  170.79   18.54
  -6  -3   3  147.55   18.45
  -6  -3   3  262.52   36.69
  -6  -3   2    0.36    2.55
  -6  -3   2    0.93    4.61
  -6  -3   1   41.89   13.21
  -6  -3   1   37.46   16.12
   6   3   0    0.06    4.78
  -6  -3   0   74.03    8.99
   6   3   1    7.93    5.91
  -6  -3  -1    5.72    4.23
   6   3   2    1.17    3.42
  -6  -3  -2    1.68    2.33
   6   4 -11   -0.17    1.68
   6   4 -11    0.05    1.15
  -6  -4  11   -0.27    2.39
   6   4 -10    1.90    4.21
   6   4 -10    5.17    5.21
  -6  -4  10    3.14    7.13
   6   4  -9    2.22    4.81
   6   4  -9    1.76    4.46
  -6  -4   9    0.77    6.78
   6   4  -8   87.58   18.01
   6   4  -8   76.40   18.99
  -6  -4   8   85.06   22.79
   6   4  -7   10.99    7.14
   6   4  -7    9.07    9.33
  -6  -4   7   11.41   10.43
   6   4  -6  130.58   19.11
   6   4  -6  137.02   18.41
  -6  -4   6  132.38   25.66
   6   4  -5    9.23    4.82
   6   4  -5    8.13    7.63
  -6  -4   5    9.03    8.14
   6   4  -4    0.18    2.23
  -6  -4   4    0.04    1.92
   6   4  -3    9.05    4.85
  -6  -4   3   21.06    9.92
  -6  -4   3    5.29    5.92
   6   4  -2   50.85   11.64
  -6  -4   2   59.04   12.46
   6   4  -1   34.77    7.46
  -6  -4   1   38.15   13.58
   6   4   0    0.43    2.31
  -6  -4   0   -0.17    2.72
   6   4   1    2.26    3.31
  -6  -4  -1    2.41    4.19
   6   5 -11   13.95    5.40
   6   5 -10    1.87    2.56
  -6  -5  10    0.07    2.23
  -6  -5  10    0.10    1.39
   6   5  -9    1.91    4.64
   6   5  -9    3.63    4.61
  -6  -5   9    2.55    4.22
   6   5  -8   75.78    9.99
   6   5  -8   71.67   15.99
  -6  -5   8   51.83   12.37
   6   5  -7   55.23   11.07
   6   5  -7   60.69   14.96
  -6  -5   7   43.69   11.68
   6   5  -6   -0.05    1.34
   6   5  -6    0.33    1.44
  -6  -5   6   -0.32    2.23
  -6  -5   5    3.85    5.96
  -6  -5   5    4.44    3.87
  -6  -5   4   26.98    7.37
  -6  -5   4   15.23    8.99
   6   5  -3    5.39    2.08
  -6  -5   3    5.67    6.75
  -6  -5   3    2.98    4.24
   6   5  -2    0.45    1.10
  -6  -5   2   -0.12    1.76
   6   5  -1   14.65    5.59
  -6  -5   1   14.02    7.34
   6   5   0   18.43    6.15
  -6  -5   0   11.64    6.66
   6   6 -10    0.25    1.86
  -6  -6  10    0.52    2.05
   6   6  -9    0.40    1.25
  -6  -6   9   -0.07    0.99
  -6  -6   9   -0.29    1.93
   6   6  -8   -0.14    1.32
  -6  -6   8    0.02    1.32
  -6  -6   8   -0.12    2.22
   6   6  -7    0.60    1.58
  -6  -6   7    0.32    2.16
  -6  -6   7    0.54    3.60
  -6  -6   6   18.30    7.58
  -6  -6   6   21.79    9.80
  -6  -6   5   33.14    9.73
  -6  -6   5   43.01   11.75
  -6  -6   4    2.91    3.43
  -6  -6   4    0.85    3.46
   6   6  -3    3.60    2.88
  -6  -6   3    8.62    2.97
  -6  -6   3    1.89    3.08
   6   6  -2    0.95    1.94
  -6  -6   2    0.90    2.55
  -6  -7   8    8.05    3.48
  -6  -7   7    8.44    5.36
  -6  -7   6    1.06    3.00
  -6  -7   5    1.85    1.67
  -7   8   1    4.94    4.23
   7  -8   0    0.23    1.13
  -7   8   0    1.19    2.43
   7  -8   1    4.82    2.93
  -7   8  -1    4.24    2.78
   7  -8   2    1.23    2.15
  -7   8  -2    0.83    1.62
   7  -7  -4    1.61    3.14
   7  -7  -3    1.66    3.03
  -7   7   3    2.25    2.81
   7  -7  -2    0.47    2.07
   7  -7  -2    0.32    1.40
  -7   7   2    2.16    1.79
   7  -7  -1   14.16    4.76
  -7   7   1   22.98    7.73
   7  -7   0    1.10    2.65
  -7   7   0    1.41    3.70
   7  -7   1    2.68    2.21
  -7   7  -1    1.79    4.54
   7  -7   2    1.05    2.84
  -7   7  -2    0.76    3.24
   7  -7   3    1.31    3.51
  -7   7  -3    3.56    3.33
   7  -6  -6   28.75    8.67
   7  -6  -5    3.89    4.91
   7  -6  -4    3.26    2.57
  -7   6   4    0.91    2.56
   7  -6  -3    0.88    1.66
   7  -6  -3    0.45    1.60
  -7   6   3    0.50    1.56
   7  -6  -2   31.16    4.98
   7  -6  -2   20.61    7.43
  -7   6   2   37.12    6.68
   7  -6  -1    4.09    4.10
  -7   6   1    4.10    5.30
   7  -6   0   -1.09    2.62
  -7   6   0   -0.04    1.93
   7  -6   1   14.21    7.25
  -7   6  -1    8.93    4.81
   7  -6   2    0.37    1.79
  -7   6  -2    0.51    3.06
   7  -6   3    2.19    3.78
  -7   6  -3    1.97    3.80
   7  -6   4    0.32    0.99
  -7   6  -4    0.22    1.51
   7  -5  -7   24.42    8.43
   7  -5  -6    9.37    6.95
   7  -5  -5    4.09    5.68
   7  -5  -4    1.21    2.11
   7  -5  -4    0.53    1.85
  -7   5   4    0.39    2.16
   7  -5  -3    0.94    2.14
   7  -5  -3    0.87    2.98
  -7   5   3    0.27    2.79
   7  -5  -2   29.86    8.09
  -7   5   2   25.24    9.48
   7  -5  -1    1.58    3.81
  -7   5   1    2.08    4.49
   7  -5   0   31.97    9.67
  -7   5   0   26.07   11.48
   7  -5   1   28.34   10.01
  -7   5  -1   21.25   10.83
   7  -5   2    3.61    4.66
  -7   5  -2    2.06    4.92
   7  -5   3   96.17   16.70
  -7   5  -3   74.71   18.93
   7  -5   4    0.61    1.51
  -7   5  -4    0.30    1.92
   7  -4  -8    1.23    3.48
   7  -4  -7   16.86    8.15
   7  -4  -6    5.54    4.08
   7  -4  -5   37.27   11.14
   7  -4  -5   22.04    5.77
   7  -4  -4    0.05    3.16
   7  -4  -4    0.16    2.05
  -7   4   4    0.61    1.25
   7  -4  -3    1.70    3.02
   7  -4  -3    1.38    2.08
  -7   4   3    0.95    3.26
   7  -4  -2   16.75    4.62
  -7   4   2   15.26    4.96
   7  -4  -1    2.48    4.30
  -7   4   1    2.11    4.90
   7  -4   0   15.72    7.16
  -7   4   0    9.55    8.51
   7  -4   1    0.09    1.96
  -7   4  -1    0.07    2.46
   7  -4   2    2.97    3.52
  -7   4  -2    1.48    5.24
   7  -4   3   18.56    5.89
  -7   4  -3   19.36    8.50
  -7   4  -4    0.40    2.13
   7  -3  -9    4.57    5.03
   7  -3  -8   15.05    7.32
  -7   3   8    5.57    5.75
   7  -3  -7    2.66    2.95
   7  -3  -7    9.20    3.77
   7  -3  -6    4.25    5.55
   7  -3  -6    2.34    3.10
   7  -3  -5   39.50    6.26
   7  -3  -5   42.31   12.58
   7  -3  -4   61.09   10.06
   7  -3  -4   55.19   12.18
  -7   3   4   34.67    6.08
   7  -3  -3    0.50    2.35
   7  -3  -3    0.37    2.30
  -7   3   3    0.25    1.51
   7  -3  -2   10.02    5.81
  -7   3   2    6.30    6.37
   7  -3  -1   14.59    6.63
  -7   3   1    8.81    7.91
   7  -3   0   32.89    8.95
  -7   3   0   25.74   11.03
   7  -3   1    1.77    3.03
  -7   3  -1    1.04    4.80
   7  -3   2    0.42    1.73
  -7   3  -2    0.22    1.86
  -7   3  -3   -0.25    2.61
  -7   3  -4    2.66    3.17
   7  -2  -9    6.55    5.94
  -7   2   9    3.41    3.59
   7  -2  -8    0.38    3.38
   7  -2  -8    0.26    1.77
  -7   2   8    0.57    3.65
   7  -2  -7   42.79   12.13
   7  -2  -7   33.71    8.43
  -7   2   7   30.72    8.64
   7  -2  -6  123.73   21.34
   7  -2  -6  130.25   17.86
  -7   2   6  112.72   24.39
   7  -2  -5    0.97    3.72
   7  -2  -5    0.89    1.77
  -7   2   5    0.89    4.24
   7  -2  -4   96.50   13.35
   7  -2  -4   69.92   13.47
  -7   2   4   57.99    9.80
  -7   2   4   40.84    9.77
   7  -2  -3    1.66    2.98
   7  -2  -3    0.19    3.13
  -7   2   3    0.89    3.05
   7  -2  -2  115.71   13.48
  -7   2   2   87.28   16.78
   7  -2  -1   40.34    9.52
  -7   2   1   34.27   11.51
   7  -2   0   52.02   10.59
  -7   2   0   56.35   15.45
   7  -2   1    1.65    2.42
  -7   2  -1    2.25    4.69
  -7   2  -2   -0.67    3.63
  -7   2  -3    0.81    3.48
  -7   2  -4    0.81    2.46
   7  -1 -10    2.74    4.19
  -7   1  10    2.76    6.19
   7  -1  -9    7.61    4.16
   7  -1  -9   13.73    4.85
  -7   1   9   12.90   10.84
   7  -1  -8    6.67    5.56
   7  -1  -8    7.79    5.53
  -7   1   8    8.62   10.26
   7  -1  -7   82.53   18.72
   7  -1  -7   78.86   14.89
  -7   1   7   79.94   15.80
   7  -1  -6    8.06    8.04
   7  -1  -6   13.03    6.17
  -7   1   6   10.33   12.29
   7  -1  -5  138.34   24.26
   7  -1  -5  154.25   20.97
  -7   1   5  133.00   29.60
   7  -1  -4  129.99   18.32
   7  -1  -4   98.46   18.73
  -7   1   4  104.28   22.52
   7  -1  -3    0.67    3.06
   7  -1  -3    3.28    3.32
  -7   1   3    1.85    3.51
  -7   1   3    1.59    4.13
   7  -1  -2   64.81    8.15
  -7   1   2   58.09   13.62
  -7   1   2   41.02   12.00
   7  -1  -1   91.98   13.25
  -7   1   1  101.81   13.68
  -7   1   1   56.47   14.75
   7  -1   0   16.00    3.23
  -7   1   0   23.65    8.35
  -7   1   0    4.84    6.87
  -7   1  -1    9.55    4.11
  -7   1  -1    0.97    4.14
  -7   1  -2    3.73    5.85
  -7   1  -3   -0.28    2.46
   7  -1   4   -0.11    0.78
   7   0 -10   31.40    7.51
   7   0 -10   24.49    6.51
  -7   0  10   68.53   11.53
   7   0  -9   13.41    6.23
   7   0  -9   17.11    9.90
  -7   0   9   17.90   14.19
   7   0  -8   -0.72    3.86
   7   0  -8   -0.02    3.26
  -7   0   8   -0.66    3.54
   7   0  -7   82.77   17.85
   7   0  -7   90.50   16.48
  -7   0   7   92.51   28.28
   7   0  -6   51.05   11.14
   7   0  -6   37.22   13.01
  -7   0   6   53.02   22.93
   7   0  -5    5.31    6.65
   7   0  -5    8.89    3.64
  -7   0   5    5.76   11.39
   7   0  -4    9.12    5.26
   7   0  -4    6.31    6.50
  -7   0   4    7.94    8.85
   7   0  -3   79.98   11.30
   7   0  -3   32.46    9.01
  -7   0   3   47.04    7.12
  -7   0   3   63.74   14.69
   7   0  -2    0.90    2.03
  -7   0   2   -0.55    2.59
  -7   0   2    0.65    2.10
   7   0  -1    1.29    2.01
  -7   0   1    0.84    3.97
  -7   0   1    0.73    2.58
  -7   0   0   23.68    9.60
  -7   0   0    7.08    8.48
  -7   0  -1   54.94   12.06
  -7   0  -1   27.02    7.00
  -7   0  -2    2.20    2.51
  -7   0  -2    0.04    3.03
  -7   0  -3    0.36    2.40
  -7   0  -3    0.09    1.23
  -7  -1  11    6.76    9.42
   7   1 -10    1.42    3.34
   7   1 -10    2.30    2.40
  -7  -1  10    3.97    8.59
   7   1  -9   18.08    8.01
   7   1  -9   17.87    6.34
  -7  -1   9   25.28   16.24
   7   1  -8    2.30    7.44
   7   1  -8    4.00    5.97
  -7  -1   8    5.94   11.76
   7   1  -7    1.32    3.87
   7   1  -7    1.16    5.04
  -7  -1   7   -0.54    8.57
   7   1  -6    8.44    8.44
   7   1  -6   13.69    7.94
  -7  -1   6   12.33   14.10
   7   1  -5    1.79    5.11
   7   1  -5    2.82    3.85
  -7  -1   5    2.85    8.23
   7   1  -4   65.84   14.14
   7   1  -4  104.17   14.63
  -7  -1   4   87.75   20.38
   7   1  -3    9.68    5.79
   7   1  -3   19.67    5.71
  -7  -1   3   15.84    6.88
  -7  -1   3   21.86   10.67
   7   1  -2    1.69    2.71
  -7  -1   2    3.92    4.73
  -7  -1   2    4.54    3.82
  -7  -1   1    3.45    4.54
  -7  -1   1    2.60    6.26
  -7  -1   0    2.73    4.76
  -7  -1   0    1.62    4.95
  -7  -1  -1    1.85    4.30
  -7  -1  -1    1.23    3.73
   7   1   2    0.27    2.02
  -7  -1  -2    3.42    2.81
  -7  -1  -2    2.36    3.09
   7   2 -11   18.03    5.23
   7   2 -11    9.52    4.91
  -7  -2  11   34.48   11.78
   7   2 -10   56.25   12.11
   7   2 -10   48.14   12.29
  -7  -2  10   81.55   23.50
   7   2  -9    2.82    4.54
   7   2  -9    0.56    4.87
  -7  -2   9    3.36    9.22
   7   2  -8    3.73    4.19
   7   2  -8    8.35    6.87
  -7  -2   8    7.81   11.87
   7   2  -7    3.65    4.12
   7   2  -7    7.26    6.86
  -7  -2   7    2.64   11.15
   7   2  -6   21.08   10.48
   7   2  -6   22.55    8.75
  -7  -2   6   23.09   15.74
   7   2  -5   20.75    9.65
   7   2  -5   24.14    8.22
  -7  -2   5   27.24   14.19
   7   2  -4   35.33   10.47
   7   2  -4   47.00    9.50
  -7  -2   4   50.80   16.47
   7   2  -3  111.39   14.72
  -7  -2   3   87.40   13.91
  -7  -2   3  187.36   28.64
  -7  -2   2   28.58    9.22
  -7  -2   2   46.46   10.61
  -7  -2   1    0.77    2.04
  -7  -2   1    1.55    4.97
  -7  -2   0   35.89   12.47
  -7  -2   0   28.77   12.18
   7   2   1   25.15    5.79
  -7  -2  -1   23.09    9.71
   7   2   2   -0.19    1.44
  -7  -2  -2    0.02    0.92
   7   3 -10   21.04    5.10
   7   3 -10   12.20    7.44
  -7  -3  10   23.45   11.78
   7   3  -9   37.28   11.27
   7   3  -9   32.12    7.95
  -7  -3   9   39.31   16.38
   7   3  -8    7.44    6.32
   7   3  -8    4.55    7.25
  -7  -3   8    6.71    9.78
   7   3  -7   10.75    7.19
   7   3  -7    8.48    8.67
  -7  -3   7    9.56   10.40
   7   3  -6   25.95   11.01
   7   3  -6   25.85    6.26
  -7  -3   6   21.72   12.19
   7   3  -5   67.04   14.66
   7   3  -5   80.81   13.67
  -7  -3   5   76.30   13.26
   7   3  -4    4.66    4.67
  -7  -3   4    9.26    8.57
   7   3  -3    7.57    2.92
  -7  -3   3   27.47   10.56
   7   3  -2    1.54    1.92
  -7  -3   2    1.65    5.73
   7   3  -1   81.18   15.51
  -7  -3   1  101.41   16.06
   7   3   0    2.96    2.47
  -7  -3   0    2.21    2.81
   7   3   1    2.12    3.31
  -7  -3  -1    2.67    3.54
   7   4 -10    9.13    3.55
   7   4 -10    6.14    5.37
  -7  -4  10    9.38    6.23
   7   4  -9   18.60    7.65
   7   4  -9   15.45    8.06
  -7  -4   9   17.44    9.03
   7   4  -8    1.66    4.64
   7   4  -8    1.79    2.37
  -7  -4   8    1.50    4.50
   7   4  -7    3.02    3.94
   7   4  -7    1.36    5.14
  -7  -4   7    2.42    5.16
   7   4  -6   63.06   10.96
   7   4  -6   67.49   15.14
  -7  -4   6   75.19   18.48
  -7  -4   5   27.93    7.31
  -7  -4   5   -0.25    3.24
  -7  -4   4   57.82   10.51
  -7  -4   4   19.60    8.65
   7   4  -3    3.43    3.50
  -7  -4   3   18.90    7.91
   7   4  -2    0.32    2.07
  -7  -4   2    0.84    2.08
   7   4  -1    2.28    2.83
  -7  -4   1    3.52    4.34
   7   5  -9   41.56    7.45
  -7  -5   9   27.44    6.87
  -7  -5   9   32.18    6.35
   7   5  -8    1.25    1.42
  -7  -5   8    2.01    2.07
  -7  -5   8    1.97    2.59
   7   5  -7    0.44    0.93
  -7  -5   7    0.96    2.97
  -7  -5   7    1.24    2.06
  -7  -5   6   16.68    8.54
  -7  -5   6   15.88    8.07
  -7  -5   5    7.46    6.10
  -7  -5   5    3.09    4.88
  -7  -5   4    4.98    3.20
  -7  -5   4    0.92    2.84
  -7  -5   3   -0.40    2.63
  -7  -5   2    5.72    4.51
  -7  -6   7    1.91    3.64
  -7  -6   6    0.38    2.02
   8  -7  -1    1.27    1.61
  -8   7   1    0.94    2.70
   8  -6  -4   30.03    5.95
   8  -6  -3    4.47    1.64
  -8   6   3    4.78    2.13
   8  -6  -2    0.65    1.81
  -8   6   2    0.61    2.49
   8  -6  -1    4.29    3.21
  -8   6   1    2.98    4.44
   8  -6   0    8.66    2.64
  -8   6   0    3.00    5.29
   8  -6   1    0.93    2.21
  -8   6  -1    0.79    2.96
   8  -5  -6   37.68    9.20
   8  -5  -5   16.32    4.00
   8  -5  -5    9.82    4.02
   8  -5  -4    1.32    3.13
   8  -5  -4    1.92    2.49
  -8   5   4    2.88    2.25
   8  -5  -3    3.83    2.10
  -8   5   3    3.02    2.23
   8  -5  -2   13.46    3.43
  -8   5   2   12.19    4.13
   8  -5  -1    0.18    1.06
  -8   5   1   -0.11    2.26
   8  -5   0    5.72    3.93
  -8   5   0    2.41    4.94
   8  -5   1    0.03    1.72
  -8   5  -1    0.74    2.55
   8  -5   2    2.63    2.76
  -8   5  -2    4.33    3.70
   8  -4  -7    1.16    3.33
   8  -4  -6    1.78    3.00
   8  -4  -6    0.51    1.73
   8  -4  -5    2.62    3.58
   8  -4  -5    1.41    2.66
   8  -4  -4   26.96    7.72
   8  -4  -4   51.01    8.18
  -8   4   4   14.51    5.88
   8  -4  -3   31.61    7.42
  -8   4   3   14.96    6.86
   8  -4  -2    0.06    1.91
  -8   4   2    0.35    2.18
   8  -4  -1    1.20    2.84
  -8   4   1    0.85    3.48
   8  -4   0   -0.26    1.07
  -8   4   0    0.05    1.52
   8  -4   1    0.65    2.04
  -8   4  -1    0.81    1.92
  -8   4  -2    1.10    2.93
   8  -3  -8    6.23    4.50
   8  -3  -7    1.10    2.27
   8  -3  -7    1.28    2.35
   8  -3  -6    0.66    2.16
   8  -3  -6    0.92    2.66
   8  -3  -6    0.63    3.53
   8  -3  -5   17.60    8.62
   8  -3  -5   21.51    4.70
   8  -3  -4    0.21    1.59
   8  -3  -4   -0.25    1.52
   8  -3  -3   28.28    7.76
  -8   3   3   14.84    7.04
   8  -3  -2    3.57    2.31
  -8   3   2    1.19    4.46
   8  -3  -1    4.22    3.77
  -8   3   1    3.71    5.33
   8  -3   0   -0.08    3.53
  -8   3   0   26.67    6.22
   8  -3   1    1.05    1.59
  -8   3  -1   -0.32    3.00
  -8   3  -2    1.79    4.00
   8  -2  -8    4.33    4.01
   8  -2  -8    3.05    2.79
  -8   2   8    1.72    2.08
   8  -2  -7    0.48    3.10
   8  -2  -7    0.78    1.47
  -8   2   7    0.54    2.74
   8  -2  -6    0.04    2.31
   8  -2  -6   -0.30    1.90
  -8   2   6   -0.16    1.99
   8  -2  -5    6.95    5.90
   8  -2  -5   12.58    3.97
   8  -2  -4   62.58    8.49
   8  -2  -4   27.70    9.52
   8  -2  -3    1.87    3.13
  -8   2   3    0.50    2.68
   8  -2  -2   27.11    7.44
  -8   2   2   19.27    5.12
   8  -2  -1    3.07    3.11
  -8   2   1    1.71    4.11
   8  -2   0   20.59    4.19
  -8   2   0   27.21    8.75
  -8   2  -1    0.72    3.53
  -8   2  -2    1.62    1.96
   8  -1  -9   22.98    7.95
   8  -1  -9   13.85    3.29
  -8   1   9   19.11    7.98
   8  -1  -8   10.99    7.30
   8  -1  -8   11.28    5.79
  -8   1   8    6.37    7.56
   8  -1  -7    0.08    3.22
   8  -1  -7    0.36    1.55
  -8   1   7    0.77    3.45
   8  -1  -6    1.81    4.84
   8  -1  -6    3.53    4.75
  -8   1   6    1.59    4.86
   8  -1  -5   34.56   11.25
   8  -1  -5   52.83   10.80
  -8   1   5   31.02   10.44
   8  -1  -4    1.03    3.06
   8  -1  -4    3.10    3.72
  -8   1   4    1.37    2.29
   8  -1  -3   42.69    6.30
  -8   1   3   18.74    7.20
  -8   1   3   19.85    8.18
   8  -1  -2   61.18    8.39
  -8   1   2   57.12   12.22
  -8   1   2   25.33   10.15
   8  -1  -1    1.19    1.91
  -8   1   1    0.63    3.41
  -8   1   1    0.30    2.53
  -8   1   0   22.96    6.58
  -8   1  -1    1.55    3.57
  -8   1  -2    3.34    4.15
   8   0  -9    3.21    4.61
   8   0  -9    9.64    6.39
  -8   0   9    9.85    7.56
   8   0  -8  113.92   15.66
   8   0  -8  142.42   20.99
  -8   0   8  125.51   25.81
   8   0  -7   24.96    8.82
   8   0  -7   21.91    9.94
  -8   0   7   22.91   12.65
   8   0  -6   -0.25    1.25
   8   0  -6    0.22    2.15
  -8   0   6    0.41    1.57
   8   0  -5   38.51   10.67
   8   0  -5   62.77   11.58
  -8   0   5   47.10    9.32
   8   0  -4    3.70    2.84
   8   0  -4   17.11    5.27
  -8   0   4   13.88    6.98
   8   0  -3   15.00    5.33
  -8   0   3    5.48    5.81
  -8   0   3   12.98    4.67
   8   0  -2    4.57    2.94
  -8   0   2    3.18    4.84
  -8   0   2    1.62    5.05
  -8   0   1   23.59    5.28
  -8   0   1   12.02    8.11
  -8   0   0    1.27    2.97
  -8   0   0    0.14    2.06
  -8   0  -1   -0.24    1.05
  -8   0  -1   -0.01    0.57
   8   1  -9   19.23    7.47
   8   1  -9   15.84    8.32
  -8  -1   9   19.00    7.20
   8   1  -8    1.64    5.24
   8   1  -8    4.12    5.10
  -8  -1   8    3.47    7.27
   8   1  -7   18.31   10.40
   8   1  -7   35.42    7.67
  -8  -1   7   27.07   13.69
   8   1  -6   25.56   10.08
   8   1  -6   35.98    9.93
  -8  -1   6   32.77   12.54
   8   1  -5    0.48    3.49
   8   1  -5    2.55    3.53
  -8  -1   5    1.53    5.09
   8   1  -4    0.10    0.87
   8   1  -4    0.30    1.85
  -8  -1   4   -0.17    2.68
   8   1  -3    2.66    2.87
  -8  -1   3    1.59    2.92
  -8  -1   3    5.08    5.77
  -8  -1   2   14.20    6.02
  -8  -1   2   14.00    8.58
  -8  -1   1    0.66    1.68
  -8  -1   1    0.83    1.86
  -8  -1   0   -0.47    2.32
  -8  -1   0    0.47    1.67
   8   2  -9   24.53    6.20
   8   2  -9   31.73    9.27
  -8  -2   9   29.78    7.47
   8   2  -8  167.44   22.89
   8   2  -8  144.22   23.78
  -8  -2   8  158.76   27.77
   8   2  -7    0.94    2.46
   8   2  -7    2.54    3.91
  -8  -2   7    0.60    2.77
   8   2  -6    0.34    3.48
   8   2  -6    1.98    3.74
  -8  -2   6    1.86    4.94
   8   2  -5    0.55    2.88
   8   2  -5    2.23    3.31
  -8  -2   5    1.22    2.79
   8   2  -4   -0.06    1.32
  -8  -2   4   -0.04    2.54
   8   2  -3    0.52    1.11
  -8  -2   3    3.22    4.24
   8   2  -2    0.54    1.32
  -8  -2   2    1.71    3.85
   8   2  -1    3.99    3.95
  -8  -2   1    6.86    5.24
   8   3  -9   47.82   10.14
   8   3  -9   37.54   10.37
  -8  -3   9   37.59   10.76
   8   3  -8   10.09    5.61
   8   3  -8    5.56    6.16
  -8  -3   8    8.11    6.82
   8   3  -7   32.87    8.53
   8   3  -7   29.10    9.57
  -8  -3   7   30.81   11.08
   8   3  -6    2.48    3.35
   8   3  -6    2.29    3.93
  -8  -3   6    6.65    5.96
   8   3  -5    0.43    0.91
  -8  -3   5    1.20    3.54
  -8  -3   5    0.18    1.24
  -8  -3   4    2.71    5.72
   8   3  -3    1.18    1.32
  -8  -3   3   10.99    3.45
   8   3  -2    0.57    1.74
  -8  -3   2    1.43    3.23
   8   4  -8   11.32    4.56
  -8  -4   8   14.50    6.62
  -8  -4   8    9.89    3.98
   8   4  -7   12.14    4.50
  -8  -4   7   26.95    5.23
  -8  -4   7   13.79    4.58
  -8  -4   6    4.66    3.26
  -8  -4   6    1.45    3.69
  -8  -4   5    3.94    2.90
  -8  -4   5    1.25    2.02
  -8  -4   4    1.78    4.47
   9  -4  -5    1.21    1.42
   9  -4  -4    0.75    2.08
   9  -4  -3   -0.32    1.44
  -9   4   3    0.11    0.53
   9  -4  -2   43.02    5.90
  -9   4   2   17.97    6.42
   9  -4  -1    9.75    3.62
  -9   4   1    1.43    3.80
   9  -3  -6    2.80    4.30
   9  -3  -6   16.67    3.15
   9  -3  -5   -0.12    1.08
   9  -3  -5    0.73    1.58
   9  -3  -4    0.47    2.18
   9  -3  -3    0.63    3.26
  -9   3   3    2.72    2.39
   9  -3  -2   -0.19    1.44
  -9   3   2   -0.03    1.52
   9  -3  -1    0.72    1.75
  -9   3   1    0.43    2.43
   9  -2  -7    4.34    4.46
   9  -2  -7   10.56    4.83
   9  -2  -6    1.98    3.91
   9  -2  -6   17.17    5.04
   9  -2  -5    1.95    3.04
   9  -2  -5   22.21    5.64
   9  -2  -4   -0.53    2.25
   9  -2  -3   -0.29    1.60
  -9   2   3    0.01    1.43
   9  -2  -2    0.68    2.68
  -9   2   2    3.09    2.02
  -9   2   1    0.26    1.76
   9  -1  -7   11.48    6.81
   9  -1  -7   37.17    8.44
   9  -1  -6    2.85    4.67
   9  -1  -6   20.72    3.83
  -9   1   6    4.18    3.95
   9  -1  -5    0.40    1.92
   9  -1  -5    5.48    3.44
  -9   1   5    0.33    2.06
   9  -1  -4   -0.15    2.01
   9  -1  -3    2.42    3.02
  -9   1   3    1.30    1.94
   9  -1  -2    0.05    0.62
  -9   1   2   -0.02    1.06
  -9   1   1    0.34    1.96
   9   0  -7    3.05    3.92
   9   0  -7    8.27    4.71
  -9   0   7    1.22    3.98
   9   0  -6   16.54    8.18
   9   0  -6   91.59   12.71
  -9   0   6   32.18    9.24
   9   0  -5    1.13    2.52
   9   0  -5   18.21    4.60
  -9   0   5    5.59    4.31
   9   0  -4    0.84    1.33
   9   0  -3    2.92    2.03
  -9   0   3    1.30    1.79
  -9   0   3    0.24    2.83
  -9   0   2    0.59    1.69
   9   1  -7   22.02    6.06
   9   1  -7    7.11    5.09
  -9  -1   7   11.91    3.86
   9   1  -6    0.41    2.34
   9   1  -6    2.92    2.02
  -9  -1   6    1.09    3.46
   9   1  -5    9.65    4.54
  -9  -1   5    4.56    6.04
   9   1  -4   18.36    4.01
  -9  -1   4   14.00    7.26
  -9  -1   3    0.90    2.48
  -9  -2   6   79.45   16.98
  -9  -2   5   54.70   12.55
;
_shelx_hkl_checksum              44877
loop_
_space_group_symop_id
_space_group_symop_operation_xyz
1 +X,+Y,+Z
2 -X,-Y,-Z
loop_
_atom_site_label
_atom_site_type_symbol
_atom_site_fract_x
_atom_site_fract_y
_atom_site_fract_z
_atom_site_U_iso_or_equiv
_atom_site_adp_type
_atom_site_occupancy
_atom_site_site_symmetry_order
_atom_site_calc_flag
_atom_site_refinement_flags_posn
_atom_site_refinement_flags_adp
F1 F 0.2231(5) 0.5895(4) 0.0804(4) 0.0605(11) Uani 1 1 d . .
N1 N 0.4045(9) 0.0413(7) 0.1268(7) 0.0759(19) Uani 1 1 d . .
N2 N 0.0389(7) 0.3385(7) 0.1777(6) 0.0660(16) Uani 1 1 d . .
C1 C 0.3679(9) 0.1563(8) 0.1123(7) 0.0550(17) Uani 1 1 d . .
C2 C 0.1634(9) 0.3285(7) 0.1437(7) 0.0507(15) Uani 1 1 d . .
C3 C 0.3146(8) 0.3003(7) 0.0996(7) 0.0463(14) Uani 1 1 d . .
C4 C 0.4056(8) 0.3983(6) 0.0513(6) 0.0424(14) Uani 1 1 d . .
C5 C 0.5536(8) 0.3579(7) 0.0101(6) 0.0476(15) Uani 1 1 d . .
H5 H 0.590070 0.264536 0.015938 0.057 Uiso 1 1 calc R U
C6 C 0.3587(8) 0.5448(7) 0.0376(6) 0.0461(15) Uani 1 1 d . .
S2 S 0.4179(2) 0.2959(2) 0.55855(19) 0.0602(7) Uani 1 1 d D .
C11 C 0.2460(8) 0.3316(8) 0.6226(7) 0.0560(17) Uani 1 1 d D .
C12 C 0.2043(9) 0.4727(8) 0.6176(7) 0.0584(17) Uani 1 1 d D .
H12 H 0.113206 0.511308 0.645812 0.070 Uiso 1 1 calc R U
C13 C 0.3117(9) 0.5542(9) 0.5658(7) 0.0609(18) Uani 1 1 d D .
H13 H 0.301088 0.653429 0.557207 0.073 Uiso 1 1 calc R U
C14 C 0.4324(8) 0.4739(7) 0.5297(6) 0.0518(16) Uani 1 1 d D .
S1 S -0.0206(3) 0.2365(3) 0.7162(2) 0.0815(9) Uani 1 1 d D .
C10 C 0.1615(8) 0.2103(7) 0.6680(6) 0.0550(17) Uani 1 1 d D .
C9 C 0.2127(7) 0.0665(6) 0.6833(5) 0.0401(13) Uani 1 1 d D .
H9 H 0.307567 0.027773 0.661653 0.048 Uiso 1 1 calc R U
C8 C 0.0998(11) -0.0049(9) 0.7348(8) 0.080(2) Uani 1 1 d D .
H8 H 0.112449 -0.098486 0.753966 0.096 Uiso 1 1 calc R U
C7 C -0.0277(11) 0.0696(9) 0.7549(8) 0.081(2) Uani 1 1 d D .
H7 H -0.114052 0.032364 0.787736 0.097 Uiso 1 1 calc R U
loop_
_atom_site_aniso_label
_atom_site_aniso_U_11
_atom_site_aniso_U_22
_atom_site_aniso_U_33
_atom_site_aniso_U_23
_atom_site_aniso_U_13
_atom_site_aniso_U_12
F1 0.072(2) 0.058(2) 0.078(2) 0.0338(19) 0.051(2) 0.0319(18)
N1 0.097(5) 0.061(4) 0.113(5) 0.053(4) 0.068(4) 0.042(3)
N2 0.068(4) 0.074(4) 0.087(4) 0.041(3) 0.055(3) 0.031(3)
C1 0.054(4) 0.053(4) 0.071(4) 0.024(3) 0.043(3) 0.015(3)
C2 0.063(4) 0.042(3) 0.057(4) 0.026(3) 0.031(3) 0.017(3)
C3 0.057(4) 0.039(3) 0.056(4) 0.024(3) 0.031(3) 0.019(3)
C4 0.054(3) 0.040(3) 0.039(3) 0.014(3) 0.027(3) 0.019(3)
C5 0.064(4) 0.040(3) 0.051(4) 0.020(3) 0.032(3) 0.027(3)
C6 0.057(4) 0.046(3) 0.057(4) 0.025(3) 0.039(3) 0.029(3)
S2 0.0728(13) 0.0553(11) 0.0657(12) 0.0233(9) 0.0444(10) 0.0208(9)
C11 0.053(4) 0.062(4) 0.043(4) 0.010(3) 0.025(3) 0.004(3)
C12 0.060(4) 0.064(4) 0.055(4) 0.025(3) 0.029(3) 0.015(3)
C13 0.064(4) 0.079(5) 0.059(4) 0.032(4) 0.039(3) 0.033(4)
C14 0.060(4) 0.053(4) 0.044(3) 0.021(3) 0.025(3) 0.009(3)
S1 0.0848(15) 0.0881(16) 0.0814(16) 0.0313(12) 0.0508(12) 0.0207(12)
C10 0.056(4) 0.055(4) 0.045(3) 0.010(3) 0.026(3) 0.004(3)
C9 0.040(3) 0.042(3) 0.029(3) 0.005(2) 0.013(2) 0.009(2)
C8 0.115(6) 0.055(4) 0.067(5) 0.025(4) 0.039(5) 0.010(4)
C7 0.080(5) 0.081(5) 0.065(5) 0.028(4) 0.031(4) -0.023(4)
loop_
_atom_type_symbol
_atom_type_description
_atom_type_scat_dispersion_real
_atom_type_scat_dispersion_imag
_atom_type_scat_source
C C 0.0181 0.0091
;
International Tables for Crystallography
(Vol. C, Tables 4.2.6.8 and 6.1.1.4)
;
H H 0.0000 0.0000
;
International Tables for Crystallography
(Vol. C, Table 6.1.1.4)
;
N N 0.0311 0.0180
;
International Tables for Crystallography
(Vol. C, Tables 4.2.6.8 and 6.1.1.4)
;
F F 0.0727 0.0534
;
International Tables for Crystallography
(Vol. C, Tables 4.2.6.8 and 6.1.1.4)
;
S S 0.3331 0.5567
;
International Tables for Crystallography
(Vol. C, Tables 4.2.6.8 and 6.1.1.4)
;
loop_
_geom_angle_atom_site_label_1
_geom_angle_atom_site_label_2
_geom_angle_atom_site_label_3
_geom_angle
_geom_angle_site_symmetry_1
_geom_angle_site_symmetry_3
N1 C1 C3 176.2(7) . .
N2 C2 C3 174.7(6) . .
C4 C3 C1 121.1(5) . .
C4 C3 C2 125.7(5) . .
C1 C3 C2 113.1(5) . .
C3 C4 C5 120.8(5) . .
C3 C4 C6 123.4(5) . .
C5 C4 C6 115.8(5) . .
C6 C5 C4 120.1(5) 2_665 .
C6 C5 H5 120.0 2_665 .
C4 C5 H5 120.0 . .
F1 C6 C5 118.6(5) . 2_665
F1 C6 C4 117.3(5) . .
C5 C6 C4 124.1(5) 2_665 .
C14 S2 C11 91.0(3) . .
C12 C11 C10 129.4(6) . .
C12 C11 S2 110.9(5) . .
C10 C11 S2 119.7(5) . .
C11 C12 C13 113.2(6) . .
C11 C12 H12 123.4 . .
C13 C12 H12 123.4 . .
C14 C13 C12 112.8(6) . .
C14 C13 H13 123.6 . .
C12 C13 H13 123.6 . .
C13 C14 C14 126.8(7) . 2_666
C13 C14 S2 112.1(4) . .
C14 C14 S2 121.1(6) 2_666 .
C7 S1 C10 91.4(4) . .
C9 C10 C11 129.8(6) . .
C9 C10 S1 110.5(4) . .
C11 C10 S1 119.7(5) . .
C8 C9 C10 109.5(5) . .
C8 C9 H9 125.3 . .
C10 C9 H9 125.3 . .
C7 C8 C9 114.6(7) . .
C7 C8 H8 122.7 . .
C9 C8 H8 122.7 . .
C8 C7 S1 114.0(6) . .
C8 C7 H7 123.0 . .
S1 C7 H7 123.0 . .
loop_
_geom_bond_atom_site_label_1
_geom_bond_atom_site_label_2
_geom_bond_distance
_geom_bond_site_symmetry_2
F1 C6 1.350(6) .
N1 C1 1.145(8) .
N2 C2 1.157(7) .
C1 C3 1.436(8) .
C2 C3 1.442(8) .
C3 C4 1.379(7) .
C4 C5 1.426(7) .
C4 C6 1.442(7) .
C5 C6 1.355(8) 2_665
C5 H5 0.9300 .
S2 C14 1.705(6) .
S2 C11 1.726(6) .
C11 C12 1.355(9) .
C11 C10 1.482(9) .
C12 C13 1.393(8) .
C12 H12 0.9300 .
C13 C14 1.345(8) .
C13 H13 0.9300 .
C14 C14 1.497(11) 2_666
S1 C7 1.663(8) .
S1 C10 1.697(6) .
C10 C9 1.436(7) .
C9 C8 1.373(8) .
C9 H9 0.9300 .
C8 C7 1.316(10) .
C8 H8 0.9300 .
C7 H7 0.9300 .
loop_
_geom_torsion_atom_site_label_1
_geom_torsion_atom_site_label_2
_geom_torsion_atom_site_label_3
_geom_torsion_atom_site_label_4
_geom_torsion
_geom_torsion_site_symmetry_4
C1 C3 C4 C5 1.0(9) .
C2 C3 C4 C5 -179.9(5) .
C1 C3 C4 C6 -179.5(5) .
C2 C3 C4 C6 -0.4(10) .
C3 C4 C5 C6 179.8(5) 2_665
C6 C4 C5 C6 0.3(9) 2_665
C3 C4 C6 F1 2.6(9) .
C5 C4 C6 F1 -177.9(5) .
C3 C4 C6 C5 -179.8(6) 2_665
C5 C4 C6 C5 -0.3(10) 2_665
C14 S2 C11 C12 1.0(5) .
C14 S2 C11 C10 178.8(5) .
C10 C11 C12 C13 -178.8(6) .
S2 C11 C12 C13 -1.3(7) .
C11 C12 C13 C14 0.9(8) .
C12 C13 C14 C14 179.8(8) 2_666
C12 C13 C14 S2 -0.1(7) .
C11 S2 C14 C13 -0.5(5) .
C11 S2 C14 C14 179.6(7) 2_666
C12 C11 C10 C9 -175.4(6) .
S2 C11 C10 C9 7.3(9) .
C12 C11 C10 S1 2.7(9) .
S2 C11 C10 S1 -174.6(3) .
C7 S1 C10 C9 0.3(4) .
C7 S1 C10 C11 -178.1(5) .
C11 C10 C9 C8 177.3(6) .
S1 C10 C9 C8 -0.9(6) .
C10 C9 C8 C7 1.3(9) .
C9 C8 C7 S1 -1.1(9) .
C10 S1 C7 C8 0.4(6) .
