#------------------------------------------------------------------------------
#$Date: 2019-11-24 11:10:46 +0200 (Sun, 24 Nov 2019) $
#$Revision: 237757 $
#$URL: file:///home/coder/svn-repositories/cod/cif/7/23/75/7237540.cif $
#------------------------------------------------------------------------------
#
# This file is available in the Crystallography Open Database (COD),
# http://www.crystallography.net/
#
# All data on this site have been placed in the public domain by the
# contributors.
#
data_7237540
loop_
_publ_author_name
'Sato, Ryonosuke'
'Kawamoto, Tadashi'
'Mori, Takehiko'
_publ_section_title
;
 Asymmetrical hole/electron transport in donor--acceptor mixed-stack
 cocrystals
;
_journal_issue                   3
_journal_name_full               'Journal of Materials Chemistry C'
_journal_page_first              567
_journal_paper_doi               10.1039/C8TC05190A
_journal_volume                  7
_journal_year                    2019
_chemical_formula_moiety         'C16 H10 S4, C12 F4 N4'
_chemical_formula_sum            'C28 H10 F4 N4 S4'
_chemical_formula_weight         606.65
_space_group_crystal_system      triclinic
_space_group_IT_number           2
_space_group_name_Hall           '-P 1'
_space_group_name_H-M_alt        'P -1'
_atom_sites_solution_hydrogens   geom
_atom_sites_solution_primary     direct
_atom_sites_solution_secondary   difmap
_audit_update_record
;
2018-08-15 deposited with the CCDC.
2018-12-11 downloaded from the CCDC.
;
_cell_angle_alpha                90.88(5)
_cell_angle_beta                 129.50(4)
_cell_angle_gamma                104.63(4)
_cell_formula_units_Z            1
_cell_length_a                   9.092(5)
_cell_length_b                   9.151(4)
_cell_length_c                   10.403(6)
_cell_measurement_reflns_used    20
_cell_measurement_temperature    297
_cell_measurement_theta_max      15.10
_cell_measurement_theta_min      12.68
_cell_volume                     628.0(8)
_computing_cell_refinement       WinAFC
_computing_data_collection       WinAFC
_computing_data_reduction        WinAFC
_computing_molecular_graphics    'CrystalStructure 4.3'
_computing_publication_material  'CrystalStructure 4.3 (Rigaku, 2018)'
_computing_structure_refinement  'SHELXL Version 2018/1 (Sheldrick, 2008)'
_computing_structure_solution    'SHELXT Version 2014/5 (Sheldrick, 2014)'
_diffrn_ambient_temperature      297
_diffrn_measured_fraction_theta_full 0.999
_diffrn_measured_fraction_theta_max 0.999
_diffrn_measurement_device_type  'Rigaku AFC7R'
_diffrn_measurement_method       \w-2\q
_diffrn_radiation_type           'Mo K\a'
_diffrn_radiation_wavelength     0.71069
_diffrn_reflns_av_R_equivalents  0.0931
_diffrn_reflns_av_unetI/netI     0.1410
_diffrn_reflns_Laue_measured_fraction_full 0.999
_diffrn_reflns_Laue_measured_fraction_max 0.999
_diffrn_reflns_limit_h_max       10
_diffrn_reflns_limit_h_min       -10
_diffrn_reflns_limit_k_max       10
_diffrn_reflns_limit_k_min       -6
_diffrn_reflns_limit_l_max       12
_diffrn_reflns_limit_l_min       -12
_diffrn_reflns_number            2801
_diffrn_reflns_point_group_measured_fraction_full 0.999
_diffrn_reflns_point_group_measured_fraction_max 0.999
_diffrn_reflns_theta_full        24.998
_diffrn_reflns_theta_max         24.998
_diffrn_reflns_theta_min         2.611
_diffrn_standards_decay_%        -2.678
_diffrn_standards_interval_count 150
_diffrn_standards_number         3
_exptl_absorpt_coefficient_mu    0.436
_exptl_absorpt_correction_T_max  0.990
_exptl_absorpt_correction_T_min  0.948
_exptl_absorpt_correction_type   psi-scan
_exptl_absorpt_process_details   '(North, Phillips & Mathews, 1968)'
_exptl_crystal_colour            black
_exptl_crystal_density_diffrn    1.604
_exptl_crystal_density_method    'not measured'
_exptl_crystal_description       needle
_exptl_crystal_F_000             306.00
_exptl_crystal_size_max          0.654
_exptl_crystal_size_mid          0.130
_exptl_crystal_size_min          0.022
_refine_diff_density_max         1.57
_refine_diff_density_min         -0.92
_refine_ls_extinction_method     none
_refine_ls_goodness_of_fit_ref   1.037
_refine_ls_hydrogen_treatment    constr
_refine_ls_number_parameters     175
_refine_ls_number_reflns         2210
_refine_ls_number_restraints     20
_refine_ls_R_factor_all          0.1817
_refine_ls_R_factor_gt           0.0920
_refine_ls_shift/su_max          0.000
_refine_ls_structure_factor_coef Fsqd
_refine_ls_weighting_details
'w = 1/[\s^2^(Fo^2^)+(0.1664P)^2^+1.4094P] where P=(Fo^2^+2Fc^2^)/3'
_refine_ls_weighting_scheme      calc
_refine_ls_wR_factor_gt          0.2479
_refine_ls_wR_factor_ref         0.3086
_reflns_Friedel_coverage         0.000
_reflns_number_gt                1164
_reflns_number_total             2210
_reflns_threshold_expression     F^2^>2.0\s(F^2^)
_cod_data_source_file            c8tc05190a2.cif
_cod_data_source_block           (4T)(F4TCNQ)
_cod_original_cell_volume        628.0(7)
_cod_database_code               7237540
_shelx_res_file
;
TITL Cytidine (Rigaku Master for Mo)
    shelxl.res
    created by SHELXL-2018/1 at 14:58:05 on 07-Aug-2018
CELL  0.71069 9.09240 9.15120 10.40307 90.88280 129.50080 104.62860
ZERR  1 0.00490 0.00390 0.00643 0.04500 0.03530 0.03790
LATT 1
SFAC C H N F S
UNIT 28 10 4 4 4
SHEL 99999.000000 0.840818
L.S. 20
FMAP 2
PLAN 25
WPDB -2
HTAB
BOND $H
CONF
LIST 4
TEMP 24.0
ACTA
SIZE 0.654 0.130 0.022
RIGU S1 C7 C8
RIGU C10 C11
EADP C8 C9
WGHT    0.166400    1.409400
FVAR       0.94039
F1    4    0.133648    0.490881   -0.117566    11.00000    0.03651    0.05519 =
         0.05110    0.02283    0.03267    0.02010
F2    4    0.705107    0.327448    0.217005    11.00000    0.04714    0.06159 =
         0.04956    0.03300    0.03538    0.02971
N1    3   -0.020214    0.266067    0.021590    11.00000    0.04628    0.07834 =
         0.06880    0.02776    0.04493    0.01845
N2    3    0.478941    0.124318    0.311510    11.00000    0.08119    0.07472 =
         0.07928    0.04740    0.06210    0.04064
C1    1    0.128580    0.285429    0.053696    11.00000    0.04539    0.03640 =
         0.04084    0.01127    0.03215    0.00416
C2    1    0.417813    0.204537    0.224212    11.00000    0.05354    0.04463 =
         0.04709    0.01367    0.04119    0.01255
C3    1    0.323652    0.303303    0.109616    11.00000    0.03660    0.03442 =
         0.03486    0.01178    0.02674    0.00802
C4    1    0.410609    0.398619    0.056501    11.00000    0.04098    0.03347 =
         0.03231    0.01047    0.02853    0.01045
C5    1    0.313745    0.495238   -0.058581    11.00000    0.03271    0.03131 =
         0.02841    0.00371    0.01965    0.00792
C6    1    0.601521    0.410550    0.110686    11.00000    0.03509    0.03713 =
         0.02894    0.01140    0.02261    0.01247
S2    5    0.258021    0.393158    0.502978    11.00000    0.04196    0.04808 =
         0.03691    0.01617    0.02902    0.00996
C11   1    0.336653    0.272827    0.644073    11.00000    0.05478    0.02930 =
         0.02807    0.00657    0.02922    0.00311
C12   1    0.523306    0.271996    0.710592    11.00000    0.05305    0.04252 =
         0.04982    0.00224    0.03778    0.01114
AFIX  43
H12   2    0.589383    0.211247    0.785640    11.00000   -1.20000
AFIX   0
C13   1    0.603295    0.370618    0.654783    11.00000    0.05945    0.05315 =
         0.03864    0.02099    0.03610    0.02449
AFIX  43
H13   2    0.730213    0.384094    0.690668    11.00000   -1.20000
AFIX   0
C14   1    0.480707    0.446182    0.543044    11.00000    0.04231    0.03503 =
         0.03001    0.00296    0.02858    0.00147
SAME S2 > C14
S1    5    0.284368    0.057323    0.803375    11.00000    0.10260    0.05564 =
         0.06131    0.02001    0.06080    0.02226
C10   1    0.202383    0.184936    0.671522    11.00000    0.05508    0.02517 =
         0.02130    0.00210    0.02623   -0.00141
C9    1    0.007818    0.189783    0.607989    11.00000    0.03748    0.03661 =
         0.03130   -0.01090    0.02575   -0.01429
AFIX  43
H9    2   -0.062367    0.251229    0.536779    11.00000   -1.20000
AFIX   0
C8    1   -0.053950    0.083432    0.675095    11.00000    0.03748    0.03661 =
         0.03130   -0.01090    0.02575   -0.01429
AFIX  43
H8    2   -0.176134    0.065900    0.649688    11.00000   -1.20000
AFIX   0
C7    1    0.072249    0.010401    0.776080    11.00000    0.09383    0.04377 =
         0.05922    0.01256    0.06347   -0.00093
AFIX  43
H7    2    0.046740   -0.060943    0.827956    11.00000   -1.20000
AFIX   0
HKLF 4




REM  Cytidine (Rigaku Master for Mo)
REM R1 =  0.0920 for    1164 Fo > 4sig(Fo)  and  0.1817 for all    2210 data
REM    175 parameters refined using     20 restraints

END

WGHT      0.1657      1.4267

REM Instructions for potential hydrogen bonds
EQIV $3 x+1, y, z+1
HTAB C12 N1_$3
EQIV $4 -x, -y, -z+1
HTAB C7 N1_$4

REM Highest difference peak  1.570,  deepest hole -0.915,  1-sigma level  0.132
Q1    1   0.4686  0.3171  0.6161  11.00000  0.05    1.06
Q2    1   0.1569 -0.0210  0.8049  11.00000  0.05    0.52
Q3    1   0.2246  0.1373  0.7128  11.00000  0.05    0.47
Q4    1   0.3600  0.4425 -0.0177  11.00000  0.05    0.46
Q5    1   0.3760  0.1258  0.2601  11.00000  0.05    0.44
Q6    1   0.1380  0.4162  0.4609  11.00000  0.05    0.44
Q7    1   0.0168  0.0587  0.7647  11.00000  0.05    0.43
Q8    1   0.3420  0.5193 -0.0947  11.00000  0.05    0.42
Q9    1   0.2522  0.5020  0.4917  11.00000  0.05    0.42
Q10   1   0.0775  0.5433 -0.1528  11.00000  0.05    0.39
Q11   1   0.3546  0.3474  0.0742  11.00000  0.05    0.38
Q12   1   0.4874 -0.0525  0.9047  11.00000  0.05    0.37
Q13   1   0.2884  0.3349  0.5701  11.00000  0.05    0.37
Q14   1   0.1205  0.4087 -0.1224  11.00000  0.05    0.35
Q15   1   0.4149  0.4830  0.5341  11.00000  0.05    0.33
Q16   1   0.0622  0.0423  0.7213  11.00000  0.05    0.33
Q17   1   0.7571  0.2945  0.2294  11.00000  0.05    0.32
Q18   1   0.9428  0.3613  0.2661  11.00000  0.05    0.31
Q19   1   0.1574  0.4344  0.3970  11.00000  0.05    0.30
Q20   1  -0.1578  0.2031 -0.0244  11.00000  0.05    0.30
Q21   1  -0.1418 -0.1026  0.7738  11.00000  0.05    0.28
Q22   1   0.6477  0.3046  0.6611  11.00000  0.05    0.27
Q23   1   0.0922  0.3070  0.4102  11.00000  0.05    0.26
Q24   1  -0.0849  0.0843 -0.1024  11.00000  0.05    0.26
Q25   1  -0.1120  0.2754 -0.0369  11.00000  0.05    0.26
;
_shelx_res_checksum              79923
_shelx_hkl_file
;
   0   2   0  -12.69    8.48
   0   3   0  187.54   11.86
   0  -3   0  150.69   13.55
   0   4   0   17.26    6.06
   0  -4   0    7.90    8.63
   0   5   0  -17.24   11.49
   0  -5   0    4.39   12.94
   0   6   0   29.52    7.61
   0  -6   0   15.23   11.27
   0   7   0    6.13   13.95
   0   8   0   11.72   15.10
   0   9   0  217.44   20.30
   0  10   0   58.87   10.86
   0  11   0  -16.12   21.11
   0  12   0  -19.59   20.83
   1  11  -1   21.57   20.10
   1  10  -1   -2.12   18.77
   1   9  -1   63.32   10.26
   1   8  -1  243.16   20.41
   1   7  -1    2.03   14.18
  -1  -6   1    3.12   17.12
   1   6  -1   -5.81   12.83
  -1  -5   1   55.38    8.82
   1   5  -1   53.06    7.26
  -1  -4   1    3.86    9.07
   1   4  -1  -27.08   10.67
  -1  -3   1   14.13    7.26
   1   3  -1    6.59    9.83
  -1  -2   1 3595.34   29.29
   1   2  -1 3756.56   28.95
   1   1  -1  745.14   11.45
  -1   1   1  243.52    7.26
  -1   2   1  329.38   11.33
  -1   3   1   -0.28   10.78
   1  -3  -1   -4.25   11.07
  -1   4   1   74.81    6.88
   1  -4  -1   66.60    7.38
  -1   5   1   67.05    7.18
   1  -5  -1   51.65    7.74
  -1   6   1   82.68    7.61
   1  -6  -1   78.99    8.86
  -1   7   1  527.38   23.04
  -1   8   1   21.47   15.68
  -1   9   1   14.94    9.54
  -1  10   1    9.58   16.86
  -1  11   1   32.56   11.49
  -1  12   1  -27.83   21.95
   2  11  -2    9.20   20.14
   2  10  -2   87.08   11.14
   2   9  -2   -4.96   16.93
   2   8  -2  183.45   13.81
   2   7  -2   -3.79   14.28
   2   6  -2   79.62    8.04
  -2  -5   2   17.23   16.89
   2   5  -2   -2.72   11.09
  -2  -4   2   63.26    8.48
   2   4  -2   70.81    6.67
  -2  -3   2  473.61   17.98
   2   3  -2  491.32   16.11
  -2  -2   2  739.84   19.02
   2   2  -2  791.40   17.24
  -2  -1   2  542.88   15.42
   2   1  -2  599.21   13.62
  -2   0   2   89.66    6.87
   2   0  -2   91.20    8.19
  -2   1   2   32.99    5.75
  -2   2   2   24.06    6.45
   2  -2  -2   21.79    5.56
  -2   3   2  -12.40   11.98
   2  -3  -2  -12.90   10.59
  -2   4   2   14.46   11.55
   2  -4  -2    4.68   11.21
  -2   5   2   47.05    7.26
   2  -5  -2   20.58    7.57
  -2   6   2   56.88    8.70
   2  -6  -2   61.77    8.88
  -2   7   2   31.96    8.67
  -2   8   2  219.28   20.26
  -2   9   2   10.06   16.31
  -2  10   2   30.76   21.23
  -2  11   2  -14.50   19.74
  -2  12   2   24.88   18.86
   3  11  -3   -9.82   20.80
   3  10  -3  -31.88   20.25
   3   9  -3   17.63   11.93
   3   8  -3  -16.96   15.77
   3   7  -3  140.17   13.00
   3   6  -3   89.87    9.09
   3   5  -3   44.05    7.62
  -3  -4   3  127.56   12.04
   3   4  -3  139.90   12.82
  -3  -3   3  113.57    8.93
   3   3  -3  130.70   12.14
  -3  -2   3  466.06   17.89
   3   2  -3  530.79   16.19
  -3  -1   3 1038.87   21.79
   3   1  -3 1135.03   20.33
  -3   0   3  790.89   19.12
   3   0  -3  872.42   17.52
  -3   1   3   79.63    7.70
   3  -1  -3   74.25    7.20
  -3   2   3    5.04   12.56
   3  -2  -3    9.89   10.09
  -3   3   3  -20.57   12.42
   3  -3  -3  -18.23   10.85
  -3   4   3  123.75    9.94
   3  -4  -3  109.10    9.32
  -3   5   3   -5.48   13.91
   3  -5  -3   17.84   11.94
  -3   6   3   98.87    9.70
   3  -6  -3  106.90    9.12
  -3   7   3   28.93    9.16
  -3   8   3  419.86   24.28
  -3   9   3   -0.92   17.98
  -3  10   3  -10.52   18.24
  -3  11   3   18.38   21.42
  -3  12   3    6.95   12.41
   4  10  -4   11.20   13.86
   4   9  -4   32.87   10.61
   4   8  -4   24.44   17.47
   4   7  -4    1.72   15.74
   4   6  -4   39.21    8.64
   4   5  -4    5.40   14.36
  -4  -4   4   46.06   10.36
   4   4  -4   36.23    7.01
  -4  -3   4  336.97   20.74
   4   3  -4  397.09   16.95
  -4  -2   4  146.80   12.29
   4   2  -4  172.33   13.31
  -4  -1   4   65.23    8.37
   4   1  -4   69.75    6.29
  -4   0   4 2795.11   34.49
   4   0  -4 3105.01   34.69
  -4   1   4  949.66   23.08
   4  -1  -4 1047.73   21.45
  -4   2   4  132.64   10.73
   4  -2  -4  133.63   12.33
  -4   3   4  307.30   17.74
   4  -3  -4  327.88   16.01
  -4   4   4   62.48    8.61
   4  -4  -4   49.80    7.06
  -4   5   4    1.82   14.91
   4  -5  -4    3.98   13.02
  -4   6   4   49.28    9.64
  -4   7   4   64.44   10.54
  -4   8   4  -13.46   17.90
  -4   9   4   25.39   11.59
  -4  10   4   -4.44   18.59
  -4  11   4   25.96   21.39
  -4  12   4    9.68   16.13
   5  10  -5   12.70   18.99
   5   9  -5  -17.40   18.31
   5   8  -5   40.53   10.05
   5   7  -5  118.72   11.58
   5   6  -5  103.11   10.45
   5   5  -5   19.72    7.81
   5   4  -5  337.40   20.48
   5   3  -5    8.82   12.18
  -5  -2   5  617.89   25.17
   5   2  -5  707.85   22.34
  -5  -1   5   23.72   15.84
   5   1  -5   26.03    6.57
  -5   0   5   36.33    9.83
   5   0  -5   75.26    6.68
  -5   1   5  344.89   19.83
   5  -1  -5  365.26   17.06
  -5   2   5  -10.38   15.35
   5  -2  -5    5.64    9.68
  -5   3   5 1010.56   27.02
   5  -3  -5 1025.74   25.49
  -5   4   5  647.56   25.11
   5  -4  -5  669.24   22.45
  -5   5   5  118.59   11.02
  -5   6   5   16.72   12.65
  -5   7   5   61.14   11.39
  -5   8   5  -27.77   18.34
  -5   9   5   -5.96   18.73
  -5  10   5   26.40   20.51
  -5  11   5    5.15   21.09
   6   9  -6   15.15   22.45
   6   8  -6   12.32   19.01
   6   7  -6   -4.42   17.16
   6   6  -6    3.83   15.50
   6   5  -6   -8.51   15.22
   6   4  -6   97.31    9.85
   6   3  -6  312.18   19.83
   6   2  -6   79.84    7.87
   6   1  -6  297.92   17.78
  -6   0   6   21.90   18.17
   6   0  -6    6.73   11.98
  -6   1   6  287.15   21.10
   6  -1  -6  282.01   17.11
  -6   2   6    6.69   17.82
   6  -2  -6   15.36   12.34
  -6   3   6   -0.82   19.62
   6  -3  -6   10.84   12.69
  -6   4   6   72.78   11.22
  -6   5   6  108.45   11.54
  -6   6   6  -11.44   19.47
  -6   7   6  -11.94   18.94
  -6   8   6   13.15   19.03
  -6   9   6   -0.98   20.02
  -6  10   6   15.70   21.92
  -6  11   6  -17.51   22.83
   7   8  -7    6.74   18.79
   7   7  -7    1.27   17.83
   7   6  -7   17.18   17.04
   7   5  -7   17.13   11.91
   7   4  -7   -0.06   14.87
   7   3  -7  406.29   24.42
   7   2  -7   45.22    8.43
   7   1  -7  200.05   18.11
  -7   0   7  511.33   26.78
   7   0  -7  490.94   22.50
  -7   1   7  156.77   15.44
  -7   2   7   38.47   11.68
  -7   3   7   88.54   12.19
  -7   4   7   25.66   11.61
  -7   5   7   13.93   13.74
  -7   6   7  117.75   13.20
  -7   7   7   28.60   20.97
  -7   8   7  -27.69   21.68
  -7   9   7  -18.46   21.29
  -7  10   7  -17.82   23.39
  -7  11   7    1.22   24.16
   8   7  -8   22.81   20.83
   8   6  -8   -1.22   17.11
   8   5  -8   50.39   10.75
   8   4  -8  -23.57   16.10
   8   3  -8   15.82   10.76
   8   2  -8   20.81   17.20
   8   1  -8   14.86   15.06
  -8   0   8   75.40   13.18
   8   0  -8   85.63    9.88
  -8   1   8  192.57   16.96
  -8   2   8  444.12   28.62
  -8   3   8  -12.25   21.11
  -8   4   8  204.60   17.42
  -8   5   8   16.00   21.06
  -8   6   8  -14.01   22.41
  -8   7   8   53.62   12.51
  -8   8   8  -31.32   22.15
  -8   9   8   18.89   13.59
  -8  10   8   -9.76   23.63
   9   6  -9   -4.04   20.89
   9   5  -9    5.16   20.97
   9   4  -9   50.21   11.00
   9   3  -9  -14.03   18.18
   9   2  -9   12.60   12.18
   9   1  -9  -10.65   15.94
  -9   0   9   94.70   14.39
   9   0  -9  110.65   10.91
  -9   1   9   27.49   22.22
  -9   2   9   29.65   21.93
  -9   3   9   16.81   22.59
  -9   4   9   23.81   12.79
  -9   5   9   29.56   22.89
  -9   6   9   23.78   23.65
  -9   7   9   13.62   22.96
  -9   8   9  -10.99   23.84
  -9   9   9    3.89   25.23
  10   5 -10  -19.80   19.25
  10   4 -10   64.97   12.62
  10   3 -10    2.36   20.68
  10   2 -10   46.97   10.80
  10   1 -10  135.21   12.17
 -10   0  10   20.76   18.56
  10   0 -10    9.83   17.78
 -10   1  10    0.00   25.53
 -10   2  10   28.59   14.75
 -10   3  10  -16.17   24.14
 -10   4  10   35.39   23.79
 -10   5  10   34.26   23.66
 -10   6  10   15.43   24.59
 -10   7  10   24.42   25.66
 -10   8  10   -1.11   25.82
  11   3 -11   51.20   13.09
  11   2 -11   42.68   11.81
  11   1 -11  -16.91   19.51
 -11   0  11    4.06   27.09
  11   0 -11   -6.13   20.22
 -11   1  11  -17.22   26.54
 -11   2  11  -19.60   26.90
 -11   3  11   22.16   27.48
 -11   4  11   10.35   26.42
 -11   5  11   25.80   27.41
 -11   6  11    7.94   28.41
 -11   7  11   41.29   15.43
 -12   0  12  -14.28   28.49
  12   0 -12   -8.57   21.85
 -12   1  12   19.99   29.68
 -12   2  12   -5.74   29.29
 -12   3  12   23.38   20.16
 -12   4  12   66.86   16.37
 -11   6  12  -38.29   30.71
 -11   5  12  -18.98   28.32
 -11   4  12  -25.16   29.51
 -11   3  12    8.95   30.35
 -11   2  12   29.16   16.21
 -11   1  12    8.81   31.24
  11   0 -12   -1.18   19.04
 -11   0  12   20.08   28.95
  11   1 -12  -20.21   20.93
  11   2 -12    5.42   20.66
 -10   7  11    5.25   27.34
 -10   6  11  -35.89   29.52
 -10   5  11   -4.75   26.33
 -10   4  11  -11.51   26.05
 -10   3  11   11.31   27.06
 -10   2  11   38.61   27.35
 -10   1  11   12.31   18.21
  10   0 -11   -9.36   20.40
 -10   0  11   11.41   27.46
  10   1 -11    2.93   12.49
  10   2 -11   15.65   12.89
  10   3 -11   38.07   11.45
  10   4 -11   38.05   12.00
  -9   9  10   -4.14   25.62
  -9   8  10   -8.90   24.92
  -9   7  10    6.17   25.86
  -9   6  10   12.41   26.21
  -9   5  10   15.14   23.90
  -9   4  10  111.82   15.77
  -9   3  10   28.39   26.02
  -9   2  10   72.06   14.18
  -9   1  10  -21.25   24.05
   9   0 -10   12.91   16.62
  -9   0  10   18.82   23.98
   9   1 -10   -9.10   16.89
   9   2 -10   22.71   10.08
   9   3 -10   77.99   10.81
   9   4 -10   13.05   19.02
   9   5 -10   72.34   12.83
   9   6 -10   26.36   19.02
  -8  10   9   19.31   14.52
  -8   9   9   29.19   24.68
  -8   8   9   30.49   13.25
  -8   7   9  -15.46   22.25
  -8   6   9   12.23   22.52
  -8   5   9   16.45   23.14
  -8   4   9   22.90   16.29
  -8   3   9  -24.81   22.72
  -8   2   9  404.90   30.44
  -8   1   9  103.54   14.10
   8   0  -9  -11.26   15.24
  -8   0   9   18.51   22.13
   8   1  -9   99.46   10.61
   8   2  -9   12.75   14.27
   8   3  -9   23.31    9.78
   8   4  -9   22.54    9.87
   8   5  -9   64.26   11.16
   8   6  -9  -30.89   19.53
   8   7  -9   25.95   20.80
  -7  10   8  -72.53   27.43
  -7   9   8   13.66   24.08
  -7   8   8  -20.04   21.93
  -7   7   8   -1.25   22.44
  -7   6   8  -13.42   20.67
  -7   5   8    0.71   20.40
  -7   4   8  -10.12   20.08
  -7   3   8  357.57   25.76
  -7   2   8  -32.64   20.91
  -7   1   8  -22.89   21.47
   7   0  -8   -4.23   13.81
  -7   0   8   15.89   14.43
   7   1  -8  123.10   11.57
   7   2  -8   47.42    8.81
   7   3  -8    6.69   13.27
   7   4  -8   19.25   15.25
   7   5  -8   11.06   15.92
   7   6  -8   21.87    9.84
   7   7  -8   47.26   11.33
   7   8  -8   -8.34   20.60
  -6  11   7  -49.17   24.94
  -6  10   7   19.29   15.75
  -6   9   7  -27.93   22.72
  -6   8   7   -8.11   21.91
  -6   7   7  -11.79   21.04
  -6   6   7  172.22   16.05
  -6   5   7  442.93   26.33
  -6   4   7   18.41   20.25
  -6   3   7  219.36   16.39
  -6   2   7   54.32   11.48
  -6   1   7   49.88   11.00
   6   0  -7  456.74   20.48
  -6   0   7  406.36   25.54
   6   1  -7  -10.95   13.50
   6   2  -7  235.33   18.33
   6   3  -7   59.88    8.58
   6   4  -7  347.00   20.75
   6   5  -7  104.85   10.24
   6   6  -7   59.97   10.37
   6   7  -7   -7.81   16.76
   6   8  -7   16.40   10.17
   6   9  -7    0.07   19.48
  -5  11   6  -28.64   24.04
  -5  10   6   -4.62   21.74
  -5   9   6    0.10   21.43
  -5   8   6   25.84   20.27
  -5   7   6   -0.96   18.82
  -5   6   6   23.55   19.64
  -5   5   6   90.39   11.37
  -5   4   6  108.98   10.78
   5  -3  -6   41.86    7.88
  -5   3   6   64.28   10.72
   5  -2  -6 1297.96   28.59
  -5   2   6 1411.13   31.95
   5  -1  -6    0.37   11.46
  -5   1   6   -5.23   17.46
   5   0  -6  196.44   14.45
  -5   0   6  175.41   13.33
   5   1  -6  444.42   18.65
  -5  -1   6  421.62   22.67
   5   2  -6  295.34   16.12
  -5  -2   6  267.93   22.17
   5   3  -6   44.87    7.68
   5   4  -6  117.50    9.40
   5   5  -6   80.01    8.92
   5   6  -6   40.43    8.91
   5   7  -6  -10.00   17.91
   5   8  -6    9.49   11.52
   5   9  -6    9.84   16.52
   5  10  -6   -0.14   19.61
  -4  11   5   -6.47   23.01
  -4  10   5   80.28   13.99
  -4   9   5   20.34   10.98
  -4   8   5   44.98   11.24
  -4   7   5   22.29   10.32
  -4   6   5    2.15   16.97
  -4   5   5  -34.10   18.08
   4  -4  -5   89.44    7.94
  -4   4   5  114.01   10.15
   4  -3  -5  225.62   15.24
  -4   3   5  326.99   19.42
   4  -2  -5  300.92   15.07
  -4   2   5  305.43   18.62
   4  -1  -5   50.31    6.34
  -4   1   5   50.89    8.70
   4   0  -5  199.13   13.64
  -4   0   5  206.55   16.60
   4   1  -5   45.21    6.16
  -4  -1   5   35.55    8.88
   4   2  -5  141.09   12.83
  -4  -2   5  149.87   12.33
   4   3  -5  466.87   18.38
  -4  -3   5  450.28   22.73
   4   4  -5  163.80   15.46
   4   5  -5  475.06   22.40
   4   6  -5   -8.45   13.96
   4   7  -5   13.35   13.92
   4   8  -5   44.19   10.58
   4   9  -5   -1.02   17.04
   4  10  -5   13.04   17.24
  -3  11   4    5.17   20.90
  -3  10   4   24.87   21.92
  -3   9   4   20.50   17.89
  -3   8   4    3.56   16.33
  -3   7   4   17.35    9.78
  -3   6   4   43.82   10.07
   3  -5  -4   62.10    8.03
  -3   5   4   85.64    9.51
   3  -4  -4    1.93   10.93
  -3   4   4   -3.99   14.18
   3  -3  -4   66.79    6.44
  -3   3   4   75.66    8.35
   3  -2  -4  155.34   12.44
  -3   2   4  174.52   10.77
   3  -1  -4  141.33   11.77
  -3   1   4  144.05   14.32
   3   0  -4   62.75    5.89
  -3   0   4   46.68    7.79
   3   1  -4  187.28   11.74
  -3  -1   4  155.10   15.32
   3   2  -4  419.94   15.64
  -3  -2   4  439.64   18.84
   3   3  -4    0.43   10.54
  -3  -3   4   11.50    8.55
   3   4  -4    9.08   11.63
  -3  -4   4   29.05    9.74
   3   5  -4    9.63   13.68
   3   6  -4  357.44   20.91
   3   7  -4   27.63    8.62
   3   8  -4  235.90   14.86
   3   9  -4   10.63   16.50
   3  10  -4   18.12   18.05
   3  11  -4   13.58   17.49
  -2  11   3  -17.78   21.25
  -2  10   3    0.08   19.00
  -2   9   3   62.33   12.08
  -2   8   3    9.00   15.24
  -2   7   3  129.90   12.51
  -2   6   3   23.17    8.38
   2  -5  -3   37.68    7.91
  -2   5   3   52.69    8.49
   2  -4  -3  286.89   15.37
  -2   4   3  321.34   16.68
   2  -3  -3  519.57   16.85
  -2   3   3  595.38   18.52
   2  -2  -3  278.79   13.42
  -2   2   3  296.57   15.52
   2  -1  -3  516.04   14.44
  -2   1   3  521.81   16.46
   2   0  -3 4790.52   33.47
  -2   0   3 4550.22   33.77
   2   1  -3   72.01    6.82
  -2  -1   3   68.55    7.56
   2   2  -3 1375.92   21.79
  -2  -2   3 1463.23   24.77
   2   3  -3  240.31   13.31
  -2  -3   3  242.31   16.47
   2   4  -3    3.09   11.23
  -2  -4   3  -23.34   15.22
   2   5  -3   29.43    6.92
  -2  -5   3   16.05   17.70
   2   6  -3  677.51   24.15
   2   7  -3   60.82    8.69
   2   8  -3   24.77    8.98
   2   9  -3   -0.15   17.17
   2  10  -3   14.60   17.84
   2  11  -3   12.21   11.20
  -1  11   2   43.23   12.46
  -1  10   2   -6.53   19.48
  -1   9   2  -11.42   16.91
  -1   8   2  -19.56   16.70
  -1   7   2   17.53    9.29
  -1   6   2   55.39    8.95
   1  -5  -2  136.20   10.59
  -1   5   2  198.49   15.23
   1  -4  -2    6.79   11.14
  -1   4   2  -10.96   11.43
   1  -3  -2  271.55   13.77
  -1   3   2  319.72   14.80
   1  -2  -231058.43   86.54
  -1   2   239709.62   97.01
  -1   1   2 1596.95   18.79
   1   0  -2    5.68    3.65
  -1   0   2    3.34    7.35
   1   1  -2   83.68    8.22
   1   2  -2  100.10    9.75
  -1  -2   2   96.58    9.24
   1   3  -2  154.20   11.64
  -1  -3   2  168.95   14.55
   1   4  -2  146.77   11.74
  -1  -4   2  117.82   10.92
   1   5  -2   69.35    6.57
  -1  -5   2   49.56    9.27
   1   6  -2    7.31   11.31
  -1  -6   2  -17.75   17.59
   1   7  -2  453.46   22.74
   1   8  -2   55.88    9.14
   1   9  -2    0.88   15.26
   1  10  -2    5.33   17.31
   1  11  -2   12.26   18.65
   1  12  -2  -18.27   20.68
   0  11   1   21.72   21.03
   0  10   1   19.00   20.45
   0   9   1    0.97   16.63
   0   8   1  -20.21   17.31
   0   7   1    6.54   15.34
   0   6   1  271.52   18.59
   0  -5  -1   10.85    9.90
   0   5   1   27.41    7.11
   0  -4  -1  887.48   23.16
   0   4   1 1244.60   24.76
   0  -3  -1  220.32   13.64
   0   3   1  284.14   14.05
   0  -2  -1 1015.20   17.59
   0   2   1 1403.13   19.90
   0   1   1    6.00    7.06
   0   0  -1   22.94    2.43
   0   0   1   31.28    3.12
   0   1  -1  414.27    8.27
   0   2  -1  298.89   10.39
   0   3  -1   43.02    5.60
   0  -3   1   55.94    7.29
   0   4  -1  654.80   18.03
   0  -4   1  668.17   19.50
   0   5  -1 2048.30   31.86
   0  -5   1 2162.96   33.94
   0   6  -1   21.65    6.88
   0  -6   1   24.15   16.25
   0   7  -1   19.74   13.49
   0   8  -1   20.56   13.85
   0   9  -1   19.93   15.37
   0  10  -1   62.94   10.94
   0  11  -1  -10.68   20.35
   0  12  -1  -17.88   20.99
   1  11   0   -5.24   20.12
   1  10   0   42.91   11.79
   1   9   0   -2.92   17.04
   1   8   0   77.44   10.14
   1   7   0   17.61   14.49
   1   6   0    2.32   13.75
  -1  -5   0  220.71   18.19
   1   5   0  282.04   17.42
  -1  -4   0  382.28   18.24
   1   4   0  479.20   18.39
  -1  -3   0  483.87   16.95
   1   3   0  682.95   17.68
  -1  -2   0    5.74   10.87
   1   2   0    4.92    9.40
   1   1   0   59.83    5.60
  -1   0   0  496.68    8.96
   1   0   0  694.11   10.11
  -1   1   0 5139.87   24.85
  -1   2   0   43.07    4.69
  -1   3   0   50.67    5.81
   1  -3   0   59.45    6.89
  -1   4   0  355.76   14.62
   1  -4   0  339.07   16.05
  -1   5   0  221.81   14.56
   1  -5   0  193.40   16.38
  -1   6   0  368.58   18.48
   1  -6   0  340.51   20.88
  -1   7   0    5.76   10.05
  -1   8   0  119.23   10.12
  -1   9   0   10.54   16.39
  -1  10   0    1.03   18.28
  -1  11   0   21.34   21.72
  -1  12   0  -20.44   20.03
   2  11  -1    9.49   21.05
   2  10  -1  -20.25   19.47
   2   9  -1   64.60   10.98
   2   8  -1   33.08    9.50
   2   7  -1   32.79    8.68
   2   6  -1   31.52    8.25
  -2  -5   1  107.05   10.03
   2   5  -1  110.59   10.64
  -2  -4   1  383.73   18.43
   2   4  -1  477.38   18.07
  -2  -3   1 1585.61   27.06
   2   3  -1 1995.10   28.60
  -2  -2   1  214.40   14.71
   2   2  -1  316.15   13.68
  -2  -1   1  283.50   13.93
   2   1  -1  395.73   12.86
  -2   0   1  124.89    9.94
   2   0  -1  167.33    9.20
  -2   1   1   57.41    5.20
  -2   2   1 1619.30   20.47
   2  -2  -1 1503.39   20.04
  -2   3   1  133.15   11.85
   2  -3  -1  115.18    8.64
  -2   4   1  207.27   13.24
   2  -4  -1  161.09   13.89
  -2   5   1   48.77    6.86
   2  -5  -1   40.59    7.58
  -2   6   1 1296.73   28.91
   2  -6  -1 1215.27   29.82
  -2   7   1   52.47    8.30
  -2   8   1  -27.14   15.51
  -2   9   1   40.92    9.86
  -2  10   1  -12.07   17.17
  -2  11   1   -9.27   20.59
  -2  12   1   -2.68   15.52
   3  10  -2   21.39   19.21
   3   9  -2    5.60   18.11
   3   8  -2   29.38    9.43
   3   7  -2   65.35    9.49
   3   6  -2   16.52    7.71
   3   5  -2  126.41   10.85
  -3  -4   2   37.06    8.93
   3   4  -2   44.73    6.58
  -3  -3   2  104.09    8.54
   3   3  -2  109.74    8.66
  -3  -2   2 1609.68   26.67
   3   2  -2 1864.61   27.23
  -3  -1   2 1526.33   24.70
   3   1  -2 1764.47   24.62
  -3   0   2   82.03    7.47
   3   0  -2  114.48   10.85
  -3   1   2  818.05   18.56
   3  -1  -2  815.29   17.38
  -3   2   2   55.94    6.94
   3  -2  -2   47.25    6.15
  -3   3   2  -13.23   11.31
   3  -3  -2    2.89   10.56
  -3   4   2  262.75   15.46
   3  -4  -2  241.39   15.19
  -3   5   2  348.74   17.29
   3  -5  -2  347.28   17.02
  -3   6   2  -16.96   13.52
   3  -6  -2   11.84   13.89
  -3   7   2   75.71    9.71
  -3   8   2  -29.14   16.21
  -3   9   2  -24.36   17.42
  -3  10   2   -6.13   17.35
  -3  11   2   42.95   11.84
  -3  12   2    9.38   19.46
   4  10  -3   11.95   19.05
   4   9  -3   67.23   11.90
   4   8  -3   26.73   10.00
   4   7  -3   12.92   15.62
   4   6  -3  289.49   21.88
   4   5  -3  -10.62   12.82
   4   4  -3  731.90   23.34
  -4  -3   3  -35.34   15.46
   4   3  -3    5.52    7.18
  -4  -2   3   63.87    8.61
   4   2  -3   79.79    6.50
  -4  -1   3  259.65   16.74
   4   1  -3  293.05   14.56
  -4   0   3  140.97   10.11
   4   0  -3  172.80   12.14
  -4   1   3  714.87   19.77
   4  -1  -3  687.64   17.88
  -4   2   3 1714.68   27.22
   4  -2  -3 1747.84   26.79
  -4   3   3  469.36   18.24
   4  -3  -3  437.23   16.93
  -4   4   3   66.87    8.00
   4  -4  -3   52.63    7.26
  -4   5   3  502.99   21.63
   4  -5  -3  502.04   20.21
  -4   6   3   12.97   15.48
  -4   7   3   -8.12   16.52
  -4   8   3   54.43   10.52
  -4   9   3   28.10   19.12
  -4  10   3    0.88   18.91
  -4  11   3    7.11   18.06
  -4  12   3  -25.88   22.19
   5   9  -4  -11.57   19.29
   5   8  -4   15.96   17.59
   5   7  -4    7.85   17.40
   5   6  -4   82.64   10.48
   5   5  -4  271.02   19.89
   5   4  -4   71.63    8.67
   5   3  -4  718.91   24.17
  -5  -2   4   51.87   10.25
   5   2  -4   63.90    7.07
  -5  -1   4   65.90    8.81
   5   1  -4   30.43    6.72
  -5   0   4   18.87    8.50
   5   0  -4   16.96    6.11
  -5   1   4  217.41   17.01
   5  -1  -4  219.28   14.72
  -5   2   4  267.03   17.96
   5  -2  -4  252.50   15.50
  -5   3   4  199.56   17.29
   5  -3  -4  194.29   15.18
  -5   4   4   57.55    9.49
   5  -4  -4   58.90    8.11
  -5   5   4   59.48    9.52
   5  -5  -4   32.95    8.32
  -5   6   4   50.46    9.40
  -5   7   4  -11.64   16.76
  -5   8   4    7.51   17.75
  -5   9   4   19.52   18.24
  -5  10   4   -3.40   20.12
  -5  11   4  -28.53   21.52
  -5  12   4   20.21   12.04
   6   9  -5  -15.40   20.80
   6   8  -5   -1.33   20.25
   6   7  -5   10.38    9.60
   6   6  -5    1.94   15.97
   6   5  -5  417.81   25.27
   6   4  -5   62.32    8.97
   6   3  -5  176.81   16.92
   6   2  -5  156.55   11.54
  -6  -1   5  307.95   22.54
   6   1  -5  374.48   18.33
  -6   0   5   45.12    9.99
   6   0  -5   33.08    7.15
  -6   1   5   98.08   10.12
   6  -1  -5   90.55    7.36
  -6   2   5  214.90   19.76
   6  -2  -5  225.56   16.81
  -6   3   5  148.31   13.68
   6  -3  -5  166.40   16.28
  -6   4   5  720.37   26.85
  -6   5   5   45.08   10.96
  -6   6   5   25.74   18.82
  -6   7   5   -0.99   17.57
  -6   8   5  -22.67   18.92
  -6   9   5    7.20   19.27
  -6  10   5   -2.43   23.08
  -6  11   5    0.00   21.58
  -6  12   5   12.87   22.57
   7   8  -6   23.50   11.46
   7   7  -6   25.72   18.56
   7   6  -6   -6.67   17.28
   7   5  -6  -13.91   15.64
   7   4  -6   14.22   16.49
   7   3  -6   45.42    8.86
   7   2  -6   14.40   14.44
   7   1  -6  251.25   18.39
  -7   0   6  676.65   29.38
   7   0  -6  779.14   26.00
  -7   1   6   -3.03   17.89
  -7   2   6  646.05   28.59
  -7   3   6   12.22   18.66
  -7   4   6   -6.16   19.09
  -7   5   6   87.22   12.47
  -7   6   6   14.95   18.79
  -7   7   6    3.50   19.50
  -7   8   6    0.97   19.91
  -7   9   6   15.06   20.95
  -7  10   6   51.23   13.26
  -7  11   6   -9.66   23.37
   8   7  -7    5.31   18.73
   8   6  -7   38.82   11.71
   8   5  -7    8.98   16.68
   8   4  -7   34.53   10.30
   8   3  -7  -20.42   18.30
   8   2  -7   52.81    9.59
   8   1  -7   15.25   13.87
  -8   0   7  -21.96   21.33
   8   0  -7  -13.27   15.44
  -8   1   7  160.69   15.71
  -8   2   7   14.76   20.92
  -8   3   7  127.34   12.80
  -8   4   7   87.25   12.41
  -8   5   7   51.14   12.66
  -8   6   7    2.95   19.88
  -8   7   7  -19.52   21.46
  -8   8   7   22.24   20.09
  -8   9   7   23.37   21.10
  -8  10   7   12.87   24.35
  -8  11   7   11.55   22.30
   9   6  -8   57.87   13.33
   9   5  -8   27.76   11.36
   9   4  -8   64.14   11.50
   9   3  -8  156.77   15.38
   9   2  -8   20.93   17.38
   9   1  -8  -27.28   17.05
  -9   0   8   13.09   22.69
   9   0  -8   24.09   16.36
  -9   1   8   22.96   21.69
  -9   2   8   29.14   21.69
  -9   3   8   87.34   13.79
  -9   4   8   -0.79   21.92
  -9   5   8   21.26   22.63
  -9   6   8   29.74   23.43
  -9   7   8   32.35   12.28
  -9   8   8  -25.79   23.21
  -9   9   8  -26.79   26.42
  -9  10   8    9.64   24.38
  10   5  -9   66.12   12.99
  10   4  -9   14.39   20.35
  10   3  -9    0.00   18.03
  10   2  -9    2.42   17.34
  10   1  -9   50.80   10.22
 -10   0   9  -11.60   23.97
  10   0  -9   24.23   10.30
 -10   1   9   30.86   23.47
 -10   2   9   13.33   24.75
 -10   3   9   39.47   13.18
 -10   4   9   46.17   14.13
 -10   5   9  -11.02   22.56
 -10   6   9    4.48   22.98
 -10   7   9   -1.09   24.72
 -10   8   9  -17.03   25.65
 -10   9   9   -8.44   25.45
  11   3 -10   11.61   14.17
  11   2 -10   27.63   19.93
  11   1 -10   24.00   19.54
 -11   0  10   22.70   18.89
  11   0 -10  -13.32   20.05
 -11   1  10   17.82   25.47
 -11   2  10   97.36   15.84
 -11   3  10   17.58   25.97
 -11   4  10  -33.49   25.62
 -11   5  10   23.55   25.76
 -11   6  10   21.24   18.19
 -11   7  10   -4.34   27.81
 -11   8  10   14.26   24.60
 -12   0  11    9.59   26.60
  12   0 -11   -5.62   18.72
 -12   1  11  -19.05   28.02
 -12   2  11  -17.92   27.40
 -12   3  11    2.43   26.63
 -12   4  11    9.65   27.30
 -12   5  11  -25.36   27.89
 -11   4  13  -71.27   31.23
 -11   3  13   11.10   31.39
 -11   2  13   -1.21   21.30
 -11   1  13   34.03   27.81
  11   0 -13  -36.01   21.37
 -11   0  13   15.23   27.31
  11   1 -13   61.16   12.14
 -10   6  12   17.89   28.40
 -10   5  12    8.89   28.85
 -10   4  12    0.29   27.17
 -10   3  12   19.60   27.39
 -10   2  12  -22.17   28.06
 -10   1  12   14.04   24.96
  10   0 -12   81.88   10.76
 -10   0  12   18.48   28.59
  10   1 -12   76.93   11.06
  10   2 -12   27.88   19.30
  10   3 -12   69.29   12.67
  10   4 -12  -12.60   19.95
  -9   8  11  -21.28   25.86
  -9   7  11   17.19   27.42
  -9   6  11   13.38   25.43
  -9   5  11   15.64   14.39
  -9   4  11  138.32   16.15
  -9   3  11    9.60   25.68
  -9   2  11   -5.01   24.48
  -9   1  11    9.06   24.06
   9   0 -11    9.66   16.71
  -9   0  11   26.75   24.87
   9   1 -11   33.93    9.93
   9   2 -11   19.18    9.67
   9   3 -11   85.75   11.91
   9   4 -11    9.88   16.86
   9   5 -11   22.77   20.96
   9   6 -11   -7.11   19.75
  -8   9  10    8.30   25.11
  -8   8  10    7.66   26.24
  -8   7  10  -25.06   25.43
  -8   6  10  -18.20   24.71
  -8   5  10   96.43   14.90
  -8   4  10    6.84   22.25
  -8   3  10   20.57   24.06
  -8   2  10  -12.60   23.59
  -8   1  10   -5.14   23.39
   8   0 -10   16.55   16.76
  -8   0  10   24.83   13.40
   8   1 -10   -0.07   15.76
   8   2 -10    9.63   15.93
   8   3 -10   28.31   10.02
   8   4 -10   51.52    9.66
   8   5 -10   48.18   11.01
   8   6 -10  -16.46   18.56
   8   7 -10   55.44   11.62
  -7  10   9  -65.23   27.16
  -7   9   9    4.22   24.09
  -7   8   9   31.21   24.77
  -7   7   9   94.08   14.38
  -7   6   9   31.46   23.22
  -7   5   9   71.87   13.32
  -7   4   9   23.35   21.63
  -7   3   9  -19.30   21.83
  -7   2   9  220.67   17.65
  -7   1   9  -17.67   22.15
   7   0  -9  132.22   12.56
  -7   0   9  124.83   13.62
   7   1  -9  105.90    9.22
   7   2  -9  387.66   23.46
   7   3  -9   65.42    8.91
   7   4  -9   58.46   10.36
   7   5  -9  -23.72   16.74
   7   6  -9   11.21   17.62
   7   7  -9   -3.90   19.51
   7   8  -9   35.61   12.32
  -6  10   8  -18.80   24.12
  -6   9   8   23.46   23.26
  -6   8   8   12.06   23.07
  -6   7   8    3.87   24.05
  -6   6   8   29.58   22.12
  -6   5   8   17.12   19.27
  -6   4   8  293.46   26.09
  -6   3   8   -2.40   19.81
  -6   2   8   29.05   20.24
  -6   1   8  149.31   13.03
   6   0  -8  377.57   18.91
  -6   0   8  362.62   25.69
   6   1  -8  115.14    8.76
   6   2  -8  234.45   17.40
   6   3  -8  155.63   12.27
   6   4  -8   34.47    8.81
   6   5  -8   18.11   14.87
   6   6  -8    0.05   14.97
   6   7  -8  -23.72   18.04
   6   8  -8   -6.31   20.05
   6   9  -8   -1.38   19.30
  -5  10   7   11.51   23.57
  -5   9   7   30.19   22.11
  -5   8   7  -15.54   22.90
  -5   7   7    6.64   19.82
  -5   6   7   62.06   12.13
  -5   5   7  198.11   16.57
  -5   4   7    0.39   18.70
  -5   3   7   -5.02   18.61
   5  -2  -7   82.99    7.64
  -5   2   7   58.39   11.48
   5  -1  -7  -13.58   12.23
  -5   1   7    9.98   17.17
   5   0  -7   24.10    6.92
  -5   0   7    1.09   18.71
   5   1  -7  559.85   21.70
  -5  -1   7  518.60   25.77
   5   2  -7   65.03    7.74
   5   3  -7  755.69   25.14
   5   4  -7   12.10   11.88
   5   5  -7   12.54   12.81
   5   6  -7  158.65   13.21
   5   7  -7    1.14   15.87
   5   8  -7  -13.56   17.93
   5   9  -7    2.58   17.76
   5  10  -7  -13.91   19.15
  -4  11   6    6.91   22.98
  -4  10   6    7.36   21.30
  -4   9   6  -26.00   21.05
  -4   8   6   22.17   18.11
  -4   7   6   -6.63   19.92
  -4   6   6    0.49   19.73
  -4   5   6   74.48   11.13
  -4   4   6   85.19   10.79
   4  -3  -6   -7.02   11.71
  -4   3   6   -8.01   17.02
   4  -2  -6  105.85    9.20
  -4   2   6   80.68   10.28
   4  -1  -6   50.47    6.49
  -4   1   6   22.56    9.54
   4   0  -6  315.83   15.74
  -4   0   6  310.35   19.32
   4   1  -6   10.70    9.93
  -4  -1   6   -5.69   16.13
   4   2  -6   29.00    5.97
  -4  -2   6   35.68    9.69
   4   3  -6  149.82   13.68
  -4  -3   6  145.27   14.32
   4   4  -6  319.39   18.23
   4   5  -6   46.95    7.73
   4   6  -6  335.75   20.45
   4   7  -6    8.33   16.41
   4   8  -6   41.59   10.17
   4   9  -6   13.92   12.64
   4  10  -6    7.93   19.80
  -3  11   5   15.14   22.91
  -3  10   5   29.10   21.34
  -3   9   5   84.92   11.98
  -3   8   5   19.37   10.31
  -3   7   5   41.91   10.94
  -3   6   5   -7.05   18.83
  -3   5   5  240.50   14.67
   3  -4  -5   12.37   12.42
  -3   4   5   16.82   16.59
   3  -3  -5   42.05    6.62
  -3   3   5   55.79    9.11
   3  -2  -5  782.08   21.15
  -3   2   5  871.07   23.77
   3  -1  -5   11.23    9.70
  -3   1   5  -11.55   14.00
   3   0  -5 2307.65   30.68
  -3   0   5 2152.79   31.35
   3   1  -5  309.74   14.62
  -3  -1   5  286.51   16.86
   3   2  -5  136.43   12.06
  -3  -2   5  132.54   11.69
   3   3  -5  136.65   12.71
  -3  -3   5  152.48   12.67
   3   4  -5  642.17   21.44
  -3  -4   5  660.74   25.82
   3   5  -5   43.57    7.47
   3   6  -5   49.07    8.09
   3   7  -5   11.49   15.50
   3   8  -5   42.78    9.53
   3   9  -5  -13.82   15.81
   3  10  -5    9.68   17.99
   3  11  -5   55.69   11.86
  -2  11   4  -23.06   21.92
  -2  10   4    8.18   21.52
  -2   9   4   -2.17   21.41
  -2   8   4   23.52   17.49
  -2   7   4   45.35   10.64
  -2   6   4   17.38   16.20
   2  -5  -4    5.68   14.60
  -2   5   4   42.65    9.39
   2  -4  -4 4001.93   45.86
  -2   4   4 4716.11   50.04
   2  -3  -4  253.09   14.53
  -2   3   4  289.79   17.24
   2  -2  -4    1.09   10.06
  -2   2   4  -16.68   13.25
   2  -1  -4   23.34    5.90
  -2   1   4   -1.25   14.06
   2   0  -4  624.56   16.31
  -2   0   4  613.63   18.25
   2   1  -4 1189.69   20.78
  -2  -1   4 1178.61   23.15
   2   2  -4  679.52   17.88
  -2  -2   4  693.24   20.86
   2   3  -4   32.31    5.92
  -2  -3   4   39.42    8.35
   2   4  -4   22.16    5.62
  -2  -4   4  -10.18   15.97
   2   5  -4  713.29   22.78
  -2  -5   4  774.40   27.39
   2   6  -4   12.54    6.74
   2   7  -4   74.12    8.59
   2   8  -4   -1.67   14.94
   2   9  -4   24.94    9.76
   2  10  -4    6.19   11.88
   2  11  -4   41.22   11.57
  -1  11   3   -8.16   19.38
  -1  10   3  -36.42   19.65
  -1   9   3   -1.10   17.70
  -1   8   3  144.05   14.34
  -1   7   3   17.63   17.10
  -1   6   3  160.51   13.32
   1  -5  -3   35.20    8.44
  -1   5   3   42.03    8.94
   1  -4  -3  245.73   16.16
  -1   4   3  289.25   18.08
   1  -3  -3    8.69   10.65
  -1   3   3   11.84    9.47
   1  -2  -3  184.07   12.94
  -1   2   3  251.17   15.50
   1  -1  -3  516.56   14.57
  -1   1   3  534.38   17.59
   1   0  -3  441.66   13.07
  -1   0   3  469.71   15.58
   1   1  -3 1262.26   19.21
  -1  -1   3 1344.82   21.64
   1   2  -3  912.23   17.85
  -1  -2   3 1076.73   21.48
   1   3  -3 4349.93   39.03
  -1  -3   3 4808.13   42.42
   1   4  -3   37.39    6.31
  -1  -4   3   62.32    8.46
   1   5  -3   95.05    9.01
  -1  -5   3   92.62   10.16
   1   6  -3   25.56    7.17
  -1  -6   3   20.88   18.55
   1   7  -3   21.27    7.43
   1   8  -3  294.54   19.65
   1   9  -3   -4.75   16.55
   1  10  -3    5.32   16.66
   1  11  -3  -13.66   19.19
   1  12  -3   38.00   11.36
   0  11   2   30.09   11.93
   0  10   2   43.97   11.53
   0   9   2   -7.39   17.69
   0   8   2    1.97   17.37
   0   7   2   44.25    9.80
   0   6   2   48.11    8.82
   0  -5  -2  174.03   16.61
   0   5   2  153.33   12.16
   0  -4  -2    4.80   11.68
   0   4   2   -1.64   12.70
   0  -3  -2    8.74   11.19
   0   3   2   42.31    6.62
   0  -2  -2  853.75   18.47
   0   2   2  960.41   20.48
   0  -1  -214485.17   58.07
   0   1   219573.91   66.93
   0   0  -2   79.36    6.31
   0   0   2  116.44   10.94
   0   1  -2   92.01    8.84
   0  -1   2   86.33    7.84
   0   2  -2  799.36   15.93
   0  -2   2  873.87   18.71
   0   3  -2  780.09   17.42
   0  -3   2  867.25   20.33
   0   4  -2  116.52   11.42
   0  -4   2  110.81    8.60
   0   5  -2   50.30    6.53
   0  -5   2   63.96    8.96
   0   6  -2  154.89   10.55
   0  -6   2  170.58   13.61
   0   7  -2   39.33    7.75
   0   8  -2  255.10   20.82
   0   9  -2  184.57   14.38
   0  10  -2   11.34   17.01
   0  11  -2  -28.79   18.31
   0  12  -2   19.21   20.36
   1  11   1   -6.94   21.02
   1  10   1    8.47   21.21
   1   9   1   64.22   10.53
   1   8   1    8.30   16.22
   1   7   1   37.64    9.30
   1   6   1  194.40   18.69
  -1  -5  -1  513.22   22.01
   1   5   1  643.52   24.40
  -1  -4  -1   14.94    7.31
   1   4   1   31.18    7.25
  -1  -3  -1  500.98   17.85
   1   3   1  689.93   19.53
  -1  -2  -1  192.16   13.25
   1   2   1  265.41   14.15
  -1  -1  -1  254.71   12.24
   1   1   1  343.54   13.80
  -1   0  -1 2437.08   22.93
   1   0   1 3239.53   26.30
  -1   1  -1  725.32   13.78
  -1   2  -1  150.20   10.54
   1  -2   1  175.79   12.36
  -1   3  -1  172.78   11.90
   1  -3   1  216.04   14.60
  -1   4  -1 2906.06   32.90
   1  -4   1 3163.85   35.43
  -1   5  -1   49.93    6.62
   1  -5   1   74.17    8.30
  -1   6  -1   34.66    7.08
   1  -6   1   20.32   16.55
  -1   7  -1   -5.67   13.67
  -1   8  -1   14.63    8.27
  -1   9  -1   13.13   14.39
  -1  10  -1   90.53   11.22
  -1  11  -1   -6.90   18.00
  -1  12  -1  -38.64   21.94
   2  10   0   -2.42   21.21
   2   9   0   42.21   10.88
   2   8   0  -39.31   17.95
   2   7   0   19.82   16.56
   2   6   0   11.86   15.00
   2   5   0   61.58    8.47
  -2  -4   0  181.53   16.66
   2   4   0  210.19   15.83
  -2  -3   0  231.95   15.85
   2   3   0  317.70   15.57
  -2  -2   0    1.85   10.90
   2   2   0  -18.77   10.53
  -2  -1   0  439.50   15.28
   2   1   0  623.34   16.66
  -2   0   0   43.97    5.90
   2   0   0   62.68    6.14
  -2   1   0  182.04   11.41
   2  -1   0  222.70   12.32
  -2   2   0 1306.94   19.88
   2  -2   0 1471.41   21.84
  -2   3   0  759.71   17.61
   2  -3   0  834.82   19.38
  -2   4   0   25.18    6.17
   2  -4   0   37.13    7.25
  -2   5   0   74.11    6.73
   2  -5   0   65.38    8.00
  -2   6   0   41.86    6.92
   2  -6   0  -19.34   16.99
  -2   7   0  178.11   17.08
  -2   8   0   -0.74   15.06
  -2   9   0  159.71   13.25
  -2  10   0    2.87   15.76
  -2  11   0   22.71   11.75
  -2  12   0   18.48   17.98
   3  10  -1   -6.60   22.44
   3   9  -1    0.08   19.53
   3   8  -1  105.35   12.31
   3   7  -1   33.49    9.25
   3   6  -1  280.21   20.94
   3   5  -1   22.40    8.09
  -3  -4   1   -1.67   15.17
   3   4  -1    2.72   12.76
  -3  -3   1  143.07   11.23
   3   3  -1  191.35   14.51
  -3  -2   1   45.20    7.66
   3   2  -1   71.14    6.77
  -3  -1   1    6.40   11.99
   3   1  -1   32.37    6.05
  -3   0   1 1467.35   23.34
   3   0  -1 2161.08   26.71
  -3   1   1  608.54   16.32
   3  -1  -1  653.99   16.97
  -3   2   1  106.16    8.54
   3  -2  -1  120.00    8.70
  -3   3   1 1057.72   21.40
   3  -3  -1 1240.69   22.89
  -3   4   1  171.61   13.38
   3  -4  -1  186.62   14.61
  -3   5   1   92.50    9.21
   3  -5  -1  122.36   10.27
  -3   6   1   92.98    8.49
   3  -6  -1  142.15   11.52
  -3   7   1  361.47   20.16
  -3   8   1  -18.89   15.73
  -3   9   1   -5.25   15.51
  -3  10   1   56.65   11.13
  -3  11   1  -10.49   17.72
  -3  12   1    8.00   21.21
   4  10  -2  -11.30   20.69
   4   9  -2   13.54   19.38
   4   8  -2   15.23   17.20
   4   7  -2   91.62   10.49
   4   6  -2   31.14    8.82
   4   5  -2  404.84   22.03
   4   4  -2  113.78   10.64
  -4  -3   2  -22.33   16.54
   4   3  -2   16.74   11.43
  -4  -2   2   -9.20   13.99
   4   2  -2  -15.89   11.67
  -4  -1   2  863.34   23.44
   4   1  -2 1100.36   23.11
  -4   0   2    5.35    7.13
   4   0  -2   12.21   10.32
  -4   1   2  253.80   14.84
   4  -1  -2  320.20   14.43
  -4   2   2  275.32   15.36
   4  -2  -2  308.69   15.59
  -4   3   2   74.66    7.30
   4  -3  -2   84.52    7.39
  -4   4   2  -28.50   12.52
   4  -4  -2    3.96   11.77
  -4   5   2    3.15   13.07
   4  -5  -2   -9.85   13.57
  -4   6   2   14.60   13.81
   4  -6  -2   26.01    8.39
  -4   7   2   21.03   14.08
  -4   8   2   83.83   10.09
  -4   9   2   -0.07   16.53
  -4  10   2   32.87   10.48
  -4  11   2   16.53   19.99
  -4  12   2   14.52   18.44
   5   9  -3   11.52   10.66
   5   8  -3    8.30   14.26
   5   7  -3  207.80   16.18
   5   6  -3   18.09   15.80
   5   5  -3   77.95    9.92
   5   4  -3   -9.11   14.72
   5   3  -3  378.46   20.58
  -5  -2   3   28.41    9.75
   5   2  -3   39.92    7.37
  -5  -1   3   58.67    9.13
   5   1  -3   63.96    7.22
  -5   0   3  510.69   20.36
   5   0  -3  686.02   20.76
  -5   1   3  399.69   19.06
   5  -1  -3  483.15   18.00
  -5   2   3 2384.79   35.11
   5  -2  -3 2688.63   36.49
  -5   3   3  247.09   16.92
   5  -3  -3  299.79   16.33
  -5   4   3   20.19   13.72
   5  -4  -3   10.52    7.59
  -5   5   3    7.75   14.88
   5  -5  -3   -1.12   13.72
  -5   6   3   30.45    8.93
  -5   7   3    2.62   16.12
  -5   8   3   66.98   10.47
  -5   9   3   25.73   10.02
  -5  10   3    7.60   18.78
  -5  11   3   -0.08   19.65
  -5  12   3    8.04   20.15
   6   9  -4  -41.72   22.33
   6   8  -4   15.45   21.16
   6   7  -4   15.90   17.29
   6   6  -4   11.08   17.11
   6   5  -4   38.82    9.72
   6   4  -4    3.88   14.74
   6   3  -4  115.81    9.34
   6   2  -4  326.64   19.23
  -6  -1   4  -17.46   17.83
   6   1  -4   14.42   11.79
  -6   0   4 1086.96   29.54
   6   0  -4 1344.24   29.65
  -6   1   4   12.96   15.72
   6  -1  -4   -0.07   12.04
  -6   2   4    3.58   15.83
   6  -2  -4   -1.69   12.12
  -6   3   4   32.36    8.96
   6  -3  -4   14.37   12.44
  -6   4   4   71.30    9.72
   6  -4  -4   62.66    8.71
  -6   5   4   44.14    9.37
  -6   6   4  -25.63   17.21
  -6   7   4    5.45   16.75
  -6   8   4   58.05   10.88
  -6   9   4   34.25   11.56
  -6  10   4    2.38   13.85
  -6  11   4   16.24   20.91
  -6  12   4   -7.10   21.53
   7   8  -5   16.81   20.70
   7   7  -5   30.76   10.52
   7   6  -5   36.68   10.79
   7   5  -5   24.33   16.91
   7   4  -5   11.90   15.68
   7   3  -5   13.69   13.16
   7   2  -5  137.96   12.04
   7   1  -5  563.23   23.62
  -7   0   5  -12.02   18.10
   7   0  -5   -3.34   12.36
  -7   1   5  121.49   11.28
  -7   2   5  220.44   20.59
  -7   3   5  160.32   14.81
  -7   4   5   55.48   10.79
  -7   5   5    3.09   17.61
  -7   6   5   13.35   18.48
  -7   7   5   86.89   11.69
  -7   8   5   18.12   13.47
  -7   9   5  -12.69   19.63
  -7  10   5   95.35   12.99
  -7  11   5  -14.67   23.06
   8   7  -6   19.29   20.81
   8   6  -6   58.62   11.84
   8   5  -6   93.23   11.88
   8   4  -6   19.40   15.25
   8   3  -6    1.79   15.82
   8   2  -6  -23.20   16.63
   8   1  -6   97.79    9.49
  -8   0   6   96.94   12.54
   8   0  -6  104.20   10.13
  -8   1   6  328.92   24.52
  -8   2   6    5.03   19.99
  -8   3   6   65.70   12.27
  -8   4   6   42.78   11.28
  -8   5   6    5.80   18.66
  -8   6   6   12.30   19.42
  -8   7   6   12.29   19.84
  -8   8   6   64.03   12.04
  -8   9   6   21.44   15.22
  -8  10   6   82.29   14.02
  -8  11   6   24.88   21.68
   9   6  -7    5.51   20.68
   9   5  -7   27.83   18.97
   9   4  -7  -23.02   18.25
   9   3  -7   14.84   17.28
   9   2  -7   14.50   12.40
   9   1  -7   81.21   11.09
  -9   0   7   76.04   13.13
   9   0  -7   73.37   10.44
  -9   1   7   75.86   12.59
  -9   2   7  125.70   14.12
  -9   3   7    1.75   20.81
  -9   4   7   20.60   21.15
  -9   5   7   23.30   19.79
  -9   6   7  -27.76   22.07
  -9   7   7  -13.47   22.01
  -9   8   7   -1.26   22.49
  -9   9   7    6.14   22.86
  -9  10   7  -24.34   22.38
  10   5  -8   11.35   22.42
  10   4  -8   17.05   20.50
  10   3  -8   25.41   10.29
  10   2  -8   -2.14   18.25
  10   1  -8   11.87   18.21
 -10   0   8  109.19   15.34
  10   0  -8  154.39   12.51
 -10   1   8   36.04   13.32
 -10   2   8  -36.94   21.70
 -10   3   8   16.20   22.35
 -10   4   8   25.68   20.61
 -10   5   8   -6.28   21.33
 -10   6   8  -20.93   23.64
 -10   7   8   28.15   23.34
 -10   8   8   22.32   15.79
 -10   9   8   -8.15   22.31
  11   3  -9    5.44   18.63
  11   2  -9   -3.86   19.06
  11   1  -9   22.36   18.11
 -11   0   9   31.85   14.82
  11   0  -9    4.94   18.94
 -11   1   9    3.54   22.81
 -11   2   9   -6.73   24.00
 -11   3   9   42.86   13.35
 -11   4   9    0.00   25.90
 -11   5   9   -0.22   23.11
 -11   6   9   -3.91   25.52
 -11   7   9  -37.74   25.07
 -11   8   9   -5.51   25.11
  12   1 -10   -2.77   18.24
 -12   0  10   11.02   26.12
  12   0 -10   19.13   20.36
 -12   1  10   26.77   26.01
 -12   2  10   25.49   27.95
 -12   3  10    5.39   26.67
 -12   4  10   19.83   24.55
 -12   5  10   19.28   28.45
 -12   6  10    2.71   25.94
 -10   5  13  -33.45   28.80
 -10   4  13   31.84   29.04
 -10   3  13   -6.45   26.44
 -10   2  13   35.21   27.50
 -10   1  13   41.12   29.02
  10   0 -13   -4.07   19.61
 -10   0  13   20.57   28.91
  10   1 -13   59.05   11.43
  10   2 -13   18.88   13.09
  10   3 -13  -36.31   21.03
  -9   7  12    8.63   30.53
  -9   6  12  -11.88   27.14
  -9   5  12   15.22   28.66
  -9   4  12  -21.47   26.30
  -9   3  12   18.38   18.62
  -9   2  12   22.65   26.10
  -9   1  12  -16.14   26.35
   9   0 -12   19.36   16.52
  -9   0  12  -37.82   27.47
   9   1 -12   11.64   18.50
   9   2 -12   -9.62   19.16
   9   3 -12   -7.60   19.03
   9   4 -12   -9.14   19.01
   9   5 -12   15.23   19.23
  -8   8  11   -1.53   25.72
  -8   7  11   16.87   26.07
  -8   6  11   24.37   26.42
  -8   5  11    5.48   25.22
  -8   4  11   26.74   26.34
  -8   3  11   20.66   27.29
  -8   2  11   52.70   14.06
  -8   1  11   11.85   26.09
   8   0 -11  251.31   22.07
  -8   0  11  206.78   16.51
   8   1 -11  -23.05   16.54
   8   2 -11   14.37   18.22
   8   3 -11    5.66    9.79
   8   4 -11   16.21   17.48
   8   5 -11    6.09   15.87
   8   6 -11   62.35   11.76
  -7   9  10   20.08   14.32
  -7   8  10  -25.23   25.25
  -7   7  10    9.50   23.81
  -7   6  10   40.05   14.61
  -7   5  10   24.44   21.49
  -7   4  10   -0.66   23.09
  -7   3  10   21.15   23.56
  -7   2  10  112.64   13.99
  -7   1  10  102.63   13.45
   7   0 -10  153.33   13.34
  -7   0  10  117.08   14.43
   7   1 -10   93.03    9.93
   7   2 -10   13.69   16.02
   7   3 -10   14.76   10.55
   7   4 -10  -19.15   16.01
   7   5 -10  -18.49   16.14
   7   6 -10   58.66   11.13
   7   7 -10  -10.52   19.64
   7   8 -10    5.75   19.56
  -6   9   9  -11.95   26.32
  -6   8   9   16.02   24.53
  -6   7   9   74.10   14.12
  -6   6   9    5.79   21.92
  -6   5   9   15.75   22.12
  -6   4   9  -12.17   22.89
  -6   3   9    4.58   21.50
  -6   2   9  -14.02   21.35
  -6   1   9  264.52   25.61
   6   0  -9   12.57   13.53
  -6   0   9  -22.75   21.93
   6   1  -9  482.59   23.78
   6   2  -9   11.53   13.12
   6   3  -9   17.15   13.34
   6   4  -9  244.39   20.98
   6   5  -9   30.37    9.04
   6   6  -9   14.93   15.89
   6   7  -9  -14.02   18.18
   6   8  -9   10.28   19.25
   6   9  -9   16.93   17.56
  -5  10   8   -7.09   24.95
  -5   9   8    6.51   25.73
  -5   8   8  -30.33   22.94
  -5   7   8    3.16   21.47
  -5   6   8   20.97   15.77
  -5   5   8    8.26   20.10
  -5   4   8   69.83   11.96
  -5   3   8  174.82   16.19
  -5   2   8   64.71   12.41
  -5   1   8   86.56   11.86
   5   0  -8  115.31   10.87
  -5   0   8   86.71   12.40
   5   1  -8   67.88    7.71
   5   2  -8  121.42   11.25
   5   3  -8   46.13    7.87
   5   4  -8  124.72    9.75
   5   5  -8   20.46   15.16
   5   6  -8  106.95   10.35
   5   7  -8   18.05    9.41
   5   8  -8   29.13   11.12
   5   9  -8  -14.25   19.00
  -4  10   7   -9.52   23.05
  -4   9   7   -2.61   22.63
  -4   8   7   14.88   14.66
  -4   7   7   -3.06   21.26
  -4   6   7   15.85   20.19
  -4   5   7   -0.27   19.59
  -4   4   7   67.46   12.00
  -4   3   7   84.54   11.36
   4  -2  -7  622.16   21.89
  -4   2   7  644.11   26.16
   4  -1  -7  103.33    9.44
  -4   1   7   95.57   11.17
   4   0  -7  218.71   15.77
  -4   0   7  211.63   20.36
   4   1  -7  148.58   14.35
  -4  -1   7  156.94   14.38
   4   2  -7  102.99    9.92
  -4  -2   7  121.34   11.45
   4   3  -7   84.65    7.99
   4   4  -7  124.50   10.95
   4   5  -7    2.97   13.08
   4   6  -7   40.87    8.95
   4   7  -7   13.16   15.76
   4   8  -7    8.49   16.18
   4   9  -7  125.08   11.88
   4  10  -7  -23.70   19.35
  -3  10   6  -29.69   23.86
  -3   9   6   -5.66   21.52
  -3   8   6   14.17   14.28
  -3   7   6  -13.67   20.86
  -3   6   6  465.84   27.08
  -3   5   6   46.60   11.12
  -3   4   6    8.31   18.04
   3  -3  -6    7.40   12.44
  -3   3   6   -9.23   18.05
   3  -2  -6  355.78   17.51
  -3   2   6  378.77   22.14
   3  -1  -6  500.20   18.77
  -3   1   6  529.13   22.83
   3   0  -6  788.81   21.18
  -3   0   6  707.49   23.67
   3   1  -6   15.75    5.77
  -3  -1   6   20.65   15.14
   3   2  -6    7.22   10.68
  -3  -2   6   15.17   16.60
   3   3  -6  642.67   20.74
  -3  -3   6  721.53   26.68
   3   4  -6    3.58   12.03
  -3  -4   6   25.24   19.17
   3   5  -6  323.81   19.52
   3   6  -6   11.89   12.63
   3   7  -6  219.74   20.25
   3   8  -6   21.26   15.05
   3   9  -6   67.87   10.84
   3  10  -6   12.60   10.12
   3  11  -6   13.72   19.61
  -2  10   5   27.97   23.24
  -2   9   5   13.37   20.58
  -2   8   5   27.47   19.48
  -2   7   5  -12.94   19.11
  -2   6   5   24.60   18.20
  -2   5   5   38.95   10.86
   2  -4  -5   11.61   12.91
  -2   4   5   -8.72   17.30
   2  -3  -5  167.25   14.55
  -2   3   5  214.08   19.00
   2  -2  -5  164.60   13.63
  -2   2   5  163.51   12.11
   2  -1  -5 1155.35   23.74
  -2   1   5 1238.43   26.06
   2   0  -5  154.08   12.04
  -2   0   5  164.05   10.67
   2   1  -5 1644.43   26.69
  -2  -1   5 1677.11   29.17
   2   2  -5   37.70    5.74
  -2  -2   5   39.78    8.49
   2   3  -5  131.92   12.85
  -2  -3   5  132.21   12.26
   2   4  -5   64.22    6.80
  -2  -4   5   56.74   10.77
   2   5  -5  413.98   18.81
  -2  -5   5  484.98   25.45
   2   6  -5  384.91   20.76
   2   7  -5    7.69   13.93
   2   8  -5   59.56    9.76
   2   9  -5    7.12   16.05
   2  10  -5   17.99   13.29
   2  11  -5  -14.35   19.03
  -1  10   4  -20.15   21.22
  -1   9   4   10.01   14.67
  -1   8   4    0.97   18.82
  -1   7   4   16.03   13.01
  -1   6   4    2.20   16.99
  -1   5   4   -5.61   16.88
   1  -4  -4  346.59   18.98
  -1   4   4  417.36   22.56
   1  -3  -4 7211.39   59.37
  -1   3   4 8827.70   65.47
   1  -2  -4  -20.18   10.28
  -1   2   4    2.25   13.37
   1  -1  -4   51.86    6.08
  -1   1   4   65.10    7.85
   1   0  -4  312.30   13.64
  -1   0   4  366.83   17.25
   1   1  -4  521.86   16.10
  -1  -1   4  578.27   18.76
   1   2  -4  -18.24    9.87
  -1  -2   4   13.48   13.32
   1   3  -4   22.64    5.83
  -1  -3   4   12.95   14.91
   1   4  -4   53.72    6.25
  -1  -4   4   60.72    9.57
   1   5  -4   24.64    6.68
  -1  -5   4   65.54   10.37
   1   6  -4  737.84   24.77
   1   7  -4  402.71   22.52
   1   8  -4   62.61    9.13
   1   9  -4    1.07   15.43
   1  10  -4   22.09    9.79
   1  11  -4   26.14   21.09
   1  12  -4   21.29   14.34
   0  10   3   10.08   21.21
   0   9   3  -17.91   19.46
   0   8   3   46.23   10.71
   0   7   3   55.05   10.79
   0   6   3   13.89   15.63
   0   5   3  280.09   21.21
   0  -4  -3   51.96    8.09
   0   4   3   59.90    9.04
   0  -3  -3  290.09   15.88
   0   3   3  363.21   18.49
   0  -2  -3  759.68   19.80
   0   2   3  885.00   21.97
   0  -1  -3  219.52   13.23
   0   1   3  276.42   16.15
   0   0  -3   65.81    5.87
   0   0   3   72.29    8.02
   0   1  -3  288.11   13.00
   0  -1   3  338.64   16.70
   0   2  -3 2264.83   27.62
   0  -2   3 2718.78   31.89
   0   3  -3   84.78    6.24
   0  -3   3   92.63    8.41
   0   4  -3  443.54   16.74
   0  -4   3  544.88   20.84
   0   5  -3    7.70   10.61
   0  -5   3    8.25   15.99
   0   6  -3   24.20    6.87
   0  -6   3   -4.27   18.70
   0   7  -3  -10.79   12.87
   0   8  -3  315.15   20.21
   0   9  -3    4.60   14.56
   0  10  -3  -11.60   17.52
   0  11  -3   27.81   11.59
   0  12  -3   -1.22   19.69
   1  10   2  -32.18   22.61
   1   9   2    0.99   18.19
   1   8   2    9.13   17.36
   1   7   2    7.07   12.39
   1   6   2   23.73   15.94
   1   5   2   18.31   14.91
  -1  -4  -2   39.58    8.12
   1   4   2   57.45    8.55
  -1  -3  -2   18.90    7.19
   1   3   2   31.20    7.69
  -1  -2  -2  107.83    8.73
   1   2   2  129.77    9.57
  -1  -1  -2  137.12   11.88
   1   1   2  160.11   13.93
  -1   0  -2  764.67   17.41
   1   0   2 1039.60   21.20
  -1   1  -2  362.78   13.50
   1  -1   2  448.74   16.87
  -1   2  -2   96.93    7.48
   1  -2   2  104.00    9.98
  -1   3  -2    5.78    9.40
   1  -3   2   -6.75   13.14
  -1   4  -2   38.54    5.96
   1  -4   2   35.87    8.13
  -1   5  -2 1158.60   25.12
   1  -5   2 1415.24   29.60
  -1   6  -2   -0.49   11.21
   1  -6   2   12.39   16.87
  -1   7  -2  360.21   20.96
  -1   8  -2   12.92   13.66
  -1   9  -2   28.77    9.00
  -1  10  -2   -7.01   17.70
  -1  11  -2   -5.72   17.29
  -1  12  -2   17.29   20.03
   2  10   1   23.98   21.73
   2   9   1   12.91   11.10
   2   8   1   28.87   19.57
   2   7   1  -43.82   19.79
   2   6   1   -1.53   16.03
   2   5   1  112.30    9.86
  -2  -4  -1   36.66    8.49
   2   4   1   40.34    8.35
  -2  -3  -1   28.50    7.62
   2   3   1   29.00    7.33
  -2  -2  -1  289.36   15.70
   2   2   1  349.94   16.79
  -2  -1  -1  160.81   13.23
   2   1   1  234.58   14.03
  -2   0  -1   81.49    6.36
   2   0   1   98.36    8.75
  -2   1  -1  362.37   14.06
   2  -1   1  446.56   17.15
  -2   2  -1  195.26   12.41
   2  -2   1  211.03   15.09
  -2   3  -1  246.81   13.08
   2  -3   1  280.41   15.99
  -2   4  -1  159.59   12.45
   2  -4   1  209.65   15.68
  -2   5  -1 1621.37   29.43
   2  -5   1 1946.49   33.01
  -2   6  -1    6.59    8.40
   2  -6   1    9.55   11.42
  -2   7  -1    7.73   12.32
  -2   8  -1  307.30   20.52
  -2   9  -1   17.75    8.90
  -2  10  -1   21.06   18.79
  -2  11  -1   -9.23   16.76
  -2  12  -1  -20.98   20.50
   3  10   0   10.98   20.57
   3   9   0   14.71   22.42
   3   8   0    5.35   18.62
   3   7   0   58.93   11.69
   3   6   0   55.80    9.96
   3   5   0   18.60    8.71
   3   4   0   13.77   13.09
  -3  -3   0  844.96   25.93
   3   3   0 1044.03   26.23
  -3  -2   0  136.11   10.53
   3   2   0  191.36   14.12
  -3  -1   0  177.03   14.19
   3   1   0  213.30   14.76
  -3   0   0  467.95   16.63
   3   0   0  616.88   17.95
  -3   1   0   38.27    6.24
   3  -1   0   45.71    6.73
  -3   2   0   53.07    6.73
   3  -2   0   63.57    7.41
  -3   3   0    1.00   10.07
   3  -3   0   -0.47   11.88
  -3   4   0   10.97   10.63
   3  -4   0   16.95   12.80
  -3   5   0   24.37    6.85
   3  -5   0   12.47   14.41
  -3   6   0  290.20   16.69
   3  -6   0  315.70   21.15
  -3   7   0   10.26   13.56
  -3   8   0  150.11   13.13
  -3   9   0   11.49   15.82
  -3  10   0   28.99   10.39
  -3  11   0   14.90   17.66
  -3  12   0   24.54   20.36
   4   9  -1   44.68   12.32
   4   8  -1  -16.09   20.25
   4   7  -1   27.42   18.80
   4   6  -1  -36.06   16.40
   4   5  -1  261.44   21.28
   4   4  -1   20.08    8.45
  -4  -3   1   49.22    9.65
   4   3  -1   64.68    8.17
  -4  -2   1  322.56   19.33
   4   2  -1  376.03   18.48
  -4  -1   1  152.10   10.92
   4   1  -1  194.54   14.44
  -4   0   1 2698.73   35.59
   4   0  -1 3355.78   38.75
  -4   1   1  609.79   18.79
   4  -1  -1  652.80   19.25
  -4   2   1   28.85    6.95
   4  -2  -1   50.76    6.98
  -4   3   1  -22.13   12.03
   4  -3  -1   12.62   12.03
  -4   4   1   20.24    6.75
   4  -4  -1    3.50   13.10
  -4   5   1   18.42   13.25
   4  -5  -1   39.80    8.61
  -4   6   1   23.68    7.84
   4  -6  -1   19.02   15.39
  -4   7   1   97.64    9.25
  -4   8   1   16.88   14.45
  -4   9   1   11.53   16.14
  -4  10   1   24.56   17.13
  -4  11   1   16.19   18.38
  -4  12   1   15.56   19.78
   5   9  -2    9.77   21.40
   5   8  -2   -8.73   19.98
   5   7  -2   12.99   18.88
   5   6  -2   59.26   10.59
   5   5  -2   16.85   15.20
   5   4  -2   -9.72   15.08
   5   3  -2    1.23   13.47
  -5  -2   2  621.77   25.24
   5   2  -2  748.47   23.51
  -5  -1   2   17.81   14.64
   5   1  -2   -2.14   11.81
  -5   0   2   11.38   10.08
   5   0  -2   22.05    7.13
  -5   1   2   80.44    8.31
   5  -1  -2   83.94    7.67
  -5   2   2  200.71   16.50
   5  -2  -2  228.86   16.46
  -5   3   2    7.11   12.54
   5  -3  -2  -16.88   12.68
  -5   4   2    6.72   13.88
   5  -4  -2   10.45    8.21
  -5   5   2   50.00    8.30
   5  -5  -2   50.65    9.05
  -5   6   2    7.64   14.53
  -5   7   2   96.89   10.07
  -5   8   2    4.14   15.59
  -5   9   2    1.91   17.00
  -5  10   2    0.95   19.14
  -5  11   2    7.15   19.35
  -5  12   2  -21.38   21.38
   6   8  -3   -5.40   21.52
   6   7  -3  -11.98   19.20
   6   6  -3   34.09   11.03
   6   5  -3    9.36   17.09
   6   4  -3  119.20   10.67
   6   3  -3  312.57   21.20
   6   2  -3   15.21   14.30
   6   1  -3   78.50    8.54
  -6   0   3  244.68   19.32
   6   0  -3  222.44   15.95
  -6   1   3   75.20    9.34
   6  -1  -3   69.74    8.28
  -6   2   3   39.32    9.06
   6  -2  -3   47.85    7.96
  -6   3   3   12.86   16.31
   6  -3  -3   -1.14   14.03
  -6   4   3   70.02    9.28
   6  -4  -3   76.88    9.16
  -6   5   3  208.39   18.79
  -6   6   3   24.38    8.89
  -6   7   3   -5.27   17.09
  -6   8   3  222.98   20.65
  -6   9   3   53.29   11.33
  -6  10   3   -6.58   18.79
  -6  11   3   14.79   13.93
  -6  12   3   19.46   20.71
   7   8  -4   23.31   20.39
   7   7  -4   10.33   18.94
   7   6  -4    3.55   18.72
   7   5  -4   -3.27   17.05
   7   4  -4  -10.38   16.59
   7   3  -4   83.18   10.12
   7   2  -4  219.51   20.68
   7   1  -4  702.09   26.78
  -7   0   4   13.73   18.20
   7   0  -4   10.86   13.87
  -7   1   4  189.53   15.09
  -7   2   4  -21.02   17.27
  -7   3   4   22.74   16.53
  -7   4   4  112.83   11.22
  -7   5   4    5.19   17.24
  -7   6   4  176.48   14.37
  -7   7   4  102.67   11.92
  -7   8   4  269.23   24.20
  -7   9   4   69.31   11.65
  -7  10   4   25.13   21.71
  -7  11   4    7.68   20.54
  -7  12   4   27.29   19.90
   8   7  -5   14.12   17.45
   8   6  -5   12.77   19.46
   8   5  -5   -6.89   19.31
   8   4  -5   28.33   10.12
   8   3  -5  118.66   11.32
   8   2  -5   52.52   10.18
   8   1  -5   61.73    9.52
  -8   0   5   90.98   12.57
   8   0  -5   87.81   10.31
  -8   1   5   50.84   11.38
  -8   2   5   83.69   11.65
  -8   3   5  -38.44   18.64
  -8   4   5    9.79   12.93
  -8   5   5    3.42   17.73
  -8   6   5   22.65   18.80
  -8   7   5  -16.84   20.10
  -8   8   5   14.32   19.65
  -8   9   5    1.19   19.88
  -8  10   5   12.33   21.93
  -8  11   5  -23.15   23.07
   9   6  -6   -5.52   22.07
   9   5  -6   24.49   11.15
   9   4  -6   59.75   11.39
   9   3  -6   25.49    9.88
   9   2  -6  104.27   11.91
   9   1  -6   43.78   11.01
  -9   0   6   27.73   20.78
   9   0  -6   21.19   16.19
  -9   1   6   -1.00   19.70
  -9   2   6  -19.91   20.58
  -9   3   6   -5.10   20.78
  -9   4   6   11.46   19.78
  -9   5   6   79.17   12.83
  -9   6   6   46.05   11.91
  -9   7   6   19.51   14.38
  -9   8   6   24.53   20.11
  -9   9   6  -50.28   23.37
  -9  10   6  -24.93   23.45
  -9  11   6  -17.31   25.00
  10   4  -7    5.25   18.60
  10   3  -7    1.16   19.59
  10   2  -7   29.05   19.48
  10   1  -7   -8.60   19.10
 -10   0   7  -11.27   22.67
  10   0  -7  -15.52   17.44
 -10   1   7    3.07   22.90
 -10   2   7   -1.78   21.58
 -10   3   7   10.23   22.47
 -10   4   7   18.97   11.96
 -10   5   7   29.15   21.46
 -10   6   7   14.16   22.55
 -10   7   7  -23.33   23.78
 -10   8   7  -19.56   22.68
 -10   9   7   23.68   22.23
 -10  10   7    8.56   23.41
  11   3  -8   -0.61   11.87
  11   2  -8   18.53   19.99
  11   1  -8    3.93   20.46
 -11   0   8   -0.95   24.32
  11   0  -8   -3.40   21.21
 -11   1   8   55.16   14.68
 -11   2   8   -1.43   24.96
 -11   3   8    4.32   24.41
 -11   4   8   22.83   13.00
 -11   5   8  -64.11   24.81
 -11   6   8  -19.77   25.56
 -11   7   8   32.41   23.37
 -11   8   8   41.76   13.83
  12   1  -9   22.60   19.71
 -12   0   9   27.29   25.19
  12   0  -9   15.00   20.44
 -12   1   9   -2.68   25.93
 -12   2   9   13.41   25.77
 -12   3   9  -22.50   26.84
 -12   4   9  -15.49   27.25
 -12   5   9  -35.85   26.52
 -12   6   9  -17.81   25.22
 -12   7   9    7.19   24.87
 -10   3  14    4.33   30.06
 -10   2  14   10.11   29.70
 -10   1  14   33.67   27.60
  10   0 -14   40.96   12.04
 -10   0  14  -25.54   31.25
  10   1 -14  -21.17   20.95
  -9   5  13   16.43   30.55
  -9   4  13   41.05   28.86
  -9   3  13    1.29   29.00
  -9   2  13   77.77   16.18
  -9   1  13  -18.98   28.76
   9   0 -13   13.57   19.43
  -9   0  13  -24.95   28.26
   9   1 -13   16.44   19.45
   9   2 -13   11.47   12.96
   9   3 -13  -16.04   17.88
   9   4 -13   71.83   11.52
  -8   7  12  -12.78   29.31
  -8   6  12  -21.42   20.34
  -8   5  12   10.95   26.21
  -8   4  12   14.04   26.70
  -8   3  12  -36.69   27.22
  -8   2  12   38.13   15.32
  -8   1  12   52.68   14.42
   8   0 -12   18.49   16.67
  -8   0  12   31.45   23.69
   8   1 -12   12.25   18.03
   8   2 -12    4.47   17.07
   8   3 -12   10.53   16.58
   8   4 -12   69.80   11.93
   8   5 -12    7.89   18.61
   8   6 -12   41.68   11.33
  -7   8  11   31.51   26.76
  -7   7  11  -11.74   25.98
  -7   6  11   34.89   15.25
  -7   5  11   12.96   17.25
  -7   4  11  -31.63   24.04
  -7   3  11  121.33   14.52
  -7   2  11  -11.77   23.43
  -7   1  11  172.09   15.35
   7   0 -11    4.87   16.58
  -7   0  11    5.89   23.67
   7   1 -11   44.82    9.78
   7   2 -11  150.49   14.17
   7   3 -11   60.52   10.99
   7   4 -11    9.65   15.62
   7   5 -11    2.38   18.20
   7   6 -11   11.50   19.63
   7   7 -11    5.62   18.90
  -6   8  10  -25.06   27.76
  -6   7  10    1.34   24.77
  -6   6  10  -11.09   24.66
  -6   5  10   36.22   26.57
  -6   4  10   -4.67   22.70
  -6   3  10   31.72   22.30
  -6   2  10   85.20   14.07
  -6   1  10  -46.31   21.65
   6   0 -10   70.00    9.10
  -6   0  10   84.97   13.00
   6   1 -10   13.47   15.75
   6   2 -10  -10.22   15.15
   6   3 -10   35.71    9.57
   6   4 -10   72.72   10.39
   6   5 -10   11.36   17.06
   6   6 -10   45.24   11.32
   6   7 -10  -19.70   18.43
   6   8 -10    3.94   20.37
  -5   9   9  -19.21   26.82
  -5   8   9  -10.00   25.07
  -5   7   9  -26.82   24.18
  -5   6   9  -10.17   21.46
  -5   5   9   21.50   20.56
  -5   4   9   71.61   13.57
  -5   3   9   10.61   21.05
  -5   2   9   82.86   12.48
  -5   1   9   25.53   21.73
   5   0  -9   -7.96   14.20
  -5   0   9   14.61   20.52
   5   1  -9   71.34    8.90
   5   2  -9  229.60   18.45
   5   3  -9   11.74   13.55
   5   4  -9    5.88   15.36
   5   5  -9   14.11   14.96
   5   6  -9   15.32   16.54
   5   7  -9  101.83   11.33
   5   8  -9   12.22   10.22
   5   9  -9   65.93   12.20
  -4   9   8   14.51   22.88
  -4   8   8   44.60   13.78
  -4   7   8   24.22   22.50
  -4   6   8   -0.67   22.76
  -4   5   8    4.41   20.33
  -4   4   8   96.67   12.53
  -4   3   8   25.48   22.04
  -4   2   8  196.28   17.06
  -4   1   8   53.24   11.63
   4   0  -8   15.82    6.58
  -4   0   8   29.72   11.40
   4   1  -8  248.95   17.41
   4   2  -8   10.77    7.89
   4   3  -8  533.34   23.94
   4   4  -8   12.66   14.65
   4   5  -8  583.72   25.02
   4   6  -8   18.54    8.19
   4   7  -8    3.86   15.96
   4   8  -8    1.16   16.25
   4   9  -8    6.12   18.93
   4  10  -8   13.65   18.42
  -3  10   7  -15.34   22.83
  -3   9   7   -7.41   23.98
  -3   8   7  -13.65   22.64
  -3   7   7   17.73   15.03
  -3   6   7   16.91   21.13
  -3   5   7   46.77   11.99
  -3   4   7    2.31   21.27
  -3   3   7  376.53   26.13
  -3   2   7  -12.07   20.52
   3  -1  -7   39.86    7.09
  -3   1   7   26.06   19.19
   3   0  -7    6.01   11.39
  -3   0   7   10.32   16.61
   3   1  -7   -9.87   11.70
  -3  -1   7   27.06   10.04
   3   2  -7  116.35    9.04
  -3  -2   7  106.11   11.41
   3   3  -7  883.71   25.75
   3   4  -7  269.51   17.50
   3   5  -7   34.58    7.68
   3   6  -7   87.85    8.79
   3   7  -7   48.44    9.38
   3   8  -7   48.83   10.06
   3   9  -7   22.57   17.83
   3  10  -7   61.14   10.61
   3  11  -7   21.26   20.09
  -2  10   6   -8.32   22.78
  -2   9   6   24.40   23.52
  -2   8   6   16.54   14.24
  -2   7   6    0.97   20.22
  -2   6   6   83.65   12.48
  -2   5   6 2027.89   44.47
  -2   4   6   -4.60   18.88
  -2   3   6   50.21   11.03
   2  -2  -6   53.82    7.52
  -2   2   6   74.32   10.63
   2  -1  -6    9.90    7.99
  -2   1   6   10.00   16.22
   2   0  -6   30.99    5.98
  -2   0   6   22.57   15.42
   2   1  -6    4.30   11.34
  -2  -1   6   -9.24   16.67
   2   2  -6   -5.05    9.89
  -2  -2   6  -17.89   16.10
   2   3  -6  -22.61   10.97
  -2  -3   6   -4.95   17.35
   2   4  -6 1071.02   27.89
  -2  -4   6 1245.80   33.40
   2   5  -6  309.82   17.75
   2   6  -6   83.26    8.69
   2   7  -6   -2.46   14.51
   2   8  -6  -25.03   16.09
   2   9  -6   24.21    9.64
   2  10  -6   63.81   11.98
   2  11  -6   14.75   18.91
  -1  10   5   27.27   21.48
  -1   9   5   19.43   19.65
  -1   8   5   17.10   14.14
  -1   7   5   84.89   11.81
  -1   6   5    9.99   20.44
  -1   5   5  189.69   15.24
  -1   4   5  166.71   14.23
   1  -3  -5  -13.62   11.98
  -1   3   5    3.73   17.20
   1  -2  -5   -0.93   11.77
  -1   2   5    9.52   16.45
   1  -1  -5  144.13    9.27
  -1   1   5  149.41   11.99
   1   0  -5  279.60   14.75
  -1   0   5  272.11   18.17
   1   1  -5  474.00   16.96
  -1  -1   5  502.46   21.42
   1   2  -5 1609.51   28.13
  -1  -2   5 1778.58   31.47
   1   3  -5   55.85    6.19
  -1  -3   5   75.74    9.46
   1   4  -5   50.58    6.81
  -1  -4   5   75.99   10.52
   1   5  -5   -5.81   11.35
  -1  -5   5  -26.08   19.08
   1   6  -5  537.93   23.08
   1   7  -5   62.14    9.35
   1   8  -5   -5.19   15.20
   1   9  -5   23.66   16.07
   1  10  -5  -32.55   18.06
   1  11  -5   54.21   11.41
   1  12  -5  -38.71   21.21
   0  10   4   12.25   21.36
   0   9   4   -7.32   22.54
   0   8   4   -4.39   19.77
   0   7   4    6.47   18.52
   0   6   4   52.52   10.90
   0   5   4   25.06   17.44
   0   4   4   56.96   10.21
   0  -3  -4  -15.83   12.32
   0   3   4  -11.13   16.17
   0  -2  -4    9.52   10.97
   0   2   4   13.47   15.32
   0  -1  -4    2.57   10.10
   0   1   4    9.63   10.07
   0   0  -4   71.00    6.50
   0   0   4   74.42    8.55
   0   1  -4   12.54    5.60
   0  -1   4    2.08   14.16
   0   2  -4    3.55   10.32
   0  -2   4   32.28    8.15
   0   3  -4 1544.49   27.65
   0  -3   4 1962.05   32.62
   0   4  -4   49.79    6.24
   0  -4   4   39.51    9.82
   0   5  -4  686.42   22.09
   0  -5   4  877.29   28.12
   0   6  -4   65.79    7.99
   0   7  -4   13.76   12.58
   0   8  -4   92.93    9.95
   0   9  -4   15.63   10.96
   0  10  -4   -7.50   17.57
   0  11  -4  -15.69   19.22
   0  12  -4    2.75   20.04
   1  10   3    0.16   21.00
   1   9   3   -1.33   15.14
   1   8   3  -18.73   19.13
   1   7   3   63.81   10.81
   1   6   3   96.18   11.02
   1   5   3   20.95    9.55
   1   4   3  -10.37   16.21
  -1  -3  -3   11.04   12.55
   1   3   3  -20.26   16.18
  -1  -2  -3   14.28   12.11
   1   2   3   29.96    8.59
  -1  -1  -3   -9.22   10.97
   1   1   3    0.95   13.78
  -1   0  -3   -5.63   10.40
   1   0   3  -16.83   13.19
  -1   1  -3  199.23   12.98
   1  -1   3  255.92   16.36
  -1   2  -3  174.91   12.61
   1  -2   3  204.15   16.55
  -1   3  -3 3403.49   38.24
   1  -3   3 4282.35   44.30
  -1   4  -3  207.42   13.86
   1  -4   3  296.29   18.39
  -1   5  -3    6.63   10.01
   1  -5   3   -7.25   16.15
  -1   6  -3  564.95   21.97
  -1   7  -3   30.03    7.93
  -1   8  -3   70.56    9.69
  -1   9  -3  -13.73   15.09
  -1  10  -3   49.99    9.99
  -1  11  -3  -16.55   19.78
  -1  12  -3   88.61   12.35
   2   9   2  -49.82   24.34
   2   8   2   -1.13   19.40
   2   7   2   -7.05   19.15
   2   6   2    6.97   17.03
   2   5   2  260.36   21.31
   2   4   2  128.38   10.29
  -2  -3  -2   59.15    8.43
   2   3   2   59.72    9.07
  -2  -2  -2  232.51   16.70
   2   2   2  250.76   17.58
  -2  -1  -2    1.73   11.38
   2   1   2   -9.34   13.21
  -2   0  -2    1.96   10.14
   2   0   2    9.69   12.87
  -2   1  -2   36.05    6.12
   2  -1   2   33.50    7.85
  -2   2  -2  293.23   14.34
   2  -2   2  335.04   17.30
  -2   3  -2   23.08    6.06
   2  -3   2    9.60   14.40
  -2   4  -2  491.46   18.15
   2  -4   2  590.61   22.55
  -2   5  -2   -8.99   11.02
   2  -5   2  -13.17   16.03
  -2   6  -2  180.04   11.18
   2  -6   2  259.58   21.06
  -2   7  -2  -33.11   15.08
  -2   8  -2  124.47   11.50
  -2   9  -2  -16.24   16.18
  -2  10  -2   67.93   11.59
  -2  11  -2  -11.53   18.82
  -2  12  -2    1.45   19.30
   3   9   1    1.33   23.25
   3   8   1    9.45   18.62
   3   7   1   85.38   12.96
   3   6   1  -14.19   17.19
   3   5   1   35.71    9.26
   3   4   1   93.16   10.31
   3   3   1    2.38   14.37
  -3  -2  -1 1123.96   27.21
   3   2   1 1023.06   27.14
  -3  -1  -1  483.79   19.36
   3   1   1  519.91   19.56
  -3   0  -1  171.77   13.79
   3   0   1  180.46   15.87
  -3   1  -1   13.95    6.16
   3  -1   1   22.84    7.17
  -3   2  -1  442.59   17.20
   3  -2   1  564.12   20.01
  -3   3  -1  -17.43   11.00
   3  -3   1  -22.75   14.15
  -3   4  -1    7.04   10.44
   3  -4   1   -7.26   14.52
  -3   5  -1  160.03   15.15
   3  -5   1  234.98   18.74
  -3   6  -1   -4.59   12.93
   3  -6   1   29.40    9.50
  -3   7  -1   25.81    8.27
  -3   8  -1   29.16    8.75
  -3   9  -1   16.56    8.79
  -3  10  -1   14.34   11.28
  -3  11  -1   20.85   18.74
  -3  12  -1  -52.38   20.34
   4   9   0   23.71   18.07
   4   8   0   24.97   12.78
   4   7   0   20.66   17.97
   4   6   0   12.45   16.51
   4   5   0   -1.77   16.37
   4   4   0  156.80   13.86
   4   3   0  -18.18   15.92
  -4  -2   0    7.10   13.29
   4   2   0  -13.99   13.93
  -4  -1   0  131.06   10.72
   4   1   0  123.44   10.77
  -4   0   0  200.79   15.38
   4   0   0  247.67   17.04
  -4   1   0   16.69    7.00
   4  -1   0   33.75    7.62
  -4   2   0   69.38    7.40
   4  -2   0   86.43    8.37
  -4   3   0   92.44    7.31
   4  -3   0  110.51   10.43
  -4   4   0   16.59   11.86
   4  -4   0   19.27   14.98
  -4   5   0  287.63   17.43
   4  -5   0  330.89   20.62
  -4   6   0   19.51    7.79
  -4   7   0   15.08   14.02
  -4   8   0   -7.00   14.94
  -4   9   0   -3.65   14.64
  -4  10   0   51.85   10.56
  -4  11   0   22.36   18.37
  -4  12   0  -49.03   20.93
   5   8  -1   36.59   12.98
   5   7  -1   18.85   20.04
   5   6  -1   57.14   11.07
   5   5  -1   86.07   10.81
   5   4  -1   32.98    9.37
   5   3  -1   53.93    9.22
   5   2  -1   90.05    9.07
  -5  -1   1   -0.48   15.00
   5   1  -1   11.52   12.79
  -5   0   1   13.15   13.72
   5   0  -1  -15.52   13.52
  -5   1   1  210.16   17.63
   5  -1  -1  267.30   18.76
  -5   2   1   98.79    8.56
   5  -2  -1  135.39   10.89
  -5   3   1  277.59   17.53
   5  -3  -1  341.82   18.99
  -5   4   1   -0.45   13.56
   5  -4  -1    2.85   14.36
  -5   5   1   93.66    8.84
  -5   6   1  286.94   19.67
  -5   7   1  196.05   18.69
  -5   8   1  -22.59   16.03
  -5   9   1  -11.98   17.02
  -5  10   1   24.99   10.86
  -5  11   1   -8.30   19.68
  -5  12   1   25.17   12.04
   6   8  -2  -21.43   20.49
   6   7  -2    4.87   20.63
   6   6  -2   15.67   19.45
   6   5  -2   16.82   10.30
   6   4  -2  172.66   14.38
   6   3  -2  505.17   24.79
   6   2  -2   -5.59   15.59
   6   1  -2  397.48   22.33
  -6   0   2   -5.43   15.81
   6   0  -2   21.19    8.06
  -6   1   2   49.20    9.01
  -6   2   2  183.50   17.94
   6  -2  -2  257.12   18.90
  -6   3   2    1.87   14.48
  -6   4   2  202.49   18.59
  -6   5   2  156.80   13.55
  -6   6   2  404.69   23.64
  -6   7   2  187.40   14.51
  -6   8   2   37.46   10.05
  -6   9   2  -24.12   18.44
  -6  10   2   11.85   17.57
  -6  11   2   -3.58   18.99
  -6  12   2   22.54   11.95
   7   7  -3  -32.36   22.01
   7   6  -3   14.58   20.19
   7   5  -3   55.21   10.94
   7   4  -3   36.36    9.89
   7   3  -3    5.93   11.12
   7   2  -3    7.22   15.92
   7   1  -3   21.14   16.45
  -7   0   3   97.72   11.41
   7   0  -3  157.56   12.89
  -7   1   3   32.29   10.03
  -7   2   3   94.70   10.17
  -7   3   3   13.61   17.12
  -7   4   3   22.79    9.55
  -7   5   3   53.47   10.29
  -7   6   3   52.74    9.98
  -7   7   3   -8.79   19.08
  -7   8   3   35.64   10.35
  -7   9   3   83.21   11.02
  -7  10   3  -19.54   19.06
  -7  11   3    3.91   21.03
  -7  12   3   11.21   20.98
   8   6  -4   29.09   22.91
   8   5  -4   20.63   19.38
   8   4  -4   48.22   10.83
   8   3  -4   35.06   10.41
   8   2  -4   12.89   15.43
   8   1  -4    1.73   15.54
  -8   0   4   44.82   10.70
   8   0  -4   30.72    9.62
  -8   1   4  -10.42   18.92
  -8   2   4    8.60   17.63
  -8   3   4  194.34   15.53
  -8   4   4   88.86   11.47
  -8   5   4   12.40   18.17
  -8   6   4    5.26   18.22
  -8   7   4   -4.78   19.09
  -8   8   4  -36.50   20.07
  -8   9   4   77.10   11.60
  -8  10   4  -14.52   20.44
  -8  11   4   26.94   20.69
   9   5  -5  -12.14   21.14
   9   4  -5   30.55   21.69
   9   3  -5   25.89   19.93
   9   2  -5    3.23   18.97
   9   1  -5   -4.12   17.41
  -9   0   5   27.14   19.30
   9   0  -5    0.78   16.79
  -9   1   5   87.49   12.38
  -9   2   5  -22.54   20.12
  -9   3   5   20.31   19.68
  -9   4   5   49.75   11.42
  -9   5   5   43.28   11.29
  -9   6   5    6.89   20.47
  -9   7   5   11.28   20.10
  -9   8   5  -16.47   20.14
  -9   9   5   -1.38   21.31
  -9  10   5   23.22   21.36
  -9  11   5  -35.49   22.55
  10   4  -6    1.36   22.27
  10   3  -6  -10.22   19.46
  10   2  -6   -8.49   17.99
  10   1  -6   68.30   12.34
 -10   0   6  -10.69   22.13
  10   0  -6   -4.27   19.43
 -10   1   6  -24.04   21.21
 -10   2   6   28.78   21.47
 -10   3   6  -30.26   21.04
 -10   4   6   17.28   20.20
 -10   5   6   31.29   11.98
 -10   6   6   25.14   22.81
 -10   7   6   21.27   15.19
 -10   8   6    3.77   23.20
 -10   9   6    2.41   22.61
 -10  10   6    9.57   21.33
  11   3  -7    0.00   22.92
  11   2  -7   25.51   18.75
  11   1  -7   -5.09   18.27
 -11   0   7  -21.90   24.93
  11   0  -7   -3.65   20.06
 -11   1   7  -14.37   23.99
 -11   2   7   24.30   17.37
 -11   3   7   30.31   23.75
 -11   4   7   -2.17   24.57
 -11   5   7   28.17   22.55
 -11   6   7    8.58   23.89
 -11   7   7  -11.59   23.30
 -11   8   7    9.38   23.25
 -11   9   7   17.10   16.56
 -12   0   8  -28.97   26.61
  12   0  -8   12.26   21.39
 -12   1   8   -8.22   27.59
 -12   2   8    9.47   24.32
 -12   3   8   29.21   27.08
 -12   4   8   54.00   14.96
 -12   5   8   -2.64   23.52
 -12   6   8   -8.07   24.99
 -12   7   8   -9.86   24.61
  -9   3  14   26.55   16.99
  -9   2  14  -15.19   29.33
  -9   1  14   -2.57   29.58
   9   0 -14   23.16   19.85
  -9   0  14    4.36   28.38
   9   1 -14   23.40   19.54
   9   2 -14   30.97   11.16
  -8   5  13   39.39   16.81
  -8   4  13  -40.66   28.99
  -8   3  13   41.87   16.16
  -8   2  13   25.76   26.95
  -8   1  13   40.37   28.07
   8   0 -13   21.92   21.00
  -8   0  13   40.52   16.29
   8   1 -13   48.76   11.24
   8   2 -13    4.90   14.72
   8   3 -13    8.87   17.72
   8   4 -13   26.59   19.41
   8   5 -13   12.21   12.24
  -7   6  12  -34.33   27.81
  -7   5  12   -8.78   27.19
  -7   4  12   37.04   27.29
  -7   3  12   -0.72   18.46
  -7   2  12   11.28   25.20
  -7   1  12   37.54   14.90
   7   0 -12  -12.83   16.78
  -7   0  12  -10.66   24.54
   7   1 -12   20.48   18.70
   7   2 -12   18.56   18.33
   7   3 -12  -14.82   17.77
   7   4 -12   25.93   18.46
   7   5 -12    7.61   17.68
   7   6 -12  -10.97   20.20
  -6   7  11  -13.44   26.17
  -6   6  11   29.51   25.31
  -6   5  11    8.39   23.70
  -6   4  11    9.68   24.25
  -6   3  11  -10.24   23.97
  -6   2  11   22.34   23.06
  -6   1  11   33.37   13.27
   6   0 -11  186.80   15.72
  -6   0  11  177.47   15.08
   6   1 -11  -18.01   15.82
   6   2 -11    4.81   15.80
   6   3 -11   82.24   10.02
   6   4 -11   18.16   16.45
   6   5 -11   50.14   10.47
   6   6 -11   -2.39   17.62
   6   7 -11    4.12   22.15
   6   8 -11  -30.99   21.13
  -5   8  10   21.92   26.56
  -5   7  10   12.59   26.68
  -5   6  10    7.14   25.22
  -5   5  10   10.63   22.10
  -5   4  10   35.75   13.48
  -5   3  10   13.10   23.52
  -5   2  10    9.86   22.58
  -5   1  10   12.52   22.19
   5   0 -10   18.17    8.35
  -5   0  10   31.72   21.58
   5   1 -10  283.59   21.31
   5   2 -10   55.12    8.97
   5   3 -10  500.72   26.42
   5   4 -10   -5.79   16.18
   5   5 -10   -2.92   15.17
   5   6 -10   -0.06   16.43
   5   7 -10    9.48   17.49
   5   8 -10   23.17   20.27
   5   9 -10   15.54   19.94
  -4   8   9    9.25   24.78
  -4   7   9   11.75   24.82
  -4   6   9   -5.52   23.38
  -4   5   9   94.70   14.29
  -4   4   9   13.32   12.66
  -4   3   9  -49.44   23.40
  -4   2   9   20.46   20.94
  -4   1   9   21.28   21.13
   4   0  -9   53.44    9.03
  -4   0   9   80.31   12.37
   4   1  -9  521.80   23.24
   4   2  -9  126.39   11.48
   4   3  -9   21.83    7.84
   4   4  -9   32.29    8.92
   4   5  -9   68.77    9.16
   4   6  -9   45.85    9.04
   4   7  -9    6.40   15.74
   4   8  -9  121.59   12.56
   4   9  -9   19.74   10.32
   4  10  -9  108.93   12.98
  -3   9   8   20.54   23.59
  -3   8   8   13.89   25.41
  -3   7   8  337.01   29.62
  -3   6   8  -19.45   22.96
  -3   5   8   -4.66   22.17
  -3   4   8   19.57   21.08
  -3   3   8   17.81   20.59
  -3   2   8   53.00   12.20
  -3   1   8   75.96   12.07
   3   0  -8  -12.39   11.67
  -3   0   8    3.07   19.26
   3   1  -8   -0.71   11.54
   3   2  -8  813.57   27.48
   3   3  -8   40.06    7.68
   3   4  -8    6.61   13.77
   3   5  -8   -0.12   13.88
   3   6  -8   -0.89   15.37
   3   7  -8    8.72   15.66
   3   8  -8  195.37   15.55
   3   9  -8   27.60   10.80
   3  10  -8   -7.96   17.82
  -2   9   7   16.34   24.79
  -2   8   7   -6.08   24.06
  -2   7   7   19.36   23.89
  -2   6   7   57.99   12.47
  -2   5   7  -23.10   21.40
  -2   4   7   10.03   20.11
  -2   3   7   59.81   11.84
  -2   2   7   23.84   18.46
  -2   1   7  190.04   15.50
   2   0  -7  980.30   27.67
  -2   0   7 1093.64   31.39
   2   1  -7   25.35    6.80
  -2  -1   7   34.28   10.98
   2   2  -7  102.74    9.44
   2   3  -7   20.27    6.89
   2   4  -7  243.02   17.68
   2   5  -7  342.80   20.28
   2   6  -7   15.24   12.07
   2   7  -7    1.74   15.61
   2   8  -7  -15.17   15.07
   2   9  -7   99.12   11.10
   2  10  -7   -0.06   17.17
   2  11  -7   -7.01   20.44
  -1   9   6   -6.90   23.71
  -1   8   6   18.21   24.10
  -1   7   6  -26.72   21.08
  -1   6   6   41.74   11.91
  -1   5   6   33.49   11.41
  -1   4   6  274.96   23.96
  -1   3   6    1.47   18.70
  -1   2   6   44.31   11.06
   1  -1  -6   -9.18   12.66
  -1   1   6   10.98   18.17
   1   0  -6   82.08    7.63
  -1   0   6   91.76   11.03
   1   1  -6  594.88   21.01
  -1  -1   6  671.45   25.30
   1   2  -6   14.94   12.07
  -1  -2   6   60.21   10.67
   1   3  -6  558.61   21.50
  -1  -3   6  699.81   26.93
   1   4  -6  114.03    9.63
   1   5  -6  127.75   10.57
   1   6  -6  354.80   21.16
   1   7  -6   17.43    8.53
   1   8  -6    5.67   15.01
   1   9  -6   20.33    9.65
   1  10  -6  -10.58   19.43
   1  11  -6    5.32   18.66
   0   9   5  -17.53   24.32
   0   8   5   29.70   21.76
   0   7   5    3.30   21.26
   0   6   5  -18.97   19.58
   0   5   5  -21.16   19.19
   0   4   5   -5.04   19.77
   0   3   5   34.07   10.68
   0   2   5    8.24   18.30
   0  -1  -5  124.05    9.86
   0   1   5  140.65   13.34
   0   0  -5  111.07    9.21
   0   0   5  117.20   10.40
   0   1  -5 2294.10   35.40
   0  -1   5 2861.03   41.62
   0   2  -5  163.65   14.00
   0  -2   5  209.33   18.50
   0   3  -5   -1.56   11.14
   0  -3   5   15.31   12.41
   0   4  -5  391.01   18.19
   0  -4   5  490.62   24.39
   0   5  -5   37.93    7.47
   0   6  -5  128.83   10.23
   0   7  -5   63.31    8.55
   0   8  -5  155.11   13.66
   0   9  -5   20.46    9.62
   0  10  -5  195.42   16.34
   0  11  -5    3.92   18.37
   0  12  -5   24.05   17.18
   1   9   4  -39.06   23.72
   1   8   4   -5.97   19.93
   1   7   4   58.08   12.94
   1   6   4   13.03   18.85
   1   5   4  -24.71   18.49
   1   4   4   33.16   10.87
   1   3   4   22.95   18.52
  -1  -2  -4   18.27   12.33
   1   2   4   12.27   16.54
  -1  -1  -4  120.98    9.85
   1   1   4  145.22   12.59
  -1   0  -4  317.23   16.43
   1   0   4  379.39   20.95
  -1   1  -4   10.86    9.93
   1  -1   4  -22.05   16.58
  -1   2  -4  311.82   16.62
   1  -2   4  407.76   21.15
  -1   3  -4   39.07    6.46
   1  -3   4   44.01    9.86
  -1   4  -4   -9.11   10.38
   1  -4   4   22.06   16.71
  -1   5  -4   10.58   12.14
   1  -5   4   37.13   11.04
  -1   6  -4  217.48   15.73
  -1   7  -4    0.74   13.74
  -1   8  -4  288.25   19.30
  -1   9  -4   10.45   16.32
  -1  10  -4  -14.25   17.57
  -1  11  -4   39.36   10.93
  -1  12  -4   17.85   20.14
   2   9   3  -36.12   25.31
   2   8   3   -1.32   20.13
   2   7   3   13.06   20.64
   2   6   3   31.37   11.44
   2   5   3   -8.61   17.45
   2   4   3  222.27   20.71
   2   3   3  169.68   13.75
   2   2   3  138.73   12.53
  -2  -1  -3    6.26   12.50
   2   1   3   -5.49   16.13
  -2   0  -3  519.43   19.22
   2   0   3  717.64   24.64
  -2   1  -3   25.81    6.26
   2  -1   3   22.85    9.12
  -2   2  -3   27.37    6.39
   2  -2   3   38.20    9.12
  -2   3  -3  146.07   14.44
   2  -3   3  222.94   18.53
  -2   4  -3  151.21   13.93
   2  -4   3  166.00   13.74
  -2   5  -3  103.85    9.52
   2  -5   3  109.62   11.52
  -2   6  -3  -15.86   12.56
  -2   7  -3   71.62    8.50
  -2   8  -3    2.49   13.11
  -2   9  -3   72.61    9.61
  -2  10  -3   -1.19   16.20
  -2  11  -3   40.14   10.78
  -2  12  -3   -8.06   20.57
   3   9   2   -7.18   21.74
   3   8   2   27.16   12.83
   3   7   2    5.63   19.55
   3   6   2   29.03   11.37
   3   5   2   17.59   16.38
   3   4   2   23.28   17.83
   3   3   2   -4.12   16.98
   3   2   2  126.76   10.78
  -3  -1  -2   58.62    8.12
   3   1   2   58.79    9.48
  -3   0  -2    6.72   12.93
   3   0   2   21.45    8.85
  -3   1  -2   10.73   11.40
   3  -1   2    5.79   14.95
  -3   2  -2   67.49    6.78
   3  -2   2   57.50    9.10
  -3   3  -2  379.72   17.16
   3  -3   2  415.74   21.21
  -3   4  -2   45.54    7.14
   3  -4   2   73.15    9.98
  -3   5  -2   39.39    7.78
   3  -5   2   74.87   10.56
  -3   6  -2   62.10    8.12
  -3   7  -2   58.62    8.36
  -3   8  -2  120.59   11.39
  -3   9  -2   12.02   10.88
  -3  10  -2   34.05    9.99
  -3  11  -2   10.12   12.44
  -3  12  -2   18.81   19.48
   4   8   1    6.77   20.94
   4   7   1    5.88   21.06
   4   6   1  -25.95   20.46
   4   5   1   17.73   13.42
   4   4   1   38.41   10.11
   4   3   1   44.56    9.60
   4   2   1   22.92    9.36
   4   1   1  583.78   23.83
  -4   0  -1   93.77    8.59
   4   0   1  143.05   12.05
  -4   1  -1  151.21   15.02
   4  -1   1  196.04   17.95
  -4   2  -1   54.10    7.38
   4  -2   1   64.92    9.29
  -4   3  -1  223.44   16.08
   4  -3   1  304.97   19.44
  -4   4  -1  113.55   10.23
   4  -4   1  143.74   13.18
  -4   5  -1  252.82   17.72
  -4   6  -1   29.27    7.79
  -4   7  -1   -9.57   14.41
  -4   8  -1   51.64    9.41
  -4   9  -1   42.26   10.10
  -4  10  -1   66.20   10.40
  -4  11  -1    3.57   16.07
  -4  12  -1  -16.06   19.20
   5   8   0   -7.32   22.99
   5   7   0    9.01   20.99
   5   6   0   38.86   11.77
   5   5   0  212.70   16.56
   5   4   0   17.71   17.16
   5   3   0  289.22   23.66
   5   2   0   -6.95   16.50
   5   1   0    4.34   15.30
  -5   0   0   70.03    9.16
   5   0   0   95.20    9.74
  -5   1   0   16.53    8.09
   5  -1   0   -5.85   15.81
  -5   2   0  160.78   11.36
   5  -2   0  190.40   13.04
  -5   3   0   89.97    8.97
   5  -3   0   88.11   10.15
  -5   4   0  282.80   18.84
  -5   5   0  271.77   19.36
  -5   6   0   62.41    8.98
  -5   7   0   12.44   15.45
  -5   8   0   17.53    9.28
  -5   9   0    5.18    8.78
  -5  10   0   -4.17   18.86
  -5  11   0   26.34   18.05
  -5  12   0    5.42   20.06
   6   7  -1  -10.81   20.95
   6   6  -1   14.50   19.42
   6   5  -1   24.29   10.44
   6   4  -1  -14.51   19.90
   6   3  -1   34.17    9.97
   6   2  -1  109.66   10.81
   6   1  -1   75.30   10.16
  -6   0   1  125.01   10.89
   6   0  -1  173.85   13.25
  -6   1   1   90.28    9.91
  -6   2   1   14.04   15.99
  -6   3   1   97.86    9.68
  -6   4   1   90.19    9.67
  -6   5   1   94.88    9.33
  -6   6   1   76.37    9.62
  -6   7   1  211.89   20.54
  -6   8   1   24.32   16.25
  -6   9   1   48.79   10.59
  -6  10   1    6.79   19.09
  -6  11   1  -12.35   20.13
  -6  12   1  -21.98   21.71
   7   6  -2    1.14   20.06
   7   5  -2   15.21   19.27
   7   4  -2   -6.22   20.16
   7   3  -2   -4.80   17.92
   7   2  -2   95.27   11.57
   7   1  -2   -9.72   15.87
  -7   0   2   29.56    9.99
   7   0  -2   14.59   16.94
  -7   1   2  160.46   11.24
  -7   2   2   66.15    9.77
  -7   3   2   15.27   16.64
  -7   4   2   18.43   16.76
  -7   5   2  101.98   10.75
  -7   6   2   54.57   10.32
  -7   7   2  276.48   23.91
  -7   8   2    3.93   17.60
  -7   9   2    1.20   17.28
  -7  10   2   -1.00   18.80
  -7  11   2   20.65   20.40
  -7  12   2    7.20   21.19
   8   6  -3    2.87   21.66
   8   5  -3  -15.47   21.54
   8   4  -3   22.18   19.64
   8   3  -3   24.45   19.28
   8   2  -3   21.58   18.07
   8   1  -3   69.44   10.71
  -8   0   3   22.90   19.34
   8   0  -3    7.90   17.92
  -8   1   3    8.37   12.09
  -8   2   3   59.54   10.80
  -8   3   3   42.42   10.49
  -8   4   3    8.22   17.16
  -8   5   3   48.46   10.45
  -8   6   3   13.47   18.62
  -8   7   3   22.21   17.61
  -8   8   3   -7.33   20.83
  -8   9   3  -32.59   17.45
  -8  10   3  -21.96   21.76
  -8  11   3  -25.76   21.68
   9   5  -4  -34.83   22.70
   9   4  -4   11.47   20.90
   9   3  -4   90.11   11.93
   9   2  -4   13.35   18.94
   9   1  -4   -9.57   19.38
  -9   0   4    4.74   19.94
   9   0  -4   -3.11   17.97
  -9   1   4   -5.52   19.70
  -9   2   4    0.85   18.33
  -9   3   4  -25.02   19.60
  -9   4   4   -1.96   19.40
  -9   5   4   -1.83   18.27
  -9   6   4   -1.20   20.01
  -9   7   4   10.82   18.92
  -9   8   4  -12.40   21.41
  -9   9   4  -67.32   22.77
  -9  10   4    1.47   20.93
  -9  11   4    5.74   21.30
  10   4  -5  -42.86   23.48
  10   3  -5   21.33   19.22
  10   2  -5  -23.86   21.55
  10   1  -5   19.98   19.07
 -10   0   5   79.67   13.27
  10   0  -5   27.86   23.03
 -10   1   5   77.92   12.34
 -10   2   5   22.50   18.94
 -10   3   5   12.37   21.36
 -10   4   5   37.06   12.52
 -10   5   5  -18.12   20.59
 -10   6   5   -7.68   20.53
 -10   7   5   21.69   11.98
 -10   8   5  -13.54   20.50
 -10   9   5   -5.07   21.39
 -10  10   5  -22.10   23.47
  11   2  -6   -4.26   21.20
  11   1  -6   13.12   21.72
 -11   0   6   -9.91   23.90
  11   0  -6   13.21   14.23
 -11   1   6   57.35   13.79
 -11   2   6   66.36   14.35
 -11   3   6   25.38   12.80
 -11   4   6   10.50   22.09
 -11   5   6   13.37   23.37
 -11   6   6   25.81   21.48
 -11   7   6   40.25   13.63
 -11   8   6   -6.92   23.87
 -11   9   6    8.60   24.59
 -12   0   7   -9.70   27.27
  12   0  -7    4.29   21.02
 -12   1   7   27.42   25.42
 -12   2   7    3.52   13.96
 -12   3   7   10.75   24.25
 -12   4   7   -3.99   24.88
 -12   5   7   -4.12   23.96
 -12   6   7   -8.21   21.47
 -12   7   7  -14.14   24.49
  -8   3  14   19.81   30.22
  -8   2  14    2.75   30.23
  -8   1  14    6.43   29.77
   8   0 -14    2.62   20.70
  -8   0  14    6.56   29.44
   8   1 -14   21.42   17.66
   8   2 -14   -5.34   18.79
   8   3 -14   19.61   19.66
  -7   5  13    5.83   29.20
  -7   4  13   12.03   29.40
  -7   3  13  -11.58   28.28
  -7   2  13   91.55   17.11
  -7   1  13    3.80   27.22
   7   0 -13   12.24   16.69
  -7   0  13   -3.37   24.86
   7   1 -13   38.92   10.92
   7   2 -13   13.30   15.35
   7   3 -13   25.14   18.95
   7   4 -13  -11.64   19.89
   7   5 -13   22.31   16.23
  -6   6  12   19.15   23.66
  -6   5  12   43.57   29.11
  -6   4  12   34.34   25.07
  -6   3  12   -6.94   26.50
  -6   2  12   22.75   24.18
  -6   1  12  102.21   14.99
   6   0 -12   15.78   10.64
  -6   0  12   25.02   13.64
   6   1 -12  181.35   15.25
   6   2 -12  -17.52   17.18
   6   3 -12   25.06   17.13
   6   4 -12   13.51    9.21
   6   5 -12   -6.31   20.97
   6   6 -12   50.28   11.21
   6   7 -12   19.56   19.60
  -5   7  11   16.38   19.69
  -5   6  11   -0.27   26.75
  -5   5  11   18.28   26.07
  -5   4  11   -1.13   24.34
  -5   3  11   23.96   14.07
  -5   2  11   37.37   13.72
  -5   1  11  143.21   14.38
   5   0 -11   42.23   10.33
  -5   0  11   14.56   23.48
   5   1 -11    5.83   15.08
   5   2 -11   25.54    8.78
   5   3 -11   32.63    9.62
   5   4 -11   21.37   15.90
   5   5 -11   10.04   16.63
   5   6 -11  143.66   12.58
   5   7 -11   22.83   18.65
   5   8 -11  149.78   14.19
  -4   7  10   22.55   25.69
  -4   6  10  -18.40   25.93
  -4   5  10   30.72   24.69
  -4   4  10    9.79   16.72
  -4   3  10   53.08   14.15
  -4   2  10   -8.29   21.70
  -4   1  10   15.79   12.05
   4   0 -10  305.53   21.73
  -4   0  10  336.73   27.98
   4   1 -10  -16.49   15.23
   4   2 -10   28.45    8.47
   4   3 -10    9.75   13.13
   4   4 -10   43.58    9.08
   4   5 -10    1.89   15.68
   4   6 -10  228.93   15.71
   4   7 -10   15.11   16.80
   4   8 -10  -31.09   19.74
   4   9 -10   49.68   12.49
  -3   8   9   16.94   25.30
  -3   7   9  -15.35   26.20
  -3   6   9    4.78   22.65
  -3   5   9   25.09   13.20
  -3   4   9   16.16   16.30
  -3   3   9   32.47   22.95
  -3   2   9  324.29   26.07
  -3   1   9   16.78   20.58
   3   0  -9   57.90    8.27
  -3   0   9   48.18   12.43
   3   1  -9    7.08   14.37
   3   2  -9    3.13   13.64
   3   3  -9  335.97   23.20
   3   4  -9    4.97   12.60
   3   5  -9   16.49    8.58
   3   6  -9   13.78   14.54
   3   7  -9  133.90   11.99
   3   8  -9   -4.62   17.29
   3   9  -9   -8.94   18.19
   3  10  -9    2.64   20.65
  -2   8   8    5.55   26.12
  -2   7   8    1.11   23.82
  -2   6   8  154.42   16.06
  -2   5   8  -21.18   22.84
  -2   4   8    0.00   21.43
  -2   3   8   18.78   11.80
  -2   2   8    7.56   21.09
  -2   1   8  145.25   13.10
   2   0  -8   16.53   13.39
  -2   0   8   12.73   11.61
   2   1  -8  176.21   15.98
   2   2  -8   74.94    8.02
   2   3  -8  316.74   19.89
   2   4  -8  427.79   22.66
   2   5  -8   57.98    9.18
   2   6  -8    4.44   13.53
   2   7  -8   61.81   10.07
   2   8  -8   83.86   10.92
   2   9  -8    7.16   16.94
   2  10  -8   -9.15   18.73
  -1   8   7   23.99   23.19
  -1   7   7  -16.72   22.88
  -1   6   7    6.39   23.81
  -1   5   7   41.05   12.11
  -1   4   7   26.08   20.41
  -1   3   7   25.56   21.12
  -1   2   7    8.54   21.61
  -1   1   7  711.54   28.53
   1   0  -7   -6.71   11.81
  -1   0   7    2.63   13.60
   1   1  -7   20.33    7.04
   1   2  -7   81.23    7.81
   1   3  -7   43.22    7.61
   1   4  -7   79.47    8.14
   1   5  -7  256.88   18.08
   1   6  -7  126.22   12.06
   1   7  -7   69.13    9.68
   1   8  -7  259.00   23.25
   1   9  -7   11.41   16.84
   1  10  -7   -3.84   18.60
   1  11  -7  -11.03   19.88
   0   8   6   34.69   23.42
   0   7   6    5.90   22.99
   0   6   6   21.36   19.11
   0   5   6   28.14   12.21
   0   4   6   23.19   19.24
   0   3   6   36.24   12.02
   0   2   6  101.83   12.17
   0   1   6  -41.35   20.89
   0   0  -6  113.31   10.17
   0   0   6  129.31   11.91
   0   1  -6   21.27    7.21
   0   2  -6  105.34    9.73
   0   3  -6   11.98   12.42
   0   4  -6  332.56   20.16
   0   5  -6   32.63    7.69
   0   6  -6  265.14   19.01
   0   7  -6   -5.25   14.93
   0   8  -6  -16.37   16.40
   0   9  -6   52.52   10.01
   0  10  -6   -1.20   16.92
   0  11  -6  -29.26   18.84
   1   8   5  -22.98   23.59
   1   7   5   15.48   21.75
   1   6   5   25.46   20.63
   1   5   5   18.99   20.97
   1   4   5    1.09   19.96
   1   3   5    6.96   19.04
   1   2   5  240.60   22.94
   1   1   5  -18.97   19.03
  -1   0  -5   14.48   12.06
   1   0   5   -1.96   19.41
  -1   1  -5  111.10    9.70
   1  -1   5  128.08   11.74
  -1   2  -5  392.30   19.19
   1  -2   5  510.99   25.87
  -1   3  -5   17.29   11.75
  -1   4  -5  -10.59   11.13
  -1   5  -5  347.70   19.15
  -1   6  -5   38.69    7.87
  -1   7  -5  114.63    9.75
  -1   8  -5   -0.77   15.50
  -1   9  -5    9.24   17.00
  -1  10  -5   -6.97   18.05
  -1  11  -5   47.74   11.26
  -1  12  -5   -5.60   22.10
   2   8   4   20.11   15.77
   2   7   4  -19.51   22.12
   2   6   4  -20.61   21.78
   2   5   4  -31.78   19.52
   2   4   4   21.88   20.35
   2   3   4   51.95   11.23
   2   2   4   -0.94   18.30
   2   1   4   10.11   12.63
  -2   0  -4   24.52    7.64
   2   0   4   40.22   10.51
  -2   1  -4   71.69    8.13
   2  -1   4  104.43   11.47
  -2   2  -4   43.74    7.55
   2  -2   4   84.70   10.85
  -2   3  -4  137.04   10.55
   2  -3   4  227.66   20.16
  -2   4  -4   89.40    8.22
  -2   5  -4  273.73   17.81
  -2   6  -4   91.13    8.86
  -2   7  -4   10.93   15.09
  -2   8  -4   29.82    8.62
  -2   9  -4   18.68   15.89
  -2  10  -4    4.57   16.87
  -2  11  -4   -6.34   18.72
  -2  12  -4  -27.95   20.73
   3   8   3   24.01   25.02
   3   7   3   11.15   21.94
   3   6   3   15.71   21.03
   3   5   3   13.19   20.75
   3   4   3   10.57   19.98
   3   3   3  443.50   26.70
   3   2   3  101.18   11.38
   3   1   3    5.45   17.61
  -3   0  -3   27.99    7.72
   3   0   3   39.40   10.19
  -3   1  -3   53.31    7.72
  -3   2  -3   13.45   13.04
   3  -2   3    6.63   12.19
  -3   3  -3  121.55   11.05
  -3   4  -3   41.37    7.68
  -3   5  -3   15.13   12.41
  -3   6  -3   52.33    8.41
  -3   7  -3  106.59    9.77
  -3   8  -3   85.43    9.65
  -3   9  -3  -33.00   15.29
  -3  10  -3   -1.16   17.08
  -3  11  -3  -25.75   20.10
  -3  12  -3   38.84   12.02
   4   7   2   28.73   13.80
   4   6   2    1.26   21.56
   4   5   2  101.59   13.52
   4   4   2   29.59   10.40
   4   3   2    8.29   18.00
   4   2   2    0.10   17.41
   4   1   2   42.90   10.27
  -4   0  -2   29.79    8.64
   4   0   2   63.36   10.31
  -4   1  -2   -2.98   14.22
  -4   2  -2   31.82    8.08
  -4   3  -2   44.03    8.55
  -4   4  -2  105.28   10.50
  -4   5  -2   21.61    8.05
  -4   6  -2   19.18   14.54
  -4   7  -2   13.60   14.73
  -4   8  -2   36.80   10.19
  -4   9  -2   10.71   16.99
  -4  10  -2   40.94   10.02
  -4  11  -2    1.30   18.75
  -4  12  -2   -1.24   19.57
   5   7   1    9.68   22.77
   5   6   1    0.00   20.71
   5   5   1    6.76   19.54
   5   4   1   68.04   11.70
   5   3   1   41.12   10.89
   5   2   1   71.94   10.60
   5   1   1   89.22   10.38
  -5   0  -1   13.31   15.38
   5   0   1    4.68   17.59
  -5   1  -1   96.24    9.50
  -5   2  -1  122.73   11.73
  -5   3  -1   43.71    8.61
  -5   4  -1   55.47    8.40
  -5   5  -1  478.47   23.22
  -5   6  -1   38.40    8.84
  -5   7  -1   35.58    9.23
  -5   8  -1   14.31   11.41
  -5   9  -1   20.14   17.69
  -5  10  -1  -22.06   18.12
  -5  11  -1   11.14   18.07
  -5  12  -1    6.98   19.97
   6   6   0   11.81   20.66
   6   5   0   14.09   22.27
   6   4   0  108.90   12.50
   6   3   0   24.96   17.65
   6   2   0   56.18   11.12
   6   1   0    1.61   19.02
  -6   0   0   -3.02   15.45
   6   0   0   21.49   16.17
  -6   1   0   -0.74   16.92
  -6   2   0   22.34   15.94
  -6   3   0  216.63   19.25
  -6   4   0  161.01   12.70
  -6   5   0  651.51   26.75
  -6   6   0   48.34    9.92
  -6   7   0   64.92    9.99
  -6   8   0   24.60   16.71
  -6   9   0   -7.34   17.23
  -6  10   0   13.70   17.09
  -6  11   0  -12.60   20.21
  -6  12   0   12.62   14.56
   7   6  -1   28.88   20.68
   7   5  -1   23.99   20.01
   7   4  -1   20.79   14.09
   7   3  -1   44.66   11.42
   7   2  -1   22.53   10.77
   7   1  -1   -8.04   17.34
  -7   0   1   39.66   10.37
   7   0  -1   37.76    9.94
  -7   1   1  -21.15   17.17
  -7   2   1   19.84    9.49
  -7   3   1   48.30    9.78
  -7   4   1  -35.19   17.41
  -7   5   1   69.87    9.83
  -7   6   1   13.30   17.72
  -7   7   1   -3.73   17.74
  -7   8   1   20.14   16.67
  -7   9   1  -18.56   18.30
  -7  10   1  -19.10   20.66
  -7  11   1   25.12   18.27
   8   5  -2   58.74   12.94
   8   4  -2   26.37   11.40
   8   3  -2    6.99   18.93
   8   2  -2   21.31   18.15
   8   1  -2  -23.90   19.28
  -8   0   2   -8.31   19.17
   8   0  -2   29.35   10.35
  -8   1   2   17.39   16.42
  -8   2   2   13.33   18.55
  -8   3   2   34.40   10.38
  -8   4   2   13.14   13.15
  -8   5   2  -11.73   18.61
  -8   6   2   12.28   17.58
  -8   7   2   13.35   17.93
  -8   8   2  -13.93   19.44
  -8   9   2  -13.70   18.74
  -8  10   2   27.56   19.21
  -8  11   2  -14.92   22.21
   9   4  -3  -28.84   22.95
   9   3  -3   12.78   19.71
   9   2  -3   41.46   11.97
   9   1  -3    5.68   20.08
  -9   0   3   -6.21   20.29
   9   0  -3   -3.05   19.45
  -9   1   3   23.33   19.53
  -9   2   3   51.70   11.81
  -9   3   3   18.73   19.93
  -9   4   3   -6.94   19.01
  -9   5   3   28.17   19.21
  -9   6   3   14.54   17.96
  -9   7   3    2.13   18.41
  -9   8   3  -12.70   20.76
  -9   9   3   11.09   19.08
  -9  10   3  -11.94   19.90
  10   3  -4    0.16   21.48
  10   2  -4   17.25   21.48
  10   1  -4    2.38   21.20
 -10   0   4   26.96   21.92
  10   0  -4   49.20   12.09
 -10   1   4    6.74   19.91
 -10   2   4    3.45   14.37
 -10   3   4   35.13   11.65
 -10   4   4    4.16   20.84
 -10   5   4   90.03   12.79
 -10   6   4    6.69   20.44
 -10   7   4   15.53   20.33
 -10   8   4   16.70   22.02
 -10   9   4  -20.31   20.23
 -10  10   4    0.00   21.70
  11   1  -5   16.43   19.84
 -11   0   5    1.31   21.36
  11   0  -5   -2.62   20.96
 -11   1   5   19.11   23.67
 -11   2   5   -1.37   23.35
 -11   3   5   -4.96   22.37
 -11   4   5   -1.23   23.18
 -11   5   5  -49.35   21.83
 -11   6   5   13.96   22.01
 -11   7   5   -2.53   23.43
 -11   8   5   29.09   21.80
 -12   1   6   32.59   23.76
 -12   2   6   29.28   23.62
 -12   3   6  -12.31   25.19
 -12   4   6    5.57   23.85
 -12   5   6    1.38   24.04
 -12   6   6   15.17   21.56
  -7   2  14   13.97   28.85
  -7   1  14   20.58   31.85
   7   0 -14   -6.89   18.52
  -7   0  14   38.93   15.16
   7   1 -14   21.69   19.69
   7   2 -14   -8.14   18.02
   7   3 -14    9.74   18.84
  -6   4  13   15.10   29.79
  -6   3  13    7.96   28.90
  -6   2  13   41.21   16.01
  -6   1  13    3.60   28.22
   6   0 -13    3.65   17.51
  -6   0  13   10.92   25.32
   6   1 -13    1.28   17.14
   6   2 -13  -18.69   19.19
   6   3 -13  -16.57   18.83
   6   4 -13   91.85   13.16
   6   5 -13   24.65   19.44
   6   6 -13  177.39   17.36
  -5   5  12    4.25   25.55
  -5   4  12   18.17   26.86
  -5   3  12   21.17   25.86
  -5   2  12   83.51   15.92
  -5   1  12  -63.08   26.13
   5   0 -12   44.02   10.38
  -5   0  12   36.28   13.82
   5   1 -12    6.22   11.67
   5   2 -12   76.33   11.01
   5   3 -12    7.86   16.21
   5   4 -12   82.66   11.52
   5   5 -12   19.86   16.27
   5   6 -12    5.10   19.72
   5   7 -12   79.50   11.69
  -4   6  11    1.39   28.24
  -4   5  11  -19.66   28.24
  -4   4  11   11.81   26.80
  -4   3  11   -4.50   24.71
  -4   2  11   21.72   16.96
  -4   1  11   31.43   13.24
   4   0 -11    1.06   15.33
  -4   0  11  -20.76   24.31
   4   1 -11  181.75   14.54
   4   2 -11    4.08   13.22
   4   3 -11   13.43   17.91
   4   4 -11   16.98   16.91
   4   5 -11   92.77   11.15
   4   6 -11   -1.27   17.11
   4   7 -11  -23.08   18.36
   4   8 -11    6.96   19.89
  -3   6  10  -52.92   29.31
  -3   5  10   27.05   25.36
  -3   4  10  -20.22   24.31
  -3   3  10   37.61   14.05
  -3   2  10  -20.95   22.46
  -3   1  10   31.14   23.07
   3   0 -10   21.21    8.83
  -3   0  10   17.44   22.72
   3   1 -10  232.26   21.22
   3   2 -10  146.82   13.13
   3   3 -10   80.23    9.92
   3   4 -10    7.79   15.33
   3   5 -10   53.48   10.03
   3   6 -10   81.95   10.91
   3   7 -10   25.28   10.10
   3   8 -10   24.48   17.29
   3   9 -10   22.26   16.54
  -2   7   9  -20.98   25.61
  -2   6   9   26.04   14.24
  -2   5   9    3.60   24.17
  -2   4   9   14.73   24.08
  -2   3   9  121.99   14.26
  -2   2   9   19.20   22.85
  -2   1   9   75.81   13.48
   2   0  -9   12.46    9.77
  -2   0   9   15.55   22.33
   2   1  -9   53.39    8.69
   2   2  -9   36.60    8.52
   2   3  -9  297.72   22.94
   2   4  -9   16.01    8.25
   2   5  -9   74.24    9.51
   2   6  -9  233.64   21.85
   2   7  -9    5.43   16.15
   2   8  -9   37.62   11.64
   2   9  -9  -20.96   19.87
   2  10  -9  -37.10   21.37
  -1   7   8   17.99   18.41
  -1   6   8   10.43   16.41
  -1   5   8  -10.04   24.04
  -1   4   8   25.39   12.94
  -1   3   8   -5.90   21.79
  -1   2   8   34.98   12.33
  -1   1   8   -0.83   20.70
   1   0  -8  144.24   11.82
  -1   0   8  160.80   16.08
   1   1  -8  -15.59   13.72
   1   2  -8  294.26   20.88
   1   3  -8   44.73    8.60
   1   4  -8  114.86    9.50
   1   5  -8   41.01    8.95
   1   6  -8   -2.78   14.43
   1   7  -8   36.88    9.39
   1   8  -8  -12.28   16.72
   1   9  -8   -4.75   18.01
   1  10  -8    4.06   17.39
   0   7   7   -5.53   24.90
   0   6   7  -20.49   23.59
   0   5   7    8.85   20.26
   0   4   7  -15.66   22.77
   0   3   7   18.36   21.49
   0   2   7   20.57   14.47
   0   1   7   75.21   12.01
   0   0  -7  457.11   23.43
   0   0   7  579.40   28.13
   0   1  -7    4.45   12.70
   0   2  -7   10.99   12.24
   0   3  -7  394.70   21.64
   0   4  -7   45.01    8.27
   0   5  -7  186.62   12.51
   0   6  -7   14.03   15.13
   0   7  -7   11.19   14.79
   0   8  -7  -17.68   16.28
   0   9  -7   96.93   11.71
   0  10  -7  -26.67   21.51
   0  11  -7   11.24   20.89
   1   7   6   -0.11   24.41
   1   6   6   -2.29   23.57
   1   5   6   29.03   23.55
   1   4   6  -14.17   22.03
   1   3   6    5.57   20.04
   1   2   6   11.50   21.20
   1   1   6  -10.60   19.79
  -1   0  -6   18.32   14.16
   1   0   6   23.13   19.74
  -1   1  -6  147.47   12.07
  -1   2  -6    8.35   13.64
  -1   3  -6  334.66   19.63
  -1   4  -6   39.26    7.95
  -1   5  -6   18.11   15.53
  -1   6  -6   15.93    8.26
  -1   7  -6   61.93    9.98
  -1   8  -6  -21.84   16.46
  -1   9  -6   13.00   16.74
  -1  10  -6   13.45   17.84
  -1  11  -6   -6.87   20.33
   2   7   5   18.00   16.54
   2   6   5   -7.33   20.93
   2   5   5  122.37   14.38
   2   4   5   44.09   12.21
   2   3   5  -17.14   19.75
   2   2   5   13.11   20.85
   2   1   5    0.75   18.59
  -2   0  -5   18.21   13.25
   2   0   5   -5.74   19.16
  -2   1  -5   56.93    8.12
  -2   2  -5   55.94    8.07
  -2   3  -5   11.95   13.28
  -2   4  -5    5.82   13.21
  -2   5  -5  158.95   12.44
  -2   6  -5   39.72    9.09
  -2   7  -5   10.65   13.92
  -2   8  -5   -2.81   16.01
  -2   9  -5   20.52    9.68
  -2  10  -5   52.37   11.86
  -2  11  -5    0.14   19.06
   3   7   4   48.09   14.15
   3   6   4  -36.41   22.72
   3   5   4  -21.53   21.48
   3   4   4   17.36   19.67
   3   3   4   40.81   11.33
   3   2   4  -14.06   19.31
   3   1   4   -3.96   18.95
  -3   0  -4   11.83   13.83
   3   0   4    5.74   18.86
  -3   1  -4   -7.07   13.82
  -3   2  -4  189.22   17.94
  -3   3  -4   16.89   14.49
  -3   4  -4   22.27    7.85
  -3   5  -4   -4.63   12.51
  -3   6  -4   39.61    8.76
  -3   7  -4   -8.83   15.04
  -3   8  -4    5.88   17.18
  -3   9  -4    3.26   16.80
  -3  10  -4  -19.65   16.83
  -3  11  -4   29.70   21.18
  -3  12  -4    7.23   19.17
   4   7   3  -10.05   24.06
   4   6   3   26.97   22.21
   4   5   3   21.03   21.03
   4   4   3  -14.64   21.38
   4   3   3   -8.46   20.68
   4   2   3   22.60   18.69
   4   1   3   94.14   11.70
  -4   0  -3  130.19   10.47
   4   0   3  132.16   11.93
  -4   1  -3  -13.37   14.88
  -4   2  -3    7.95   13.01
  -4   3  -3  546.06   25.57
  -4   4  -3  142.77   12.76
  -4   5  -3  -11.42   14.71
  -4   6  -3  -17.06   14.19
  -4   7  -3   -9.75   16.28
  -4   8  -3    2.96   15.24
  -4   9  -3   43.15   11.24
  -4  10  -3  -21.93   18.77
  -4  11  -3   19.33   18.54
  -4  12  -3    0.07   20.64
   5   6   2   79.29   14.38
   5   5   2   30.45   21.13
   5   4   2   41.20   12.24
   5   3   2   24.07   18.21
   5   2   2   -7.45   17.58
   5   1   2   24.21   18.09
  -5   0  -2  -12.13   17.34
   5   0   2    6.93   12.55
  -5   1  -2  219.76   21.23
  -5   2  -2  221.47   19.16
  -5   3  -2  757.46   28.24
  -5   4  -2  148.52   13.47
  -5   5  -2   74.97    9.34
  -5   6  -2   18.57    8.78
  -5   7  -2   -1.68   14.96
  -5   8  -2   18.67   16.70
  -5   9  -2   15.38    9.72
  -5  10  -2   38.71   11.55
  -5  11  -2   -1.37   19.60
  -5  12  -2   22.99   19.74
   6   6   1    5.00   15.76
   6   5   1   16.67   21.69
   6   4   1  -38.91   21.47
   6   3   1   21.28   20.33
   6   2   1   -3.74   19.95
   6   1   1    9.23   18.19
  -6   0  -1   -7.05   17.34
   6   0   1   -6.13   19.17
  -6   1  -1   56.86   10.03
  -6   2  -1   22.37    9.38
  -6   3  -1   43.49    9.43
  -6   4  -1   -5.61   15.64
  -6   5  -1  -22.98   16.94
  -6   6  -1   -2.75   15.57
  -6   7  -1   11.29   16.24
  -6   8  -1    9.51    9.76
  -6   9  -1    8.64   18.33
  -6  10  -1   53.35   11.21
  -6  11  -1   14.62   19.39
   7   5   0   -9.60   21.47
   7   4   0  -11.23   20.30
   7   3   0    7.03   21.36
   7   2   0  -16.03   19.32
   7   1   0  -13.94   18.46
  -7   0   0   60.84   11.63
   7   0   0   53.89   11.61
  -7   1   0   70.77   10.63
  -7   2   0   24.93   17.60
  -7   3   0   10.57   17.14
  -7   4   0   -0.88   16.94
  -7   5   0  -16.11   17.43
  -7   6   0   -3.87   16.82
  -7   7   0   12.96   16.41
  -7   8   0   24.18    9.40
  -7   9   0    9.02   18.94
  -7  10   0  -13.71   20.40
  -7  11   0   27.26   21.58
   8   4  -1  -33.91   23.04
   8   3  -1  -25.00   22.10
   8   2  -1  -56.15   23.45
   8   1  -1   19.82   18.91
  -8   0   1   54.40   11.35
   8   0  -1   42.44   10.72
  -8   1   1   19.39   10.39
  -8   2   1   24.49   18.61
  -8   3   1   21.32   16.83
  -8   4   1   12.52   18.01
  -8   5   1   10.72   16.69
  -8   6   1  -45.67   18.21
  -8   7   1   19.45   19.54
  -8   8   1   19.30   10.67
  -8   9   1    8.54   18.32
  -8  10   1   20.87   17.87
  -8  11   1    9.86   21.96
   9   3  -2    5.58   22.71
   9   2  -2   19.69   12.31
   9   1  -2  -34.66   21.65
  -9   0   2   -1.34   21.07
   9   0  -2  -11.56   20.72
  -9   1   2    0.17   18.72
  -9   2   2   53.50   11.82
  -9   3   2   97.25   13.00
  -9   4   2   10.67   19.66
  -9   5   2  -12.75   19.82
  -9   6   2   41.42   11.09
  -9   7   2   11.44   19.85
  -9   8   2    6.20   11.19
  -9   9   2  -33.91   20.09
  -9  10   2    5.49   22.74
  10   2  -3    2.94   20.09
  10   1  -3   23.70   22.34
 -10   0   3  -12.42   22.18
  10   0  -3  -14.87   22.67
 -10   1   3  -36.22   22.97
 -10   2   3   19.62   14.74
 -10   3   3   15.42   19.42
 -10   4   3   17.55   12.25
 -10   5   3    7.02   22.19
 -10   6   3    7.36   20.53
 -10   7   3    3.57   20.90
 -10   8   3   18.59   19.98
 -10   9   3  -22.27   21.39
 -11   0   4   24.81   24.46
  11   0  -4   22.70   16.46
 -11   1   4   -0.11   24.42
 -11   2   4  -21.06   22.74
 -11   3   4   12.96   21.37
 -11   4   4  -22.06   23.71
 -11   5   4   -9.15   22.82
 -11   6   4  -13.05   21.90
 -11   7   4  -21.66   23.16
 -11   8   4  -12.67   23.17
 -12   3   5    0.00   24.84
 -12   4   5   25.75   26.10
 -12   5   5   14.26   16.04
  -6   1  14  -16.48   28.00
   6   0 -14    0.00   21.99
  -6   0  14   16.40   29.55
   6   1 -14   -8.18   18.59
   6   2 -14   26.00   10.63
   6   3 -14   20.11   10.33
  -5   3  13    6.80   27.34
  -5   2  13   36.99   25.61
  -5   1  13   85.48   16.54
   5   0 -13  -12.42   19.67
  -5   0  13   -6.08   26.79
   5   1 -13    3.84   16.82
   5   2 -13   20.35   17.20
   5   3 -13   65.07   10.83
   5   4 -13  -18.29   20.23
   5   5 -13    9.69   19.95
   5   6 -13   26.01   19.06
  -4   4  12  -21.69   29.40
  -4   3  12  -11.67   26.93
  -4   2  12  -48.05   28.61
  -4   1  12  140.26   16.35
   4   0 -12   31.15   10.17
  -4   0  12   24.54   25.37
   4   1 -12   16.18   17.60
   4   2 -12   10.61   16.75
   4   3 -12   24.69   16.67
   4   4 -12   12.25   18.43
   4   5 -12   51.29   11.17
   4   6 -12   -6.56   17.81
   4   7 -12   21.11   17.10
  -3   5  11   -0.16   29.23
  -3   4  11   28.01   14.84
  -3   3  11   36.32   26.90
  -3   2  11  -36.56   25.85
  -3   1  11   15.83   14.60
   3   0 -11   -3.21   15.85
  -3   0  11    8.52   22.03
   3   1 -11  100.14   10.72
   3   2 -11   23.68   16.35
   3   3 -11    8.13   12.28
   3   4 -11   52.55   10.42
   3   5 -11   -6.79   17.17
   3   6 -11  106.26   10.74
   3   7 -11    9.08   16.34
   3   8 -11   44.66   10.19
  -2   5  10  -29.12   26.60
  -2   4  10   22.22   14.40
  -2   3  10  -16.97   24.77
  -2   2  10   57.35   14.24
  -2   1  10    6.05   24.65
   2   0 -10  120.79   11.33
  -2   0  10  132.73   14.90
   2   1 -10   18.40    9.64
   2   2 -10   15.77   15.27
   2   3 -10   83.58   10.17
   2   4 -10    2.06   16.23
   2   5 -10   42.02    8.96
   2   6 -10  -30.30   17.70
   2   7 -10    9.45   18.67
   2   8 -10    3.84   18.43
   2   9 -10    8.38   20.13
  -1   6   9  -24.02   25.70
  -1   5   9  -12.88   26.01
  -1   4   9    5.78   23.29
  -1   3   9   17.74   24.92
  -1   2   9  182.03   15.83
  -1   1   9  -22.57   23.31
   1   0  -9   -8.59   14.70
  -1   0   9    8.18   21.61
   1   1  -9  147.57   14.22
   1   2  -9    7.35   14.97
   1   3  -9  130.65   12.95
   1   4  -9   -3.72   15.13
   1   5  -9   49.15    9.84
   1   6  -9   -1.98   16.00
   1   7  -9  173.28   15.23
   1   8  -9   19.38   17.16
   1   9  -9   22.93   10.65
   1  10  -9   -5.76   18.44
   0   6   8   17.87   24.55
   0   5   8   -7.38   24.68
   0   4   8   30.33   24.36
   0   3   8   -6.44   22.62
   0   2   8   24.14   21.40
   0   1   8   73.54   13.03
   0   0  -8   -4.45   15.18
   0   0   8  -12.43   21.71
   0   1  -8  102.31   10.16
   0   2  -8    1.74   15.12
   0   3  -8   61.48    9.71
   0   4  -8   32.30    8.67
   0   5  -8  118.50   11.27
   0   6  -8   12.89   13.88
   0   7  -8   12.74   14.42
   0   8  -8   32.15   10.25
   0   9  -8   -0.05   16.72
   0  10  -8   15.11   16.64
   1   6   7   12.44   24.31
   1   5   7   15.20   24.24
   1   4   7  -19.94   24.92
   1   3   7    3.29   23.18
   1   2   7   -2.05   20.32
   1   1   7  -11.82   21.58
  -1   0  -7   37.15    9.04
   1   0   7   56.41   12.20
  -1   1  -7   13.13   14.93
  -1   2  -7    5.81   13.96
  -1   3  -7   50.36    9.00
  -1   4  -7    5.27   15.17
  -1   5  -7   -7.11   14.96
  -1   6  -7   40.63    9.38
  -1   7  -7   14.66    9.27
  -1   8  -7  121.54   11.76
  -1   9  -7   17.74   17.15
  -1  10  -7   14.54   10.51
  -1  11  -7   46.95   10.84
   2   6   6    5.52   23.82
   2   5   6   26.59   23.91
   2   4   6   25.60   21.46
   2   3   6   -6.17   22.39
   2   2   6   -9.77   21.19
   2   1   6  -20.80   21.83
  -2   0  -6  131.86   12.98
   2   0   6  151.64   13.56
  -2   1  -6  -12.94   16.61
  -2   2  -6   13.09   13.70
  -2   3  -6    5.81   14.11
  -2   4  -6  -12.02   15.18
  -2   5  -6   40.96    8.93
  -2   6  -6    2.80   15.60
  -2   7  -6   15.92   17.79
  -2   8  -6   -3.13   17.43
  -2   9  -6   82.03   11.21
  -2  10  -6   42.26   10.82
  -2  11  -6   17.38   11.98
   3   6   5   -5.78   23.97
   3   5   5  -31.92   23.57
   3   4   5    7.10   21.74
   3   3   5   25.42   13.05
   3   2   5   41.74   12.76
   3   1   5   -4.57   20.18
  -3   0  -5    7.92   16.07
   3   0   5    8.31   14.27
  -3   1  -5  296.77   22.61
  -3   2  -5  147.48   13.00
  -3   3  -5   -1.65   15.08
  -3   4  -5    0.78   14.83
  -3   5  -5   60.79    9.41
  -3   6  -5   -5.44   15.57
  -3   7  -5   93.98   10.75
  -3   8  -5  -41.16   18.80
  -3   9  -5  -50.40   18.73
  -3  10  -5   43.08   10.39
  -3  11  -5   21.57   12.00
   4   5   4  -32.57   23.48
   4   4   4  -15.32   21.43
   4   3   4   -6.29   22.25
   4   2   4    0.00   20.87
   4   1   4  111.81   13.17
  -4   0  -4   82.71   10.50
   4   0   4  100.55   12.58
  -4   1  -4  456.62   25.37
  -4   2  -4  121.56   10.32
  -4   3  -4   52.25    9.33
  -4   4  -4   11.83   15.15
  -4   5  -4   12.40   15.24
  -4   6  -4  -11.08   16.00
  -4   7  -4   16.67   11.38
  -4   8  -4  111.37   11.32
  -4   9  -4  -17.25   17.85
  -4  10  -4   14.83   18.26
  -4  11  -4    1.49   18.05
   5   5   3  -71.50   26.51
   5   4   3  -20.05   22.61
   5   3   3   -2.07   21.72
   5   2   3   13.73   21.02
   5   1   3   11.63   20.22
  -5   0  -3   37.99   10.12
   5   0   3   53.06   12.05
  -5   1  -3   32.73   10.23
  -5   2  -3   10.59   15.88
  -5   3  -3   21.92   15.89
  -5   4  -3   33.35    9.26
  -5   5  -3   -3.48   15.74
  -5   6  -3   37.33    9.63
  -5   7  -3   26.93    9.60
  -5   8  -3   96.31   11.80
  -5   9  -3    8.22   18.34
  -5  10  -3   19.81   13.35
  -5  11  -3    2.81   19.35
   6   5   2   28.29   22.81
   6   4   2   -5.14   20.83
   6   3   2   24.11   12.21
   6   2   2   30.59   12.94
   6   1   2   31.51   21.07
  -6   0  -2   17.78   18.12
   6   0   2   -9.13   20.67
  -6   1  -2  -16.04   17.33
  -6   2  -2   16.82   11.94
  -6   3  -2   10.22   16.43
  -6   4  -2   62.81   10.15
  -6   5  -2   16.87   15.29
  -6   6  -2    0.00   15.07
  -6   7  -2   15.29   10.33
  -6   8  -2   22.91   18.35
  -6   9  -2   35.36   11.39
  -6  10  -2   17.82   19.55
  -6  11  -2    6.90   21.07
   7   4   1   -2.86   22.69
   7   3   1   -5.25   22.39
   7   2   1   -6.21   23.65
   7   1   1    3.37   20.87
  -7   0  -1   24.40   18.64
   7   0   1   11.66   20.07
  -7   1  -1   -6.09   18.13
  -7   2  -1   47.22   10.38
  -7   3  -1    2.97   17.53
  -7   4  -1    3.91   16.16
  -7   5  -1   30.64   10.02
  -7   6  -1   21.26   10.45
  -7   7  -1   43.28   10.38
  -7   8  -1    9.19   17.79
  -7   9  -1   11.01   19.54
  -7  10  -1  -19.57   19.11
  -7  11  -1  -11.18   20.86
   8   3   0    1.38   21.69
   8   2   0   -6.54   21.24
   8   1   0   16.99   15.05
  -8   0   0   17.36   11.69
   8   0   0    6.64   21.46
  -8   1   0   10.02   20.45
  -8   2   0   11.84   18.04
  -8   3   0    7.63   19.02
  -8   4   0    8.56   17.88
  -8   5   0   25.47   20.13
  -8   6   0   26.09   17.97
  -8   7   0  -10.55   18.25
  -8   8   0   12.37   20.82
  -8   9   0    3.89   20.17
  -8  10   0   -8.11   21.15
   9   2  -1   19.37   22.94
   9   1  -1  -11.63   21.99
  -9   0   1   16.56   14.36
   9   0  -1  -16.25   22.41
  -9   1   1   14.16   20.28
  -9   2   1   31.37   11.14
  -9   3   1   19.62   18.87
  -9   4   1   11.38   17.89
  -9   5   1   19.09   13.29
  -9   6   1   10.59   19.86
  -9   7   1   14.72   19.93
  -9   8   1    9.07   21.78
  -9   9   1   -9.71   19.21
  10   1  -2   36.23   12.83
 -10   0   2   18.97   20.45
  10   0  -2  -41.61   24.62
 -10   1   2    4.01   20.87
 -10   2   2   14.11   20.08
 -10   3   2   -1.11   20.01
 -10   4   2    7.30   22.50
 -10   5   2  -13.58   20.09
 -10   6   2   14.02   21.12
 -10   7   2   17.22   21.21
 -10   8   2    2.83   20.33
 -11   2   3    8.29   24.49
 -11   3   3  -15.17   23.44
 -11   4   3    2.82   20.50
 -11   5   3   -1.28   22.44
 -11   6   3   41.35   12.56
 -11   7   3    2.84   21.82
   5   1 -14   -5.67   19.43
   5   2 -14   25.83   18.94
  -4   2  13    1.55   28.15
  -4   1  13   23.18   29.44
   4   0 -13   15.96   18.21
  -4   0  13   21.15   16.61
   4   1 -13   -3.96   16.31
   4   2 -13    5.39   18.66
   4   3 -13  -14.84   17.79
   4   4 -13   69.42   12.10
   4   5 -13   12.71   16.98
  -3   3  12   34.45   26.16
  -3   2  12   45.02   16.39
  -3   1  12   29.30   28.20
   3   0 -12    8.51   19.46
  -3   0  12   17.01   25.17
   3   1 -12   38.98   10.58
   3   2 -12   -4.91   17.62
   3   3 -12   -5.01   18.25
   3   4 -12  -31.64   20.81
   3   5 -12   34.52   10.82
   3   6 -12  -17.44   19.53
   3   7 -12   21.34   20.46
  -2   4  11   47.21   16.49
  -2   3  11  -51.93   27.57
  -2   2  11    5.17   26.09
  -2   1  11   33.80   15.17
   2   0 -11   -4.65   20.59
  -2   0  11   38.22   25.60
   2   1 -11   26.86   19.86
   2   2 -11    9.01   12.01
   2   3 -11   12.94   18.84
   2   4 -11   24.06    9.81
   2   5 -11  178.40   15.99
   2   6 -11    3.87   18.23
   2   7 -11   21.19   16.80
   2   8 -11    4.29   17.81
  -1   4  10    9.68   27.36
  -1   3  10  -33.46   27.42
  -1   2  10   18.22   23.91
  -1   1  10   15.10   24.86
   1   0 -10    2.25   14.84
  -1   0  10    1.23   23.52
   1   1 -10   48.62   10.19
   1   2 -10   10.72   15.45
   1   3 -10   92.77   11.20
   1   4 -10    0.10   15.24
   1   5 -10    4.56   16.42
   1   6 -10   61.49   10.67
   1   7 -10   10.07   17.70
   1   8 -10   15.89   16.91
   1   9 -10   12.87   18.69
   0   4   9  -16.25   26.74
   0   3   9  -12.74   25.29
   0   2   9   13.57   14.72
   0   1   9   29.55   24.38
   0   0  -9   -8.47   17.52
   0   0   9    4.21   23.57
   0   1  -9   44.97    9.50
   0   2  -9   26.90    8.95
   0   3  -9   -0.05   14.91
   0   4  -9   37.25   10.20
   0   5  -9   -9.81   16.03
   0   6  -9   80.25   10.77
   0   7  -9   13.11   11.56
   0   8  -9   15.21   17.84
   0   9  -9   30.87   10.72
   1   5   8  -18.46   27.13
   1   4   8    8.07   25.34
   1   3   8   -7.33   24.12
   1   2   8   41.01   13.73
   1   1   8   -5.47   24.23
  -1   0  -8  -26.98   17.87
   1   0   8   11.19   22.65
  -1   1  -8    8.25   11.46
  -1   2  -8   19.65   16.68
  -1   3  -8   13.90   16.09
  -1   4  -8   12.59    8.51
  -1   5  -8   20.70   16.54
  -1   6  -8  -10.99   17.00
  -1   7  -8   52.11   10.67
  -1   8  -8   30.22   11.15
  -1   9  -8  -16.89   18.86
  -1  10  -8  -21.10   20.60
   2   5   7  -28.35   28.55
   2   4   7   -1.19   25.56
   2   3   7   30.26   23.55
   2   2   7   16.77   23.33
   2   1   7   87.33   14.75
  -2   0  -7   59.42   10.38
   2   0   7   48.86   13.96
  -2   1  -7    6.98   15.02
  -2   2  -7    3.89   16.10
  -2   3  -7   15.59   16.47
  -2   4  -7   60.29   10.14
  -2   5  -7   74.31   10.89
  -2   6  -7   18.06   15.69
  -2   7  -7    0.05   15.97
  -2   8  -7   21.50   19.26
  -2   9  -7   17.90   19.39
  -2  10  -7   10.99   18.84
   3   4   6   -3.97   24.37
   3   3   6   35.59   14.08
   3   2   6   -4.29   24.10
   3   1   6  164.80   14.94
  -3   0  -6    5.15   18.14
   3   0   6   56.89   12.87
  -3   1  -6   23.84   18.91
  -3   2  -6   -6.80   16.11
  -3   3  -6   -7.66   17.17
  -3   4  -6    5.85   16.38
  -3   5  -6   17.96   18.14
  -3   6  -6   73.91   10.88
  -3   7  -6   22.90   10.36
  -3   8  -6   -9.33   16.42
  -3   9  -6  -16.16   19.88
  -3  10  -6    5.27   20.37
   4   4   5  -26.72   26.55
   4   3   5  -68.25   24.89
   4   2   5   18.55   25.02
   4   1   5    8.94   22.21
  -4   0  -5   25.04   18.00
   4   0   5   29.00   20.23
  -4   1  -5   12.17   17.29
  -4   2  -5   85.52   10.61
  -4   3  -5    2.94   14.67
  -4   4  -5  -18.69   16.77
  -4   5  -5   25.64    9.57
  -4   6  -5   79.41   10.54
  -4   7  -5   13.07   16.16
  -4   8  -5    5.90   18.66
  -4   9  -5   -7.56   19.10
  -4  10  -5  -32.25   18.88
   5   4   4    6.75   24.81
   5   3   4  -28.65   25.37
   5   2   4  -26.31   23.95
   5   1   4    1.02   23.29
  -5   0  -4   14.00   18.21
   5   0   4   18.16   23.54
  -5   1  -4   24.48   10.38
  -5   2  -4  117.59   11.98
  -5   3  -4    5.18   16.86
  -5   4  -4   16.13   16.36
  -5   5  -4   20.41   17.38
  -5   6  -4   10.17   11.95
  -5   7  -4   15.74   17.40
  -5   8  -4   18.45   10.66
  -5   9  -4    0.15   19.38
  -5  10  -4   20.11   16.95
   6   3   3  -32.18   25.40
   6   2   3  -27.57   23.74
   6   1   3  -21.49   21.60
  -6   0  -3   22.48   19.01
   6   0   3   23.47   22.44
  -6   1  -3   -3.31   17.25
  -6   2  -3    9.64   18.83
  -6   3  -3    3.07   17.76
  -6   4  -3   21.72   17.33
  -6   5  -3   35.14   10.25
  -6   6  -3  -19.72   17.33
  -6   7  -3   13.75   19.36
  -6   8  -3  -17.16   20.31
  -6   9  -3    3.85   19.72
  -6  10  -3   -5.36   20.08
   7   3   2  -17.09   24.92
   7   2   2    7.92   23.38
   7   1   2    6.37   22.10
  -7   0  -2  -45.36   20.54
   7   0   2   -6.10   20.76
  -7   1  -2   -0.16   18.78
  -7   2  -2  -21.20   19.74
  -7   3  -2   -2.39   19.37
  -7   4  -2    4.22   18.11
  -7   5  -2   -3.23   17.55
  -7   6  -2   14.69   13.15
  -7   7  -2   24.94   20.75
  -7   8  -2  -40.26   20.33
  -7   9  -2   36.38   11.30
  -7  10  -2   25.04   21.42
   8   2   1    2.92   22.85
   8   1   1   -5.41   22.17
  -8   0  -1   17.75   13.77
   8   0   1  -18.97   23.69
  -8   1  -1  -37.71   20.83
  -8   2  -1   16.68   18.85
  -8   3  -1  -22.55   19.02
  -8   4  -1   19.93   19.57
  -8   5  -1    1.17   21.07
  -8   6  -1    3.72   18.14
  -8   7  -1    7.39   19.04
  -8   8  -1    5.10   19.99
  -8   9  -1  -26.17   21.08
  -9   0   0    6.87   15.19
   9   0   0   -2.61   23.57
  -9   1   0   11.89   21.42
  -9   2   0    7.72   22.05
  -9   3   0  -22.66   19.37
  -9   4   0  -16.45   20.10
  -9   5   0   20.18   21.12
  -9   6   0   20.37   14.06
  -9   7   0  -11.77   20.77
  -9   8   0  -35.71   23.04
 -10   1   1   29.77   20.05
 -10   2   1  -23.54   21.77
 -10   3   1   15.19   22.37
 -10   4   1   10.77   20.57
 -10   5   1    1.18   21.77
 -10   6   1  -28.54   22.77
 -10   7   1    8.56   21.14
   3   1 -13   17.05   18.99
   3   2 -13   11.73   10.19
   3   3 -13   80.13   12.19
   3   4 -13  -12.91   18.75
  -2   1  12   -4.49   30.94
   2   0 -12    6.86   19.93
  -2   0  12   -3.71   28.65
   2   1 -12    5.38   20.50
   2   2 -12   11.91   19.45
   2   3 -12    5.39   18.85
   2   4 -12   21.42   17.61
   2   5 -12   25.03   17.03
   2   6 -12    7.15   18.82
  -1   2  11   34.37   27.62
  -1   1  11  -22.56   28.20
   1   0 -11   12.78   17.98
  -1   0  11   17.78   28.30
   1   1 -11   11.57   17.58
   1   2 -11   41.18   10.67
   1   3 -11   20.35   16.59
   1   4 -11  -12.62   18.99
   1   5 -11   10.96   12.87
   1   6 -11   36.33   11.57
   1   7 -11   14.25   19.75
   0   3  10   32.78   28.33
   0   2  10    4.27   26.35
   0   1  10   10.08   25.07
   0   0 -10   24.60   19.02
   0   0  10   20.66   19.32
   0   1 -10    4.98   18.24
   0   2 -10   -8.50   17.55
   0   3 -10   -2.54   18.54
   0   4 -10    9.83   17.01
   0   5 -10   35.03   10.57
   0   6 -10   15.48   13.38
   0   7 -10   -0.08   21.03
   0   8 -10    0.06   18.67
   1   3   9  -48.56   29.03
   1   2   9   59.85   14.47
   1   1   9    5.11   26.29
  -1   0  -9   14.59   18.27
   1   0   9    7.36   25.05
  -1   1  -9   19.12   18.20
  -1   2  -9   33.75   10.66
  -1   3  -9   46.10   10.23
  -1   4  -9    8.29   12.65
  -1   5  -9  -20.51   17.23
  -1   6  -9   25.51   10.42
  -1   7  -9   22.04   19.34
  -1   8  -9    2.81   18.54
   2   3   8   71.26   15.16
   2   2   8   -2.47   26.40
   2   1   8   24.37   25.13
  -2   0  -8    8.24   10.42
   2   0   8   24.21   17.16
  -2   1  -8   -3.45   17.33
  -2   2  -8    5.64   17.65
  -2   3  -8   13.02   11.84
  -2   4  -8    2.21   17.52
  -2   5  -8   12.95   17.41
  -2   6  -8   21.59   15.63
  -2   7  -8  -27.55   18.32
  -2   8  -8   37.24   11.89
  -2   9  -8  -26.64   18.84
   3   3   7   16.92   18.49
   3   2   7   30.48   14.05
   3   1   7   15.85   25.27
  -3   0  -7   78.92   11.83
   3   0   7  106.30   15.49
  -3   1  -7   16.31   16.82
  -3   2  -7   25.76   10.14
  -3   3  -7   16.87   16.18
  -3   4  -7   31.16    9.81
  -3   5  -7   -7.04   17.17
  -3   6  -7   17.83   19.51
  -3   7  -7   16.06   17.50
  -3   8  -7   -0.13   17.77
  -3   9  -7    5.53   21.05
   4   3   6   18.36   25.93
   4   2   6   17.18   25.50
   4   1   6   29.06   24.23
  -4   0  -6   99.53   11.88
   4   0   6  129.77   15.77
  -4   1  -6   21.83   10.48
  -4   2  -6  -23.01   18.14
  -4   3  -6    0.00   18.02
  -4   4  -6   -2.26   17.61
  -4   5  -6    2.16   16.66
  -4   6  -6   -4.74   17.99
  -4   7  -6   -2.48   21.47
  -4   8  -6  -10.44   18.97
  -4   9  -6    6.91   19.47
   5   2   5   10.95   25.17
   5   1   5  -11.91   23.92
  -5   0  -5   10.46   13.57
   5   0   5  -22.34   24.38
  -5   1  -5   23.68   17.29
  -5   2  -5  -19.81   19.67
  -5   3  -5   23.07   18.07
  -5   4  -5   17.05   17.65
  -5   5  -5  -14.96   18.10
  -5   6  -5   14.27   18.06
  -5   7  -5    9.92   20.64
  -5   8  -5  -11.96   19.18
  -5   9  -5  -42.49   21.22
   6   2   4   -1.42   26.87
   6   1   4   -0.13   25.74
  -6   0  -4    8.95   19.08
   6   0   4  -16.57   23.32
  -6   1  -4   -6.22   20.84
  -6   2  -4   21.86   18.68
  -6   3  -4    8.33   18.87
  -6   4  -4  -40.20   19.92
  -6   5  -4   17.71   17.78
  -6   6  -4   10.99   18.21
  -6   7  -4   28.00   11.31
  -6   8  -4   62.81   11.66
  -6   9  -4   11.14   20.43
   7   1   3   11.34   22.97
  -7   0  -3    7.92   20.12
   7   0   3   -0.10   23.71
  -7   1  -3   25.63   18.45
  -7   2  -3   -1.12   18.44
  -7   3  -3  -17.61   18.59
  -7   4  -3    7.40   20.46
  -7   5  -3  -14.84   19.30
  -7   6  -3   18.89   13.21
  -7   7  -3  -23.65   20.24
  -7   8  -3   26.62   11.60
  -7   9  -3  -10.04   18.88
  -8   0  -2   35.56   12.40
   8   0   2   32.23   24.39
  -8   1  -2  -18.88   20.36
  -8   2  -2    0.00   21.09
  -8   3  -2   28.35   12.20
  -8   4  -2   15.53   20.16
  -8   5  -2  -28.72   21.41
  -8   6  -2  -19.60   20.70
  -8   7  -2   19.76   13.44
  -8   8  -2   15.70   20.43
  -9   2  -1   22.67   21.70
  -9   3  -1   -9.71   20.90
  -9   4  -1   17.98   19.44
  -9   5  -1  -42.62   21.78
  -9   6  -1   11.01   18.69
  -9   7  -1   17.02   19.96
   0   1 -11    4.35   17.48
   0   2 -11  -37.37   19.91
   0   3 -11    1.38   18.52
   0   4 -11    6.91   18.03
   0   5 -11   27.05   19.72
  -1   0 -10   -7.12   18.83
   1   0  10  -19.81   27.91
  -1   1 -10  -15.07   19.11
  -1   2 -10   10.27   10.26
  -1   3 -10    2.67   18.86
  -1   4 -10   12.01   19.59
  -1   5 -10    9.20   10.86
  -1   6 -10   30.17   12.20
  -2   0  -9    0.00   17.90
   2   0   9    0.00   26.98
  -2   1  -9  -14.85   20.84
  -2   2  -9  -22.42   20.01
  -2   3  -9   14.06    9.80
  -2   4  -9   15.77   19.22
  -2   5  -9   -9.32   16.88
  -2   6  -9   -6.79   20.22
  -2   7  -9   36.86   11.08
  -3   0  -8   16.53   20.24
   3   0   8   31.60   26.25
  -3   1  -8    3.98   18.84
  -3   2  -8   -6.41   19.56
  -3   3  -8   22.07   17.42
  -3   4  -8   24.47   18.49
  -3   5  -8   17.74   14.04
  -3   6  -8   24.20   17.15
  -3   7  -8   13.95   19.33
  -4   0  -7   12.41   18.12
   4   0   7   -1.50   26.18
  -4   1  -7  -13.39   17.99
  -4   2  -7   -5.11   19.11
  -4   3  -7   23.47   18.95
  -4   4  -7    8.98   18.50
  -4   5  -7   33.03   11.78
  -4   6  -7   -1.33   19.55
  -4   7  -7    5.56   17.56
  -5   0  -6   16.87   20.84
   5   0   6    4.30   25.91
  -5   1  -6  -14.79   20.45
  -5   2  -6   25.28   18.49
  -5   3  -6   -7.82   19.49
  -5   4  -6    6.66   18.33
  -5   5  -6    6.60   18.62
  -5   6  -6   10.59   21.79
  -5   7  -6   11.10   13.24
  -6   1  -5   -4.30   19.66
  -6   2  -5   11.64   12.58
  -6   3  -5   -2.79   19.61
  -6   4  -5   13.40   13.05
  -6   5  -5   -0.05   16.65
  -6   6  -5   10.92   20.56
  -6   7  -5   22.29   16.68
  -7   2  -4   27.80   11.55
  -7   3  -4  -21.07   21.82
  -7   4  -4   24.91   18.26
  -7   5  -4    6.88   19.90
  -7   6  -4   22.14   18.26
;
_shelx_hkl_checksum              25891
loop_
_space_group_symop_id
_space_group_symop_operation_xyz
1 +X,+Y,+Z
2 -X,-Y,-Z
loop_
_atom_site_label
_atom_site_type_symbol
_atom_site_fract_x
_atom_site_fract_y
_atom_site_fract_z
_atom_site_U_iso_or_equiv
_atom_site_adp_type
_atom_site_occupancy
_atom_site_site_symmetry_order
_atom_site_calc_flag
_atom_site_refinement_flags_posn
_atom_site_refinement_flags_adp
F1 F 0.1336(7) 0.4909(6) -0.1176(6) 0.0435(12) Uani 1 1 d . .
F2 F 0.7051(7) 0.3274(6) 0.2170(6) 0.0471(13) Uani 1 1 d . .
N1 N -0.0202(12) 0.2661(10) 0.0216(11) 0.060(2) Uani 1 1 d . .
N2 N 0.4789(14) 0.1243(11) 0.3115(12) 0.067(3) Uani 1 1 d . .
C1 C 0.1286(13) 0.2854(9) 0.0537(11) 0.040(2) Uani 1 1 d . .
C2 C 0.4178(14) 0.2045(10) 0.2242(11) 0.043(2) Uani 1 1 d . .
C3 C 0.3237(12) 0.3033(9) 0.1096(10) 0.0338(18) Uani 1 1 d . .
C4 C 0.4106(11) 0.3986(9) 0.0565(9) 0.0327(18) Uani 1 1 d . .
C5 C 0.3137(11) 0.4952(9) -0.0586(10) 0.0320(18) Uani 1 1 d . .
C6 C 0.6015(12) 0.4106(9) 0.1107(9) 0.0325(18) Uani 1 1 d . .
S2 S 0.2580(3) 0.3932(3) 0.5030(3) 0.0413(7) Uani 1 1 d D .
C11 C 0.3367(12) 0.2728(9) 0.6441(10) 0.039(2) Uani 1 1 d D .
C12 C 0.5233(13) 0.2720(10) 0.7106(11) 0.047(2) Uani 1 1 d D .
H12 H 0.589383 0.211247 0.785640 0.056 Uiso 1 1 calc R U
C13 C 0.6033(14) 0.3706(10) 0.6548(11) 0.046(2) Uani 1 1 d D .
H13 H 0.730213 0.384094 0.690668 0.055 Uiso 1 1 calc R U
C14 C 0.4807(12) 0.4462(9) 0.5430(10) 0.0351(19) Uani 1 1 d D .
S1 S 0.2844(5) 0.0573(3) 0.8034(4) 0.0691(10) Uani 1 1 d D .
C10 C 0.2024(12) 0.1849(8) 0.6715(9) 0.037(2) Uani 1 1 d D .
C9 C 0.0078(11) 0.1898(9) 0.6080(10) 0.0397(14) Uani 1 1 d D .
H9 H -0.062367 0.251229 0.536779 0.048 Uiso 1 1 calc R U
C8 C -0.0540(12) 0.0834(9) 0.6751(10) 0.0397(14) Uani 1 1 d D .
H8 H -0.176134 0.065900 0.649688 0.048 Uiso 1 1 calc R U
C7 C 0.0722(15) 0.0104(11) 0.7761(12) 0.062(3) Uani 1 1 d D .
H7 H 0.046740 -0.060943 0.827956 0.074 Uiso 1 1 calc R U
loop_
_atom_site_aniso_label
_atom_site_aniso_U_11
_atom_site_aniso_U_22
_atom_site_aniso_U_33
_atom_site_aniso_U_23
_atom_site_aniso_U_13
_atom_site_aniso_U_12
F1 0.037(3) 0.055(3) 0.051(3) 0.023(2) 0.033(2) 0.020(2)
F2 0.047(3) 0.062(3) 0.050(3) 0.033(3) 0.035(3) 0.030(2)
N1 0.046(5) 0.078(6) 0.069(6) 0.028(5) 0.045(5) 0.018(4)
N2 0.081(6) 0.075(6) 0.079(6) 0.047(6) 0.062(6) 0.041(5)
C1 0.045(5) 0.036(5) 0.041(5) 0.011(4) 0.032(4) 0.004(4)
C2 0.054(5) 0.045(5) 0.047(5) 0.014(5) 0.041(5) 0.013(4)
C3 0.037(4) 0.034(4) 0.035(4) 0.012(4) 0.027(4) 0.008(3)
C4 0.041(5) 0.033(4) 0.032(4) 0.010(3) 0.029(4) 0.010(4)
C5 0.033(4) 0.031(4) 0.028(4) 0.004(3) 0.020(4) 0.008(3)
C6 0.035(4) 0.037(4) 0.029(4) 0.011(4) 0.023(4) 0.012(4)
S2 0.0420(13) 0.0481(13) 0.0369(12) 0.0162(10) 0.0290(11) 0.0100(10)
C11 0.055(5) 0.029(4) 0.028(4) 0.007(3) 0.029(4) 0.003(4)
C12 0.053(6) 0.043(5) 0.050(5) 0.002(4) 0.038(5) 0.011(4)
C13 0.059(6) 0.053(5) 0.039(5) 0.021(4) 0.036(5) 0.024(5)
C14 0.042(5) 0.035(4) 0.030(4) 0.003(4) 0.029(4) 0.001(4)
S1 0.103(2) 0.0556(17) 0.0613(18) 0.0200(14) 0.0608(18) 0.0223(15)
C10 0.055(5) 0.025(4) 0.021(4) 0.002(3) 0.026(4) -0.001(4)
C9 0.037(3) 0.037(3) 0.031(3) -0.011(2) 0.026(3) -0.014(2)
C8 0.037(3) 0.037(3) 0.031(3) -0.011(2) 0.026(3) -0.014(2)
C7 0.094(7) 0.044(5) 0.059(6) 0.013(4) 0.063(6) -0.001(5)
loop_
_atom_type_symbol
_atom_type_description
_atom_type_scat_dispersion_real
_atom_type_scat_dispersion_imag
_atom_type_scat_source
C C 0.0033 0.0016
;
International Tables for Crystallography
(Vol. C, Tables 4.2.6.8 and 6.1.1.4)
;
H H 0.0000 0.0000
;
International Tables for Crystallography
(Vol. C, Table 6.1.1.4)
;
N N 0.0061 0.0033
;
International Tables for Crystallography
(Vol. C, Tables 4.2.6.8 and 6.1.1.4)
;
F F 0.0171 0.0103
;
International Tables for Crystallography
(Vol. C, Tables 4.2.6.8 and 6.1.1.4)
;
S S 0.1246 0.1234
;
International Tables for Crystallography
(Vol. C, Tables 4.2.6.8 and 6.1.1.4)
;
loop_
_geom_angle_atom_site_label_1
_geom_angle_atom_site_label_2
_geom_angle_atom_site_label_3
_geom_angle
_geom_angle_site_symmetry_1
_geom_angle_site_symmetry_3
N1 C1 C3 174.0(9) . .
N2 C2 C3 175.2(9) . .
C4 C3 C1 124.6(7) . .
C4 C3 C2 123.3(7) . .
C1 C3 C2 112.0(6) . .
C3 C4 C6 123.2(7) . .
C3 C4 C5 122.5(7) . .
C6 C4 C5 114.3(6) . .
F1 C5 C6 118.5(7) . 2_665
F1 C5 C4 118.7(6) . .
C6 C5 C4 122.8(7) 2_665 .
F2 C6 C5 117.4(7) . 2_665
F2 C6 C4 119.7(6) . .
C5 C6 C4 122.9(7) 2_665 .
C14 S2 C11 91.6(4) . .
C12 C11 C10 129.7(7) . .
C12 C11 S2 110.4(6) . .
C10 C11 S2 119.9(6) . .
C11 C12 C13 113.0(8) . .
C11 C12 H12 123.5 . .
C13 C12 H12 123.5 . .
C14 C13 C12 114.1(8) . .
C14 C13 H13 122.9 . .
C12 C13 H13 122.9 . .
C13 C14 C14 127.1(9) . 2_666
C13 C14 S2 110.8(6) . .
C14 C14 S2 122.0(8) 2_666 .
C7 S1 C10 90.1(4) . .
C9 C10 C11 130.3(7) . .
C9 C10 S1 112.5(5) . .
C11 C10 S1 117.2(6) . .
C8 C9 C10 106.9(7) . .
C8 C9 H9 126.5 . .
C10 C9 H9 126.5 . .
C7 C8 C9 115.9(7) . .
C7 C8 H8 122.0 . .
C9 C8 H8 122.0 . .
C8 C7 S1 114.5(6) . .
C8 C7 H7 122.8 . .
S1 C7 H7 122.8 . .
loop_
_geom_bond_atom_site_label_1
_geom_bond_atom_site_label_2
_geom_bond_distance
_geom_bond_site_symmetry_2
F1 C5 1.322(9) .
F2 C6 1.323(8) .
N1 C1 1.129(10) .
N2 C2 1.121(11) .
C1 C3 1.431(11) .
C2 C3 1.448(12) .
C3 C4 1.383(10) .
C4 C6 1.414(10) .
C4 C5 1.441(10) .
C5 C6 1.357(10) 2_665
S2 C14 1.713(8) .
S2 C11 1.729(7) .
C11 C12 1.368(11) .
C11 C10 1.474(11) .
C12 C13 1.379(11) .
C12 H12 0.9300 .
C13 C14 1.356(11) .
C13 H13 0.9300 .
C14 C14 1.465(14) 2_666
S1 C7 1.693(9) .
S1 C10 1.729(7) .
C10 C9 1.457(11) .
C9 C8 1.412(10) .
C9 H9 0.9300 .
C8 C7 1.320(12) .
C8 H8 0.9300 .
C7 H7 0.9300 .
loop_
_geom_torsion_atom_site_label_1
_geom_torsion_atom_site_label_2
_geom_torsion_atom_site_label_3
_geom_torsion_atom_site_label_4
_geom_torsion
_geom_torsion_site_symmetry_4
C1 C3 C4 C6 -178.2(8) .
C2 C3 C4 C6 -0.8(12) .
C1 C3 C4 C5 2.1(12) .
C2 C3 C4 C5 179.6(8) .
C3 C4 C5 F1 -1.0(11) .
C6 C4 C5 F1 179.4(6) .
C3 C4 C5 C6 179.7(8) 2_665
C6 C4 C5 C6 0.1(12) 2_665
C3 C4 C6 F2 0.2(12) .
C5 C4 C6 F2 179.8(7) .
C3 C4 C6 C5 -179.7(8) 2_665
C5 C4 C6 C5 -0.1(12) 2_665
C14 S2 C11 C12 -2.5(7) .
C14 S2 C11 C10 179.8(6) .
C10 C11 C12 C13 180.0(8) .
S2 C11 C12 C13 2.6(10) .
C11 C12 C13 C14 -1.3(11) .
C12 C13 C14 C14 -177.7(10) 2_666
C12 C13 C14 S2 -0.6(10) .
C11 S2 C14 C13 1.8(7) .
C11 S2 C14 C14 179.0(9) 2_666
C12 C11 C10 C9 176.8(9) .
S2 C11 C10 C9 -6.0(11) .
C12 C11 C10 S1 -1.4(11) .
S2 C11 C10 S1 175.8(5) .
C7 S1 C10 C9 0.4(6) .
C7 S1 C10 C11 178.9(6) .
C11 C10 C9 C8 -179.1(7) .
S1 C10 C9 C8 -0.8(8) .
C10 C9 C8 C7 1.0(10) .
C9 C8 C7 S1 -0.8(10) .
C10 S1 C7 C8 0.2(8) .
