#------------------------------------------------------------------------------
#$Date: 2019-11-24 10:26:36 +0200 (Sun, 24 Nov 2019) $
#$Revision: 237629 $
#$URL: file:///home/coder/svn-repositories/cod/cif/7/23/73/7237366.cif $
#------------------------------------------------------------------------------
#
# This file is available in the Crystallography Open Database (COD),
# http://www.crystallography.net/
#
# All data on this site have been placed in the public domain by the
# contributors.
#
data_7237366
loop_
_publ_author_name
'Sieradzki, Adam'
'M\;aczka, Miros\/law'
'Simenas, Mantas'
'Zar\;eba, Jan K.'
'G\;agor, Anna'
'Balciunas, Sergejus'
'Kinka, Martynas'
'Ciupa, Aneta'
'Nyk, Marcin'
'Samulionis, Vytautas'
'Banys, Juras'
'Paluch, Marian'
'Pawlus, Sebastian'
_publ_section_title
;
 On the origin of ferroelectric structural phases in perovskite-like
 metal--organic formate
;
_journal_issue                   35
_journal_name_full               'Journal of Materials Chemistry C'
_journal_page_first              9420
_journal_paper_doi               10.1039/C8TC02421A
_journal_volume                  6
_journal_year                    2018
_chemical_formula_sum            'C8 H20 N4 O12 Zn2'
_chemical_formula_weight         495.02
_space_group_crystal_system      triclinic
_space_group_IT_number           1
_space_group_name_Hall           'P 1'
_space_group_name_H-M_alt        'P 1'
_atom_sites_solution_hydrogens   mixed
_audit_creation_method           SHELXL-2014/7
_audit_update_record
;
2018-04-05 deposited with the CCDC.
2018-08-10 downloaded from the CCDC.
;
_cell_angle_alpha                62.81(3)
_cell_angle_beta                 63.22(3)
_cell_angle_gamma                59.99(3)
_cell_formula_units_Z            1
_cell_length_a                   8.029(2)
_cell_length_b                   8.027(2)
_cell_length_c                   8.722(3)
_cell_measurement_reflns_used    138
_cell_measurement_temperature    150.00(10)
_cell_measurement_theta_max      28.9520
_cell_measurement_theta_min      11.8740
_cell_volume                     414.6(3)
_computing_cell_refinement       'CrysAlisPro 1.171.38.43 (Rigaku OD, 2015)'
_computing_data_collection       'CrysAlisPro 1.171.38.43 (Rigaku OD, 2015)'
_computing_data_reduction        'CrysAlisPro 1.171.38.43 (Rigaku OD, 2015)'
_computing_structure_refinement  'SHELXL-2014/7 (Sheldrick, 2014)'
_diffrn_ambient_environment      N~2~
_diffrn_ambient_temperature      150.00(10)
_diffrn_detector                 'CCD plate'
_diffrn_detector_area_resol_mean 10.6249
_diffrn_detector_type            Atlas
_diffrn_measured_fraction_theta_full 0.974
_diffrn_measured_fraction_theta_max 0.904
_diffrn_measurement_device       'four-circle diffractometer'
_diffrn_measurement_device_type  'Xcalibur, Atlas'
_diffrn_radiation_monochromator  graphite
_diffrn_radiation_probe          x-ray
_diffrn_radiation_type           'Mo K\a'
_diffrn_radiation_wavelength     0.71073
_diffrn_reflns_av_unetI/netI     0.0330
_diffrn_reflns_Laue_measured_fraction_full 0.974
_diffrn_reflns_Laue_measured_fraction_max 0.904
_diffrn_reflns_limit_h_max       10
_diffrn_reflns_limit_h_min       -10
_diffrn_reflns_limit_k_max       10
_diffrn_reflns_limit_k_min       -10
_diffrn_reflns_limit_l_max       11
_diffrn_reflns_limit_l_min       -11
_diffrn_reflns_number            2596
_diffrn_reflns_point_group_measured_fraction_full 0.939
_diffrn_reflns_point_group_measured_fraction_max 0.852
_diffrn_reflns_theta_full        28.000
_diffrn_reflns_theta_max         29.511
_diffrn_reflns_theta_min         2.742
_diffrn_source                   'fine-focus sealed X-ray tube'
_diffrn_source_type              'Enhance (Mo) X-ray Source'
_exptl_absorpt_coefficient_mu    2.965
_exptl_absorpt_correction_T_max  1.00000
_exptl_absorpt_correction_T_min  0.81429
_exptl_absorpt_correction_type   multi-scan
_exptl_absorpt_process_details
;
CrysAlisPro 1.171.38.43 (Rigaku Oxford Diffraction, 2015)
Empirical absorption correction using spherical harmonics,
 implemented in SCALE3 ABSPACK scaling algorithm.
;
_exptl_crystal_colour            colourless
_exptl_crystal_density_diffrn    1.983
_exptl_crystal_description       prism
_exptl_crystal_F_000             252
_exptl_crystal_size_max          0.21
_exptl_crystal_size_mid          0.18
_exptl_crystal_size_min          0.13
_refine_diff_density_max         0.909
_refine_diff_density_min         -1.041
_refine_diff_density_rms         0.161
_refine_ls_abs_structure_details
;
 Classical Flack method preferred over Parsons because s.u. lower.
;
_refine_ls_abs_structure_Flack   0.24(6)
_refine_ls_extinction_method     none
_refine_ls_goodness_of_fit_ref   0.968
_refine_ls_hydrogen_treatment    constr
_refine_ls_matrix_type           full
_refine_ls_number_parameters     239
_refine_ls_number_reflns         2596
_refine_ls_number_restraints     147
_refine_ls_restrained_S_all      0.947
_refine_ls_R_factor_all          0.0497
_refine_ls_R_factor_gt           0.0418
_refine_ls_shift/su_max          0.046
_refine_ls_shift/su_mean         0.029
_refine_ls_structure_factor_coef Fsqd
_refine_ls_weighting_details
'w=1/[\s^2^(Fo^2^)+(0.0900P)^2^] where P=(Fo^2^+2Fc^2^)/3'
_refine_ls_weighting_scheme      calc
_refine_ls_wR_factor_gt          0.1109
_refine_ls_wR_factor_ref         0.1152
_reflns_Friedel_coverage         0.887
_reflns_Friedel_fraction_full    0.905
_reflns_Friedel_fraction_max     0.801
_reflns_number_gt                2136
_reflns_number_total             2596
_reflns_threshold_expression     'I > 2\s(I)'
_cod_data_source_file            c8tc02421a2.cif
_cod_data_source_block           PhaseIII
_cod_database_code               7237366
_shelx_shelxl_version_number     2014/7
_shelx_space_group_comment
;
The symmetry employed for this shelxl refinement is uniquely defined
by the following loop, which should always be used as a source of
symmetry information in preference to the above space-group names.
They are only intended as comments.
;
_oxdiff_exptl_absorpt_empirical_full_min 0.795
_oxdiff_exptl_absorpt_empirical_full_max 1.324
_oxdiff_exptl_absorpt_empirical_details
;
Empirical correction (ABSPACK) includes:
- Absorption correction using spherical harmonics
- Frame scaling
;
_shelx_res_file
;

    p1.res created by SHELXL-2014/7


TITL p1 in P1
CELL 0.71073   8.028962   8.027227   8.722086    62.8132    63.2235    59.9853
ZERR    1   0.002   0.002   0.003   0.03   0.03   0.03
LATT -1
SFAC C H N O Zn
UNIT 8 20 4 12 2
acta 56
L.S. 10
BOND
FMAP 2
PLAN 20
damp 1200
omit -5 -5 -4
omit 4 0 0
omit -6 -6 -6
omit 0 -5 -5
omit 4 0 1
omit -5 -5 -3
omit -6 -6 -5

bond $h
htab 3.5
HTAB C13 O2
HTAB C13 N1
HTAB C13 N2
HTAB C14 O9
EQIV $1 x-1, y, z
HTAB C14 O11_$1
EQIV $2 x, y-1, z+1
HTAB C15 O12_$2
EQIV $3 x, y, z-1
HTAB C16 O4_$3
HTAB C16 O6
EQIV $4 x+1, y, z
HTAB C16 N3_$4
HTAB C16 N4_$4
EQIV $5 x-1, y+1, z
HTAB C17 O8_$5
EQIV $6 x, y+1, z
HTAB C17 N3_$6
HTAB C17 N1_$1
HTAB C17 N2_$1
HTAB C18 O1
EQIV $7 x+1, y-1, z+1
HTAB C18 O5_$7
HTAB C18 N3_$7
HTAB C18 N4_$7
EQIV $8 x, y-1, z
HTAB N3 O2_$8
HTAB N3 O11_$1
HTAB N3 O12_$8
EQIV $9 x-1, y, z-1
HTAB N3 O4_$9
HTAB N3 O6_$1
HTAB N3 O9_$1
EQIV $10 x-1, y-1, z
HTAB N3 N1_$10
HTAB C2 O4_$9
HTAB C2 O7_$9
HTAB C2 O10_$9
HTAB C2 N1_$9
HTAB C2 N2_$9
HTAB C2 O7_$3
HTAB C2 O8_$3
HTAB C2 O12_$8
HTAB C2 O2_$3
EQIV $11 x-1, y+1, z-1
HTAB C2 O11_$11
HTAB C2 N2_$3
HTAB N4 O1_$11
HTAB N4 O6_$1
HTAB N4 O11_$11
HTAB N4 O12
HTAB N4 O3
HTAB N4 O5
HTAB N4 O7_$3
HTAB N4 O12
HTAB N4 N2_$3
HTAB N1 O3_$4
HTAB N1 O10
HTAB N1 O11_$6
HTAB N1 O12_$4
HTAB N1 O1_$6
HTAB N1 O8_$6
HTAB N1 O9_$6
HTAB N1 O11_$6
EQIV $12 x+1, y+1, z
HTAB N1 N3_$12
HTAB C1 O5_$6
HTAB C1 O11_$5
HTAB C1 O2
HTAB C1 O6
HTAB C1 O9
HTAB C1 N3_$4
HTAB C1 N4_$4
EQIV $13 x, y+1, z-1
HTAB C1 O4_$13
HTAB C1 O7_$13
EQIV $14 x, y, z+1
HTAB C1 O12_$4
HTAB C1 N3_$12
HTAB N2 O1_$6
HTAB N2 O5_$14
HTAB N2 O6_$14
HTAB N2 O7
HTAB N2 O2
HTAB N2 O7
HTAB N2 N4_$14

isor 0.005  o1 o2 o3 o4 o5 o6 o7 o8 o9 o10 o11 o12 c13 c14
isor 0.005 c15  c17 c18 n3 c2 n4 n1 c1 n2
isor 0.001 c16
WGHT    0.090000
BASF   0.32177   0.31385
FVAR       9.82250
ZN1   5    0.728325    0.767386    0.099593    11.00000    0.00743    0.00804 =
         0.00864   -0.00243   -0.00231   -0.00307
ZN2   5    1.232664    0.262588    0.599590    11.00000    0.00773    0.00787 =
         0.00832   -0.00268   -0.00265   -0.00250
O1    4    1.187196   -0.010744    0.769840    11.00000    0.01154    0.01830 =
         0.02235   -0.00163   -0.00198   -0.00941
O2    4    0.692002    0.905625    0.272730    11.00000    0.01343    0.01714 =
         0.01643   -0.01065   -0.00186   -0.00498
O3    4    0.453370    0.725239    0.259196    11.00000    0.01371    0.01022 =
         0.02202   -0.00095   -0.00188   -0.00796
O4    4    1.365072    0.231339    0.770127    11.00000    0.00974    0.00943 =
         0.01228   -0.00196   -0.00677   -0.00114
O5    4    0.766209    0.615103   -0.065169    11.00000    0.01021    0.01442 =
         0.01459   -0.00643   -0.00281   -0.00533
O6    4    1.001273    0.809435   -0.056670    11.00000    0.00904    0.01136 =
         0.01435   -0.00304   -0.00210   -0.00247
O7    4    0.952883    0.429143    0.747277    11.00000    0.01310    0.01128 =
         0.01430   -0.00436   -0.00395   -0.00472
O8    4    1.077118    0.297594    0.439540    11.00000    0.00798    0.00799 =
         0.01106   -0.00414   -0.00700   -0.00086
O9    4    0.893198    0.488338    0.248147    11.00000    0.00850    0.00872 =
         0.01507   -0.00222   -0.00134   -0.00545
O10   4    1.275502    0.536665    0.442829    11.00000    0.00913    0.00453 =
         0.01202    0.00021   -0.00385   -0.00371
O11   4    1.512141    0.091520    0.456508    11.00000    0.01520    0.01318 =
         0.01172   -0.00583   -0.00688   -0.00238
O12   4    0.566844    1.047514   -0.048155    11.00000    0.01485    0.01559 =
         0.01337   -0.00645   -0.00646   -0.00366

C13   1    0.966819    0.465191    0.356145    11.00000    0.01316    0.00694 =
         0.01024   -0.00496   -0.00755   -0.00103
AFIX  43
H13   2    0.939690    0.580003    0.379045    11.00000   -1.20000
AFIX   0
C14   1    0.442064    0.549769    0.344770    11.00000    0.01677    0.01444 =
         0.01516   -0.00440   -0.00339   -0.00657
AFIX  43
H14   2    0.556593    0.434077    0.333717    11.00000   -1.20000
AFIX   0
C15   1    1.018593   -0.029749    0.841963    11.00000    0.00736    0.00935 =
         0.01293    0.00100   -0.00266   -0.00728
AFIX  43
H15   2    0.904863    0.081687    0.817123    11.00000   -1.20000
AFIX   0
C16   1    0.928043    0.507464   -0.150772    11.00000    0.01004    0.01012 =
         0.01039   -0.00332   -0.00309   -0.00383
AFIX  43
H16   2    1.044118    0.485422   -0.132899    11.00000   -1.20000
AFIX   0
C17   1    0.533029    1.026493    0.341519    11.00000    0.01393    0.01653 =
         0.01965   -0.00408   -0.00852   -0.00738
AFIX  43
H17   2    0.421502    1.071775    0.304596    11.00000   -1.20000
AFIX   0
C18   1    1.478889    0.068598    0.855063    11.00000    0.02300    0.01127 =
         0.02371   -0.00633   -0.00387   -0.00826
AFIX  43
H18   2    1.498287   -0.049463    0.842665    11.00000   -1.20000
AFIX   0

MOLE  1
N3    3    0.391022    0.461898    0.014207    11.00000    0.00805    0.01243 =
         0.01059   -0.00603    0.00190   -0.00202
AFIX   7
H3A   2    0.487407    0.342980    0.035704    11.00000   -1.50000
H3C   2    0.294236    0.447353    0.004674    11.00000   -1.50000
AFIX   0
C2    1    0.536935    0.564569   -0.314478    11.00000    0.02865    0.02929 =
         0.01607    0.00048   -0.00726   -0.00678
AFIX 133
H2D   2    0.426973    0.561193   -0.328734    11.00000   -1.50000
H2E   2    0.647629    0.437820   -0.315464    11.00000   -1.50000
H2F   2    0.577681    0.670850   -0.411601    11.00000   -1.50000
AFIX   0
N4    3    0.475250    0.600028   -0.147375    11.00000    0.01184    0.01160 =
         0.01748   -0.00701   -0.00405   -0.00468
AFIX  23
H4A   2    0.384033    0.724647   -0.154564    11.00000   -1.20000
H4B   2    0.580963    0.595406   -0.133650    11.00000   -1.20000
AFIX   0

mole 2
N1    3    1.066996    1.009646    0.352398    11.00000    0.01879    0.01808 =
         0.02187   -0.00853   -0.00635   -0.00651
AFIX  23
H1A   2    1.191144    0.917326    0.342445    11.00000   -1.20000
H1B   2    1.065815    1.113485    0.366197    11.00000   -1.20000
AFIX   0
C1    1    1.019723    1.079309    0.182935    11.00000    0.04217    0.04021 =
         0.02887   -0.01247   -0.01637   -0.00739
AFIX 133
H1C   2    0.888809    1.184183    0.189094    11.00000   -1.50000
H1D   2    1.021721    0.968543    0.165442    11.00000   -1.50000
H1E   2    1.117898    1.130501    0.084069    11.00000   -1.50000
AFIX   0
N2    3    0.930794    0.923290    0.515005    11.00000    0.02322    0.01396 =
         0.01267    0.00283   -0.01273   -0.00217
AFIX   7
H2A   2    0.993311    0.842019    0.599967    11.00000   -1.20000
H2B   2    0.899017    0.849996    0.488485    11.00000   -1.20000


AFIX   0
HKLF 5

REM  p1 in P1
REM R1 =  0.0418 for    2136 Fo > 4sig(Fo)  and  0.0497 for all    2596 data
REM    239 parameters refined using    147 restraints

END

WGHT      0.0834      0.0000

REM Instructions for potential hydrogen bonds
HTAB C13 O2
HTAB C13 N1
HTAB C13 N2
HTAB C14 O9
HTAB C14 O11_$1
HTAB C15 O12_$2
HTAB C16 O4_$3
HTAB C16 O6
HTAB C16 N3_$4
HTAB C16 N4_$4
HTAB C17 O8_$5
HTAB C17 N1_$1
HTAB C17 N2_$1
HTAB C18 O1
HTAB C18 O5_$7
HTAB C18 N3_$7
HTAB C18 N4_$7
HTAB N3 O2_$8
HTAB N3 O11_$1
HTAB N3 O12_$8
HTAB N3 O4_$9
HTAB N3 O9_$1
HTAB N3 N1_$10
HTAB C2 O4_$9
HTAB C2 O7_$9
HTAB C2 O10_$9
HTAB C2 N1_$9
HTAB C2 N2_$9
HTAB C2 O7_$3
HTAB C2 O8_$3
HTAB C2 O12_$8
HTAB C2 O2_$3
HTAB C2 O11_$11
HTAB C2 N2_$3
HTAB N4 O1_$11
HTAB N4 O6_$1
HTAB N4 O11_$11
HTAB N4 O3
HTAB N4 O5
HTAB N4 O7_$3
HTAB N4 O12
HTAB N4 N2_$3
HTAB N1 O3_$4
HTAB N1 O10
HTAB N1 O12_$4
HTAB N1 O1_$6
HTAB N1 O8_$6
HTAB N1 O9_$6
HTAB N1 O11_$6
HTAB N1 N3_$12
HTAB C1 O5_$6
HTAB C1 O11_$5
HTAB C1 N3_$6
HTAB C1 O1_$13
HTAB C1 O2
HTAB C1 O6
HTAB C1 O9
HTAB C1 N4_$4
HTAB C1 O4_$13
HTAB C1 O7_$13
HTAB C1 O12_$4
HTAB C1 N3_$12
HTAB N2 O1_$6
HTAB N2 O5_$14
HTAB N2 O6_$14
HTAB N2 O2
HTAB N2 O7
HTAB N2 N4_$14

REM Highest difference peak  0.909,  deepest hole -1.041,  1-sigma level  0.161
Q1    1   0.7153  0.8398  0.1066  11.00000  0.05    0.91
Q2    1   1.2551  0.1934  0.5873  11.00000  0.05    0.87
Q3    1   0.7480  0.6979  0.1006  11.00000  0.05    0.84
Q4    1   1.2148  0.3328  0.5991  11.00000  0.05    0.82
Q5    1   1.3941  0.2115  0.5384  11.00000  0.05    0.80
Q6    1   0.5670  0.8272  0.1379  11.00000  0.05    0.80
Q7    1   0.8956  0.7062  0.0643  11.00000  0.05    0.76
Q8    1   1.0704  0.3096  0.6502  11.00000  0.05    0.76
Q9    1   1.2175  0.4392  0.5581  11.00000  0.05    0.70
Q10   1   1.2474  0.0900  0.6444  11.00000  0.05    0.65
Q11   1   1.6847  0.0268  0.4251  11.00000  0.05    0.60
Q12   1   1.2155 -0.0394  0.7052  11.00000  0.05    0.58
Q13   1   0.8096  0.4907  0.7825  11.00000  0.05    0.56
Q14   1   0.7416  0.5975  0.1400  11.00000  0.05    0.53
Q15   1   0.6059  0.6893  0.2412  11.00000  0.05    0.52
Q16   1   1.2609  0.5559  0.5001  11.00000  0.05    0.52
Q17   1   0.8868  0.5147  0.1052  11.00000  0.05    0.52
Q18   1   0.7369  0.5651 -0.0850  11.00000  0.05    0.52
Q19   1   0.8548  0.8459 -0.0392  11.00000  0.05    0.52
Q20   1   0.7157  0.9726  0.2600  11.00000  0.05    0.52
;
_shelx_res_checksum              37538
_shelx_hkl_file
;
   2  10   3 11573.1 2510.99  -3
   8  -2   1 11573.1 2510.99  -2
 -10  -8  -7 11573.1 2510.99   1
   2  10   4 25712.6 2771.84  -3
   8  -2   2 25712.6 2771.84  -2
 -10  -8  -6 25712.6 2771.84   1
   2  10   5 941.532 2048.71  -3
   8  -2   3 941.532 2048.71  -2
 -10  -8  -5 941.532 2048.71   1
   2  10   6 49578.4 3284.76  -3
   8  -2   4 49578.4 3284.76  -2
 -10  -8  -4 49578.4 3284.76   1
   3  10   3 24388.5 2750.47  -3
   7  -3   0 24388.5 2750.47  -2
 -10  -7  -7 24388.5 2750.47   1
   3  10   4-795.659 1918.67  -3
   7  -3   1-795.659 1918.67  -2
 -10  -7  -6-795.659 1918.67   1
   3  10   5 30213.1 2737.55  -3
   7  -3   2 30213.1 2737.55  -2
 -10  -7  -5 30213.1 2737.55   1
   3  10   6 5014.53 1895.00  -3
   7  -3   3 5014.53 1895.00  -2
 -10  -7  -4 5014.53 1895.00   1
   4  10   1 3264.83 1815.47  -3
   6  -4  -3 3264.83 1815.47  -2
 -10  -6  -9 3264.83 1815.47   1
   4  10   2 13196.4 2155.01  -3
   6  -4  -2 13196.4 2155.01  -2
 -10  -6  -8 13196.4 2155.01   1
   4  10   3 1744.73 1910.27  -3
   6  -4  -1 1744.73 1910.27  -2
 -10  -6  -7 1744.73 1910.27   1
   4  10   4 71714.5 2370.09  -3
   6  -4   0 71714.5 2370.09  -2
 -10  -6  -6 71714.5 2370.09   1
   4  10   5 112.354 2130.19  -3
   6  -4   1 112.354 2130.19  -2
 -10  -6  -5 112.354 2130.19   1
   5  10   2 2011.04 1776.10  -3
   5  -5  -3 2011.04 1776.10  -2
 -10  -5  -8 2011.04 1776.10   1
   5  10   3 32774.0 2481.46  -3
   5  -5  -2 32774.0 2481.46  -2
 -10  -5  -7 32774.0 2481.46   1
   5  10   4 731.298 2036.90  -3
   5  -5  -1 731.298 2036.90  -2
 -10  -5  -6 731.298 2036.90   1
   5  10   5 81394.9 3494.23  -3
   5  -5   0 81394.9 3494.23  -2
 -10  -5  -5 81394.9 3494.23   1
   5  10   6 1613.98 2049.63  -3
   5  -5   1 1613.98 2049.63  -2
 -10  -5  -4 1613.98 2049.63   1
   6  10   2 30778.7 2649.41  -3
   4  -6  -4 30778.7 2649.41  -2
 -10  -4  -8 30778.7 2649.41   1
   6  10   3 2775.84 1348.63  -3
   4  -6  -3 2775.84 1348.63  -2
 -10  -4  -7 2775.84 1348.63   1
   6  10   4 21589.4 2418.74  -3
   4  -6  -2 21589.4 2418.74  -2
 -10  -4  -6 21589.4 2418.74   1
   6  10   5 1223.88 1905.96  -3
   4  -6  -1 1223.88 1905.96  -2
 -10  -4  -5 1223.88 1905.96   1
   6  10   6 62431.6 3304.53  -3
   4  -6   0 62431.6 3304.53  -2
 -10  -4  -4 62431.6 3304.53   1
   7  10   3 27635.9 2726.45  -3
   3  -7  -4 27635.9 2726.45  -2
 -10  -3  -7 27635.9 2726.45   1
   7  10   4 6185.60 2106.46  -3
   3  -7  -3 6185.60 2106.46  -2
 -10  -3  -6 6185.60 2106.46   1
   7  10   5 33150.7 2700.60  -3
   3  -7  -2 33150.7 2700.60  -2
 -10  -3  -5 33150.7 2700.60   1
   7  10   6 797.943 1864.05  -3
   3  -7  -1 797.943 1864.05  -2
 -10  -3  -4 797.943 1864.05   1
   7  10   7 25348.7 2672.89  -3
   3  -7   0 25348.7 2672.89  -2
 -10  -3  -3 25348.7 2672.89   1
   8  10   5 1665.42 1951.66  -3
   2  -8  -3 1665.42 1951.66  -2
 -10  -2  -5 1665.42 1951.66   1
   8  10   6 30446.6 2769.97  -3
   2  -8  -2 30446.6 2769.97  -2
 -10  -2  -4 30446.6 2769.97   1
   0   9   3 119120. 4914.14  -3
   9   0   3 119120. 4914.14  -2
  -9  -9  -6 119120. 4914.14   1
   0   9   4 1616.50 2422.74  -3
   9   0   4 1616.50 2422.74  -2
  -9  -9  -5 1616.50 2422.74   1
   1   9   2 40085.0 2222.39  -3
   8  -1   1 40085.0 2222.39  -2
  -9  -8  -7 40085.0 2222.39   1
   1   9   3 1053.77 1354.32  -3
   8  -1   2 1053.77 1354.32  -2
  -9  -8  -6 1053.77 1354.32   1
   1   9   4 56321.1 2391.71  -3
   8  -1   3 56321.1 2391.71  -2
  -9  -8  -5 56321.1 2391.71   1
   1   9   5 1231.23 1407.47  -3
   8  -1   4 1231.23 1407.47  -2
  -9  -8  -4 1231.23 1407.47   1
   1   9   6 18804.5 2453.38  -3
   8  -1   5 18804.5 2453.38  -2
  -9  -8  -3 18804.5 2453.38   1
   1   9   7 6105.25 1984.57  -3
   8  -1   6 6105.25 1984.57  -2
  -9  -8  -2 6105.25 1984.57   1
   1   9   8 24872.7 2733.55  -3
   8  -1   7 24872.7 2733.55  -2
  -9  -8  -1 24872.7 2733.55   1
   2   9   0 119.447 1634.84  -3
   7  -2  -2 119.447 1634.84  -2
  -9  -7  -9 119.447 1634.84   1
   2   9   1 55380.6 3064.57  -3
   7  -2  -1 55380.6 3064.57  -2
  -9  -7  -8 55380.6 3064.57   1
   2   9   2 580.994 1766.46  -3
   7  -2   0 580.994 1766.46  -2
  -9  -7  -7 580.994 1766.46   1
   2   9   3 13302.7 1569.57  -3
   7  -2   1 13302.7 1569.57  -2
  -9  -7  -6 13302.7 1569.57   1
   2   9   4 2685.87 1304.02  -3
   7  -2   2 2685.87 1304.02  -2
  -9  -7  -5 2685.87 1304.02   1
   2   9   5 71335.9 2574.30  -3
   7  -2   3 71335.9 2574.30  -2
  -9  -7  -4 71335.9 2574.30   1
   2   9   6 1741.87 1370.45  -3
   7  -2   4 1741.87 1370.45  -2
  -9  -7  -3 1741.87 1370.45   1
   2   9   7 34508.5 2489.50  -3
   7  -2   5 34508.5 2489.50  -2
  -9  -7  -2 34508.5 2489.50   1
   2   9   8 3121.07 1818.39  -3
   7  -2   6 3121.07 1818.39  -2
  -9  -7  -1 3121.07 1818.39   1
   3   9  -1 173.178 1857.63  -3
   6  -3  -4 173.178 1857.63  -2
  -9  -6 -10 173.178 1857.63   1
   3   9   0 30592.6 2417.23  -3
   6  -3  -3 30592.6 2417.23  -2
  -9  -6  -9 30592.6 2417.23   1
   3   9   1 2178.09 1729.86  -3
   6  -3  -2 2178.09 1729.86  -2
  -9  -6  -8 2178.09 1729.86   1
   3   9   2 39409.5 2716.49  -3
   6  -3  -1 39409.5 2716.49  -2
  -9  -6  -7 39409.5 2716.49   1
   3   9   3 1553.55 1673.39  -3
   6  -3   0 1553.55 1673.39  -2
  -9  -6  -6 1553.55 1673.39   1
   3   9   4 59385.9 2175.30  -3
   6  -3   1 59385.9 2175.30  -2
  -9  -6  -5 59385.9 2175.30   1
   3   9   5 3823.76 1272.47  -3
   6  -3   2 3823.76 1272.47  -2
  -9  -6  -4 3823.76 1272.47   1
   3   9   6 61127.8 2193.37  -3
   6  -3   3 61127.8 2193.37  -2
  -9  -6  -3 61127.8 2193.37   1
   3   9   7 4388.87 1243.69  -3
   6  -3   4 4388.87 1243.69  -2
  -9  -6  -2 4388.87 1243.69   1
   4   9   0 1428.42 1512.00  -3
   5  -4  -4 1428.42 1512.00  -2
  -9  -5  -9 1428.42 1512.00   1
   4   9   1 7108.54 1635.01  -3
   5  -4  -3 7108.54 1635.01  -2
  -9  -5  -8 7108.54 1635.01   1
   4   9   2 1854.90 1713.20  -3
   5  -4  -2 1854.90 1713.20  -2
  -9  -5  -7 1854.90 1713.20   1
   4   9   3 74211.5 3218.33  -3
   5  -4  -1 74211.5 3218.33  -2
  -9  -5  -6 74211.5 3218.33   1
   4   9   4 6868.81 1322.17  -3
   5  -4   0 6868.81 1322.17  -2
  -9  -5  -5 6868.81 1322.17   1
   4   9   5 90840.4 2186.12  -3
   5  -4   1 90840.4 2186.12  -2
  -9  -5  -4 90840.4 2186.12   1
   4   9   6 3161.53 1142.85  -3
   5  -4   2 3161.53 1142.85  -2
  -9  -5  -3 3161.53 1142.85   1
   4   9   7 13581.4 2264.88  -3
   5  -4   3 13581.4 2264.88  -2
  -9  -5  -2 13581.4 2264.88   1
   5   9   0 20362.5 2442.54  -3
   4  -5  -5 20362.5 2442.54  -2
  -9  -4  -9 20362.5 2442.54   1
   5   9   1 1421.75 1150.13  -3
   4  -5  -4 1421.75 1150.13  -2
  -9  -4  -8 1421.75 1150.13   1
   5   9   2 11999.0 1337.66  -3
   4  -5  -3 11999.0 1337.66  -2
  -9  -4  -7 11999.0 1337.66   1
   5   9   3 3220.96 1146.14  -3
   4  -5  -2 3220.96 1146.14  -2
  -9  -4  -6 3220.96 1146.14   1
   5   9   4 90682.4 3430.29  -3
   4  -5  -1 90682.4 3430.29  -2
  -9  -4  -5 90682.4 3430.29   1
   5   9   5 6445.36 1827.15  -3
   4  -5   0 6445.36 1827.15  -2
  -9  -4  -4 6445.36 1827.15   1
   5   9   6 72443.9 3151.25  -3
   4  -5   1 72443.9 3151.25  -2
  -9  -4  -3 72443.9 3151.25   1
   6   9   1 25614.1 2483.62  -3
   3  -6  -5 25614.1 2483.62  -2
  -9  -3  -8 25614.1 2483.62   1
   6   9   2 5181.86 1235.90  -3
   3  -6  -4 5181.86 1235.90  -2
  -9  -3  -7 5181.86 1235.90   1
   6   9   3 63335.6 2053.23  -3
   3  -6  -3 63335.6 2053.23  -2
  -9  -3  -6 63335.6 2053.23   1
   6   9   4 3235.32 1124.14  -3
   3  -6  -2 3235.32 1124.14  -2
  -9  -3  -5 3235.32 1124.14   1
   6   9   5 61725.4 1803.33  -3
   3  -6  -1 61725.4 1803.33  -2
  -9  -3  -4 61725.4 1803.33   1
   7   9   2 32961.7 2930.96  -3
   2  -7  -5 32961.7 2930.96  -2
  -9  -2  -7 32961.7 2930.96   1
   7   9   3 1537.36 1286.82  -3
   2  -7  -4 1537.36 1286.82  -2
  -9  -2  -6 1537.36 1286.82   1
   7   9   4 74519.2 2287.45  -3
   2  -7  -3 74519.2 2287.45  -2
  -9  -2  -5 74519.2 2287.45   1
   7   9   5 3028.32 1157.67  -3
   2  -7  -2 3028.32 1157.67  -2
  -9  -2  -4 3028.32 1157.67   1
   8   9   2 4284.88 2171.78  -3
   1  -8  -6 4284.88 2171.78  -2
  -9  -1  -7 4284.88 2171.78   1
   8   9   3 17882.8 2625.58  -3
   1  -8  -5 17882.8 2625.58  -2
  -9  -1  -6 17882.8 2625.58   1
   8   9   4 600.581 1797.49  -3
   1  -8  -4 600.581 1797.49  -2
  -9  -1  -5 600.581 1797.49   1
   8   9   5 60732.6 2144.77  -3
   1  -8  -3 60732.6 2144.77  -2
  -9  -1  -4 60732.6 2144.77   1
   9   9   4 7327.66 2182.95  -3
   0  -9  -5 7327.66 2182.95  -2
  -9   0  -5 7327.66 2182.95   1
  -1   8   1 36571.6 2109.71  -3
   9   1   2 36571.6 2109.71  -2
  -8  -9  -7 36571.6 2109.71   1
  -1   8   2 1215.03 1361.84  -3
   9   1   3 1215.03 1361.84  -2
  -8  -9  -6 1215.03 1361.84   1
  -1   8   3 58529.7 2467.42  -3
   9   1   4 58529.7 2467.42  -2
  -8  -9  -5 58529.7 2467.42   1
  -1   8   4 265.944 1400.02  -3
   9   1   5 265.944 1400.02  -2
  -8  -9  -4 265.944 1400.02   1
  -1   8   5 16867.2 1861.42  -3
   9   1   6 16867.2 1861.42  -2
  -8  -9  -3 16867.2 1861.42   1
   0   8  -1 409.117 1894.46  -3
   8   0  -1 409.117 1894.46  -2
  -8  -8  -9 409.117 1894.46   1
   0   8   0 28940.4 2465.35  -3
   8   0   0 28940.4 2465.35  -2
  -8  -8  -8 28940.4 2465.35   1
   0   8   1 899.610 1513.62  -3
   8   0   1 899.610 1513.62  -2
  -8  -8  -7 899.610 1513.62   1
   0   8   2 73482.9 2549.17  -3
   8   0   2 73482.9 2549.17  -2
  -8  -8  -6 73482.9 2549.17   1
   0   8   3 604.389 1201.19  -3
   8   0   3 604.389 1201.19  -2
  -8  -8  -5 604.389 1201.19   1
   0   8   4 28478.5 1960.77  -3
   8   0   4 28478.5 1960.77  -2
  -8  -8  -4 28478.5 1960.77   1
   0   8   5 1914.65 1309.73  -3
   8   0   5 1914.65 1309.73  -2
  -8  -8  -3 1914.65 1309.73   1
   0   8   6 19862.1 1948.53  -3
   8   0   6 19862.1 1948.53  -2
  -8  -8  -2 19862.1 1948.53   1
   0   8   7-170.474 1384.14  -3
   8   0   7-170.474 1384.14  -2
  -8  -8  -1-170.474 1384.14   1
  -8  -8   0 8537.56 1667.17   1
   1   8  -2 3736.89 2132.95  -3
   7  -1  -3 3736.89 2132.95  -2
  -8  -7 -10 3736.89 2132.95   1
   1   8  -1 26631.5 2473.42  -3
   7  -1  -2 26631.5 2473.42  -2
  -8  -7  -9 26631.5 2473.42   1
   1   8   0 1857.95 1619.56  -3
   7  -1  -1 1857.95 1619.56  -2
  -8  -7  -8 1857.95 1619.56   1
   1   8   1 96602.1 3696.58  -3
   7  -1   0 96602.1 3696.58  -2
  -8  -7  -7 96602.1 3696.58   1
   1   8   2 11455.1 1923.09  -3
   7  -1   1 11455.1 1923.09  -2
  -8  -7  -6 11455.1 1923.09   1
   1   8   3 28729.6 1810.04  -3
   7  -1   2 28729.6 1810.04  -2
  -8  -7  -5 28729.6 1810.04   1
   1   8   4 17909.8 1586.31  -3
   7  -1   3 17909.8 1586.31  -2
  -8  -7  -4 17909.8 1586.31   1
   1   8   5 72753.9 2415.55  -3
   7  -1   4 72753.9 2415.55  -2
  -8  -7  -3 72753.9 2415.55   1
   1   8   6 2312.32 1292.41  -3
   7  -1   5 2312.32 1292.41  -2
  -8  -7  -2 2312.32 1292.41   1
   1   8   7 46565.5 2068.79  -3
   7  -1   6 46565.5 2068.79  -2
  -8  -7  -1 46565.5 2068.79   1
   1   8   8 1998.38 1322.87  -3
   7  -1   7 1998.38 1322.87  -2
  -8  -7   0 1998.38 1322.87   1
   1   8   9 20071.0 2393.44  -3
   7  -1   8 20071.0 2393.44  -2
  -8  -7   1 20071.0 2393.44   1
   2   8  -3-1006.69 2140.11  -3
   6  -2  -5-1006.69 2140.11  -2
  -8  -6 -11-1006.69 2140.11   1
   2   8  -2 28894.3 2661.22  -3
   6  -2  -4 28894.3 2661.22  -2
  -8  -6 -10 28894.3 2661.22   1
   2   8  -1 7529.95 1834.35  -3
   6  -2  -3 7529.95 1834.35  -2
  -8  -6  -9 7529.95 1834.35   1
   2   8   0 101569. 3476.17  -3
   6  -2  -2 101569. 3476.17  -2
  -8  -6  -8 101569. 3476.17   1
   2   8   1 2698.85 1624.33  -3
   6  -2  -1 2698.85 1624.33  -2
  -8  -6  -7 2698.85 1624.33   1
   2   8   2 33980.6 2486.35  -3
   6  -2   0 33980.6 2486.35  -2
  -8  -6  -6 33980.6 2486.35   1
   2   8   3 13631.5 1439.43  -3
   6  -2   1 13631.5 1439.43  -2
  -8  -6  -5 13631.5 1439.43   1
   2   8   4 46682.2 1903.48  -3
   6  -2   2 46682.2 1903.48  -2
  -8  -6  -4 46682.2 1903.48   1
   2   8   5 32936.6 1745.38  -3
   6  -2   3 32936.6 1745.38  -2
  -8  -6  -3 32936.6 1745.38   1
   2   8   6 73395.3 2296.36  -3
   6  -2   4 73395.3 2296.36  -2
  -8  -6  -2 73395.3 2296.36   1
   2   8   7 5023.15 1218.67  -3
   6  -2   5 5023.15 1218.67  -2
  -8  -6  -1 5023.15 1218.67   1
   2   8   8 35579.7 1816.77  -3
   6  -2   6 35579.7 1816.77  -2
  -8  -6   0 35579.7 1816.77   1
   2   8   9 934.534 1221.75  -3
   6  -2   7 934.534 1221.75  -2
  -8  -6   1 934.534 1221.75   1
   3   8  -2 2650.32 1763.53  -3
   5  -3  -5 2650.32 1763.53  -2
  -8  -5 -10 2650.32 1763.53   1
   3   8  -1 71034.0 2822.10  -3
   5  -3  -4 71034.0 2822.10  -2
  -8  -5  -9 71034.0 2822.10   1
   3   8   0 2499.37 1379.06  -3
   5  -3  -3 2499.37 1379.06  -2
  -8  -5  -8 2499.37 1379.06   1
   3   8   1 21049.3 2020.78  -3
   5  -3  -2 21049.3 2020.78  -2
  -8  -5  -7 21049.3 2020.78   1
   3   8   2 135.079 1555.83  -3
   5  -3  -1 135.079 1555.83  -2
  -8  -5  -6 135.079 1555.83   1
   3   8   3 73300.8 3142.47  -3
   5  -3   0 73300.8 3142.47  -2
  -8  -5  -5 73300.8 3142.47   1
   3   8   4 3541.96 1094.13  -3
   5  -3   1 3541.96 1094.13  -2
  -8  -5  -4 3541.96 1094.13   1
   3   8   5 74578.8 2149.31  -3
   5  -3   2 74578.8 2149.31  -2
  -8  -5  -3 74578.8 2149.31   1
   3   8   6 13493.8 1324.03  -3
   5  -3   3 13493.8 1324.03  -2
  -8  -5  -2 13493.8 1324.03   1
   3   8   7 73178.4 2010.14  -3
   5  -3   4 73178.4 2010.14  -2
  -8  -5  -1 73178.4 2010.14   1
   3   8   8 2270.49 1394.87  -3
   5  -3   5 2270.49 1394.87  -2
  -8  -5   0 2270.49 1394.87   1
   4   8  -1 2471.95 1122.62  -3
   4  -4  -5 2471.95 1122.62  -2
  -8  -4  -9 2471.95 1122.62   1
   4   8   0 19186.8 1310.22  -3
   4  -4  -4 19186.8 1310.22  -2
  -8  -4  -8 19186.8 1310.22   1
   4   8   1 1262.59 998.227  -3
   4  -4  -3 1262.59 998.227  -2
  -8  -4  -7 1262.59 998.227   1
   4   8   2 71394.3 1931.40  -3
   4  -4  -2 71394.3 1931.40  -2
  -8  -4  -6 71394.3 1931.40   1
   4   8   3 9064.13 1070.05  -3
   4  -4  -1 9064.13 1070.05  -2
  -8  -4  -5 9064.13 1070.05   1
   4   8   4 119014. 3516.64  -3
   4  -4   0 119014. 3516.64  -2
  -8  -4  -4 119014. 3516.64   1
   4   8   5 7282.11 1046.51  -3
   4  -4   1 7282.11 1046.51  -2
  -8  -4  -3 7282.11 1046.51   1
   4   8   6 71533.4 2324.86  -3
   4  -4   2 71533.4 2324.86  -2
  -8  -4  -2 71533.4 2324.86   1
   4   8   7 1594.72 1033.56  -3
   4  -4   3 1594.72 1033.56  -2
  -8  -4  -1 1594.72 1033.56   1
   5   8  -1 20667.2 2416.39  -3
   3  -5  -6 20667.2 2416.39  -2
  -8  -3  -9 20667.2 2416.39   1
   5   8   0 3187.94 1000.28  -3
   3  -5  -5 3187.94 1000.28  -2
  -8  -3  -8 3187.94 1000.28   1
   5   8   1 78179.7 2069.46  -3
   3  -5  -4 78179.7 2069.46  -2
  -8  -3  -7 78179.7 2069.46   1
   5   8   2 16318.5 1312.25  -3
   3  -5  -3 16318.5 1312.25  -2
  -8  -3  -6 16318.5 1312.25   1
   5   8   3 73793.4 1913.15  -3
   3  -5  -2 73793.4 1913.15  -2
  -8  -3  -5 73793.4 1913.15   1
   5   8   4 5802.50 967.461  -3
   3  -5  -1 5802.50 967.461  -2
  -8  -3  -4 5802.50 967.461   1
   5   8   5 69667.6 1407.00  -3
   3  -5   0 69667.6 1407.00  -2
  -8  -3  -3 69667.6 1407.00   1
   3  -5   1 974.098 791.862  -2
  -8  -3  -2 974.098 791.862   1
   6   8   0 37022.1 2816.73  -3
   2  -6  -6 37022.1 2816.73  -2
  -8  -2  -8 37022.1 2816.73   1
   6   8   1 4910.99 1062.63  -3
   2  -6  -5 4910.99 1062.63  -2
  -8  -2  -7 4910.99 1062.63   1
   6   8   2 76543.3 2122.27  -3
   2  -6  -4 76543.3 2122.27  -2
  -8  -2  -6 76543.3 2122.27   1
   6   8   3 34339.2 1589.21  -3
   2  -6  -3 34339.2 1589.21  -2
  -8  -2  -5 34339.2 1589.21   1
   6   8   4 45408.9 1643.77  -3
   2  -6  -2 45408.9 1643.77  -2
  -8  -2  -4 45408.9 1643.77   1
   6   8   5 15050.7 1457.53  -3
   2  -6  -1 15050.7 1457.53  -2
  -8  -2  -3 15050.7 1457.53   1
   7   8   1 51081.0 3387.66  -3
   1  -7  -6 51081.0 3387.66  -2
  -8  -1  -7 51081.0 3387.66   1
   7   8   2 2939.00 1995.67  -3
   1  -7  -5 2939.00 1995.67  -2
  -8  -1  -6 2939.00 1995.67   1
   7   8   3 72668.8 2173.76  -3
   1  -7  -4 72668.8 2173.76  -2
  -8  -1  -5 72668.8 2173.76   1
   7   8   4 18199.7 1393.61  -3
   1  -7  -3 18199.7 1393.61  -2
  -8  -1  -4 18199.7 1393.61   1
   7   8   5 29159.3 2078.53  -3
   1  -7  -2 29159.3 2078.53  -2
  -8  -1  -3 29159.3 2078.53   1
   7   8   6 13842.0 1492.67  -3
   1  -7  -1 13842.0 1492.67  -2
  -8  -1  -2 13842.0 1492.67   1
   8   8   1-1341.26 2058.31  -3
   0  -8  -7-1341.26 2058.31  -2
  -8   0  -7-1341.26 2058.31   1
   8   8   2 45290.9 3162.70  -3
   0  -8  -6 45290.9 3162.70  -2
  -8   0  -6 45290.9 3162.70   1
   8   8   3 787.245 1578.42  -3
   0  -8  -5 787.245 1578.42  -2
  -8   0  -5 787.245 1578.42   1
   8   8   4 30610.5 1955.19  -3
   0  -8  -4 30610.5 1955.19  -2
  -8   0  -4 30610.5 1955.19   1
   8   8   5 348.490 1087.34  -3
   0  -8  -3 348.490 1087.34  -2
  -8   0  -3 348.490 1087.34   1
   8   8   6 80872.9 2242.80  -3
   0  -8  -2 80872.9 2242.80  -2
  -8   0  -2 80872.9 2242.80   1
   9   8   3 13767.4 2371.04  -3
  -1  -9  -6 13767.4 2371.04  -2
  -8   1  -5 13767.4 2371.04   1
   9   8   4 1423.39 1905.81  -3
  -1  -9  -5 1423.39 1905.81  -2
  -8   1  -4 1423.39 1905.81   1
  -3   7   2 29897.2 2587.36  -3
  10   3   5 29897.2 2587.36  -2
  -7 -10  -5 29897.2 2587.36   1
  -3   7   3 5382.05 1940.22  -3
  10   3   6 5382.05 1940.22  -2
  -7 -10  -4 5382.05 1940.22   1
  -3   7   4 22831.0 2415.59  -3
  10   3   7 22831.0 2415.59  -2
  -7 -10  -3 22831.0 2415.59   1
  -2   7  -1 60492.3 3550.63  -3
   9   2   1 60492.3 3550.63  -2
  -7  -9  -8 60492.3 3550.63   1
  -2   7   0 2605.87 1378.64  -3
   9   2   2 2605.87 1378.64  -2
  -7  -9  -7 2605.87 1378.64   1
  -2   7   1 11779.2 1506.40  -3
   9   2   3 11779.2 1506.40  -2
  -7  -9  -6 11779.2 1506.40   1
  -2   7   2 1644.06 1306.64  -3
   9   2   4 1644.06 1306.64  -2
  -7  -9  -5 1644.06 1306.64   1
  -2   7   3 69875.9 2561.03  -3
   9   2   5 69875.9 2561.03  -2
  -7  -9  -4 69875.9 2561.03   1
  -2   7   4 1359.43 1338.49  -3
   9   2   6 1359.43 1338.49  -2
  -7  -9  -3 1359.43 1338.49   1
  -2   7   5 33683.2 1964.49  -3
   9   2   7 33683.2 1964.49  -2
  -7  -9  -2 33683.2 1964.49   1
  -2   7   6 2734.31 1954.30  -3
   9   2   8 2734.31 1954.30  -2
  -7  -9  -1 2734.31 1954.30   1
  -1   7  -2 27713.2 2802.79  -3
   8   1  -1 27713.2 2802.79  -2
  -7  -8  -9 27713.2 2802.79   1
  -1   7  -1 715.930 1794.35  -3
   8   1   0 715.930 1794.35  -2
  -7  -8  -8 715.930 1794.35   1
  -1   7   0 90194.8 3583.96  -3
   8   1   1 90194.8 3583.96  -2
  -7  -8  -7 90194.8 3583.96   1
  -1   7   1 10900.1 1433.04  -3
   8   1   2 10900.1 1433.04  -2
  -7  -8  -6 10900.1 1433.04   1
  -1   7   2 28652.6 1777.78  -3
   8   1   3 28652.6 1777.78  -2
  -7  -8  -5 28652.6 1777.78   1
  -1   7   3 18116.0 1618.47  -3
   8   1   4 18116.0 1618.47  -2
  -7  -8  -4 18116.0 1618.47   1
  -1   7   4 71548.7 2397.01  -3
   8   1   5 71548.7 2397.01  -2
  -7  -8  -3 71548.7 2397.01   1
  -1   7   5 3266.70 1312.30  -3
   8   1   6 3266.70 1312.30  -2
  -7  -8  -2 3266.70 1312.30   1
  -1   7   6 45372.3 2087.85  -3
   8   1   7 45372.3 2087.85  -2
  -7  -8  -1 45372.3 2087.85   1
  -1   7   7 2174.83 1379.76  -3
   8   1   8 2174.83 1379.76  -2
  -7  -8   0 2174.83 1379.76   1
  -1   7   8 21911.3 2572.30  -3
   8   1   9 21911.3 2572.30  -2
  -7  -8   1 21911.3 2572.30   1
   0   7  -4 1821.28 2196.47  -3
   7   0  -4 1821.28 2196.47  -2
  -7  -7 -11 1821.28 2196.47   1
   0   7  -3 29112.1 2869.78  -3
   7   0  -3 29112.1 2869.78  -2
  -7  -7 -10 29112.1 2869.78   1
   0   7  -2 3886.94 1817.77  -3
   7   0  -2 3886.94 1817.77  -2
  -7  -7  -9 3886.94 1817.77   1
   0   7  -1 60005.7 2948.28  -3
   7   0  -1 60005.7 2948.28  -2
  -7  -7  -8 60005.7 2948.28   1
   0   7   0 623.226 1353.38  -3
   7   0   0 623.226 1353.38  -2
  -7  -7  -7 623.226 1353.38   1
   0   7   1 132527. 4114.78  -3
   7   0   1 132527. 4114.78  -2
  -7  -7  -6 132527. 4114.78   1
   0   7   2 697.275 1064.94  -3
   7   0   2 697.275 1064.94  -2
  -7  -7  -5 697.275 1064.94   1
   0   7   3 5584.85 1218.92  -3
   7   0   3 5584.85 1218.92  -2
  -7  -7  -4 5584.85 1218.92   1
   0   7   4 401.466 1050.76  -3
   7   0   4 401.466 1050.76  -2
  -7  -7  -3 401.466 1050.76   1
   0   7   5 89105.6 2552.92  -3
   7   0   5 89105.6 2552.92  -2
  -7  -7  -2 89105.6 2552.92   1
   0   7   6 3190.10 1174.53  -3
   7   0   6 3190.10 1174.53  -2
  -7  -7  -1 3190.10 1174.53   1
   0   7   7 50847.5 2188.14  -3
   7   0   7 50847.5 2188.14  -2
  -7  -7   0 50847.5 2188.14   1
   0   7   8 1373.99 1259.92  -3
   7   0   8 1373.99 1259.92  -2
  -7  -7   1 1373.99 1259.92   1
   0   7   9 22850.6 2595.68  -3
   7   0   9 22850.6 2595.68  -2
  -7  -7   2 22850.6 2595.68   1
   1   7  -4 20636.7 2597.04  -3
   6  -1  -5 20636.7 2597.04  -2
  -7  -6 -11 20636.7 2597.04   1
   1   7  -3 2125.22 1890.90  -3
   6  -1  -4 2125.22 1890.90  -2
  -7  -6 -10 2125.22 1890.90   1
   1   7  -2 51522.0 3009.37  -3
   6  -1  -3 51522.0 3009.37  -2
  -7  -6  -9 51522.0 3009.37   1
   1   7  -1 5130.28 1566.70  -3
   6  -1  -2 5130.28 1566.70  -2
  -7  -6  -8 5130.28 1566.70   1
   1   7   0 71648.8 2940.69  -3
   6  -1  -1 71648.8 2940.69  -2
  -7  -6  -7 71648.8 2940.69   1
   1   7   1 35847.4 2366.82  -3
   6  -1   0 35847.4 2366.82  -2
  -7  -6  -6 35847.4 2366.82   1
   1   7   2 56646.9 2762.28  -3
   6  -1   1 56646.9 2762.28  -2
  -7  -6  -5 56646.9 2762.28   1
   1   7   3 12737.2 1300.56  -3
   6  -1   2 12737.2 1300.56  -2
  -7  -6  -4 12737.2 1300.56   1
   1   7   4 37598.6 1776.42  -3
   6  -1   3 37598.6 1776.42  -2
  -7  -6  -3 37598.6 1776.42   1
   1   7   5 6256.25 1188.32  -3
   6  -1   4 6256.25 1188.32  -2
  -7  -6  -2 6256.25 1188.32   1
   1   7   6 137695. 2811.46  -3
   6  -1   5 137695. 2811.46  -2
  -7  -6  -1 137695. 2811.46   1
   1   7   7 5690.27 1205.00  -3
   6  -1   6 5690.27 1205.00  -2
  -7  -6   0 5690.27 1205.00   1
   1   7   8 38292.0 1884.03  -3
   6  -1   7 38292.0 1884.03  -2
  -7  -6   1 38292.0 1884.03   1
   1   7   9 1334.12 1226.99  -3
   6  -1   8 1334.12 1226.99  -2
  -7  -6   2 1334.12 1226.99   1
   1   7  10 19099.3 2300.48  -3
   6  -1   9 19099.3 2300.48  -2
  -7  -6   3 19099.3 2300.48   1
   2   7  -3 17349.0 2196.10  -3
   5  -2  -5 17349.0 2196.10  -2
  -7  -5 -10 17349.0 2196.10   1
   2   7  -2 5694.83 1736.11  -3
   5  -2  -4 5694.83 1736.11  -2
  -7  -5  -9 5694.83 1736.11   1
   2   7  -1 96079.0 3177.28  -3
   5  -2  -3 96079.0 3177.28  -2
  -7  -5  -8 96079.0 3177.28   1
   2   7   0 3348.39 1358.20  -3
   5  -2  -2 3348.39 1358.20  -2
  -7  -5  -7 3348.39 1358.20   1
   2   7   1 59490.3 2690.45  -3
   5  -2  -1 59490.3 2690.45  -2
  -7  -5  -6 59490.3 2690.45   1
   2   7   2 2080.83 1398.34  -3
   5  -2   0 2080.83 1398.34  -2
  -7  -5  -5 2080.83 1398.34   1
   2   7   3 80469.4 3259.61  -3
   5  -2   1 80469.4 3259.61  -2
  -7  -5  -4 80469.4 3259.61   1
   2   7   4 1425.23 938.148  -3
   5  -2   2 1425.23 938.148  -2
  -7  -5  -3 1425.23 938.148   1
   2   7   5 123933. 2533.80  -3
   5  -2   3 123933. 2533.80  -2
  -7  -5  -2 123933. 2533.80   1
   2   7   6 2948.24 981.363  -3
   5  -2   4 2948.24 981.363  -2
  -7  -5  -1 2948.24 981.363   1
   2   7   7 67945.3 2605.86  -3
   5  -2   5 67945.3 2605.86  -2
  -7  -5   0 67945.3 2605.86   1
   2   7   8 4791.14 1459.74  -3
   5  -2   6 4791.14 1459.74  -2
  -7  -5   1 4791.14 1459.74   1
   2   7   9 11803.3 1766.67  -3
   5  -2   7 11803.3 1766.67  -2
  -7  -5   2 11803.3 1766.67   1
   3   7  -3 5001.70 1961.73  -3
   4  -3  -6 5001.70 1961.73  -2
  -7  -4 -10 5001.70 1961.73   1
   3   7  -2 55544.1 2001.67  -3
   4  -3  -5 55544.1 2001.67  -2
  -7  -4  -9 55544.1 2001.67   1
   3   7  -1 14652.3 1216.14  -3
   4  -3  -4 14652.3 1216.14  -2
  -7  -4  -8 14652.3 1216.14   1
   3   7   0 132701. 2531.47  -3
   4  -3  -3 132701. 2531.47  -2
  -7  -4  -7 132701. 2531.47   1
   3   7   1 16684.5 1183.41  -3
   4  -3  -2 16684.5 1183.41  -2
  -7  -4  -6 16684.5 1183.41   1
   3   7   2 57357.5 1679.43  -3
   4  -3  -1 57357.5 1679.43  -2
  -7  -4  -5 57357.5 1679.43   1
   3   7   3 837.644 1269.91  -3
   4  -3   0 837.644 1269.91  -2
  -7  -4  -4 837.644 1269.91   1
   3   7   4 61223.7 1724.17  -3
   4  -3   1 61223.7 1724.17  -2
  -7  -4  -3 61223.7 1724.17   1
   3   7   5 4691.44 1233.43  -3
   4  -3   2 4691.44 1233.43  -2
  -7  -4  -2 4691.44 1233.43   1
   3   7   6 102856. 2736.91  -3
   4  -3   3 102856. 2736.91  -2
  -7  -4  -1 102856. 2736.91   1
   3   7   7 849.919 1077.20  -3
   4  -3   4 849.919 1077.20  -2
  -7  -4   0 849.919 1077.20   1
   3   7   8 33984.5 1915.41  -3
   4  -3   5 33984.5 1915.41  -2
  -7  -4   1 33984.5 1915.41   1
   3   7   9 4804.09 1350.56  -3
   4  -3   6 4804.09 1350.56  -2
  -7  -4   2 4804.09 1350.56   1
   4   7  -2 5632.50 1875.16  -3
   3  -4  -6 5632.50 1875.16  -2
  -7  -3  -9 5632.50 1875.16   1
   4   7  -1 35936.5 1443.54  -3
   3  -4  -5 35936.5 1443.54  -2
  -7  -3  -8 35936.5 1443.54   1
   4   7   0 821.032 906.053  -3
   3  -4  -4 821.032 906.053  -2
  -7  -3  -7 821.032 906.053   1
   4   7   1 107977. 2207.38  -3
   3  -4  -3 107977. 2207.38  -2
  -7  -3  -6 107977. 2207.38   1
   4   7   2 4059.04 946.510  -3
   3  -4  -2 4059.04 946.510  -2
  -7  -3  -5 4059.04 946.510   1
   4   7   3 60830.0 1553.23  -3
   3  -4  -1 60830.0 1553.23  -2
  -7  -3  -4 60830.0 1553.23   1
   4   7   4 2309.79 724.988  -3
   3  -4   0 2309.79 724.988  -2
  -7  -3  -3 2309.79 724.988   1
   4   7   5 58956.8 1858.89  -3
   3  -4   1 58956.8 1858.89  -2
  -7  -3  -2 58956.8 1858.89   1
   4   7   6 17027.6 1167.82  -3
   3  -4   2 17027.6 1167.82  -2
  -7  -3  -1 17027.6 1167.82   1
   4   7   7 129496. 2657.61  -3
   3  -4   3 129496. 2657.61  -2
  -7  -3   0 129496. 2657.61   1
   4   7   8 15911.7 1286.03  -3
   3  -4   4 15911.7 1286.03  -2
  -7  -3   1 15911.7 1286.03   1
   5   7  -2 13430.9 2291.91  -3
   2  -5  -7 13430.9 2291.91  -2
  -7  -2  -9 13430.9 2291.91   1
   5   7  -1 6456.34 1824.04  -3
   2  -5  -6 6456.34 1824.04  -2
  -7  -2  -8 6456.34 1824.04   1
   5   7   0 67582.9 1795.35  -3
   2  -5  -5 67582.9 1795.35  -2
  -7  -2  -7 67582.9 1795.35   1
   5   7   1 2525.32 917.947  -3
   2  -5  -4 2525.32 917.947  -2
  -7  -2  -6 2525.32 917.947   1
   5   7   2 128567. 2399.50  -3
   2  -5  -3 128567. 2399.50  -2
  -7  -2  -5 128567. 2399.50   1
   5   7   3 2831.43 619.798  -3
   2  -5  -2 2831.43 619.798  -2
  -7  -2  -4 2831.43 619.798   1
   5   7   4 74036.3 1435.82  -3
   2  -5  -1 74036.3 1435.82  -2
  -7  -2  -3 74036.3 1435.82   1
   2  -5   0 1131.68 495.149  -2
  -7  -2  -2 1131.68 495.149   1
   5   7   5 1258.88 489.166  -3
   2  -5   0 1258.88 489.166  -2
  -7  -2  -2 1258.88 489.166   1
   2  -5   1 40073.5 1154.34  -2
  -7  -2  -1 40073.5 1154.34   1
   5   7   6 56602.6 1248.32  -3
   2  -5   1 56602.6 1248.32  -2
  -7  -2  -1 56602.6 1248.32   1
   6   7  -1 42176.8 3014.96  -3
   1  -6  -7 42176.8 3014.96  -2
  -7  -1  -8 42176.8 3014.96   1
   6   7   0 3625.68 1753.35  -3
   1  -6  -6 3625.68 1753.35  -2
  -7  -1  -7 3625.68 1753.35   1
   6   7   1 139091. 2570.40  -3
   1  -6  -5 139091. 2570.40  -2
  -7  -1  -6 139091. 2570.40   1
   6   7   2 6199.58 989.794  -3
   1  -6  -4 6199.58 989.794  -2
  -7  -1  -5 6199.58 989.794   1
   6   7   3 36143.8 1131.81  -3
   1  -6  -3 36143.8 1131.81  -2
  -7  -1  -4 36143.8 1131.81   1
   6   7   4 13965.8 1510.04  -3
   1  -6  -2 13965.8 1510.04  -2
  -7  -1  -3 13965.8 1510.04   1
   1  -6  -1 35922.5 953.999  -2
  -7  -1  -2 35922.5 953.999   1
   6   7   5 63902.0 2206.31  -3
   1  -6  -1 63902.0 2206.31  -2
  -7  -1  -2 63902.0 2206.31   1
   6   7   6 38382.4 1543.85  -3
   1  -6   0 38382.4 1543.85  -2
  -7  -1  -1 38382.4 1543.85   1
   7   7   0 57491.9 3394.01  -3
   0  -7  -7 57491.9 3394.01  -2
  -7   0  -7 57491.9 3394.01   1
   7   7   1 3430.43 1506.76  -3
   0  -7  -6 3430.43 1506.76  -2
  -7   0  -6 3430.43 1506.76   1
   7   7   2 88329.6 1931.85  -3
   0  -7  -5 88329.6 1931.85  -2
  -7   0  -5 88329.6 1931.85   1
   7   7   3 550.509 1370.92  -3
   0  -7  -4 550.509 1370.92  -2
  -7   0  -4 550.509 1370.92   1
   7   7   4 7616.78 1403.82  -3
   0  -7  -3 7616.78 1403.82  -2
  -7   0  -3 7616.78 1403.82   1
   8   7   1 42250.0 2936.74  -3
  -1  -8  -7 42250.0 2936.74  -2
  -7   1  -6 42250.0 2936.74   1
   8   7   2 3102.11 1789.67  -3
  -1  -8  -6 3102.11 1789.67  -2
  -7   1  -5 3102.11 1789.67   1
  -4   6   0 70731.5 3480.54  -3
  10   4   4 70731.5 3480.54  -2
  -6 -10  -6 70731.5 3480.54   1
  -4   6   1 926.265 1471.48  -3
  10   4   5 926.265 1471.48  -2
  -6 -10  -5 926.265 1471.48   1
  -4   6   2 17468.4 2140.66  -3
  10   4   6 17468.4 2140.66  -2
  -6 -10  -4 17468.4 2140.66   1
  -4   6   3 266.104 1740.22  -3
  10   4   7 266.104 1740.22  -2
  -6 -10  -3 266.104 1740.22   1
  -4   6   4 31811.7 2443.21  -3
  10   4   8 31811.7 2443.21  -2
  -6 -10  -2 31811.7 2443.21   1
  -3   6  -2 3382.03 1988.72  -3
   9   3   1 3382.03 1988.72  -2
  -6  -9  -8 3382.03 1988.72   1
  -3   6  -1 38836.9 2114.51  -3
   9   3   2 38836.9 2114.51  -2
  -6  -9  -7 38836.9 2114.51   1
  -3   6   0 2965.44 1298.14  -3
   9   3   3 2965.44 1298.14  -2
  -6  -9  -6 2965.44 1298.14   1
  -3   6   1 55512.7 2161.14  -3
   9   3   4 55512.7 2161.14  -2
  -6  -9  -5 55512.7 2161.14   1
  -3   6   2 2803.06 1257.92  -3
   9   3   5 2803.06 1257.92  -2
  -6  -9  -4 2803.06 1257.92   1
  -3   6   3 54855.5 2205.67  -3
   9   3   6 54855.5 2205.67  -2
  -6  -9  -3 54855.5 2205.67   1
  -3   6   4 3763.50 1339.17  -3
   9   3   7 3763.50 1339.17  -2
  -6  -9  -2 3763.50 1339.17   1
  -3   6   5 26083.8 2424.85  -3
   9   3   8 26083.8 2424.85  -2
  -6  -9  -1 26083.8 2424.85   1
  -3   6   6 602.170 1791.37  -3
   9   3   9 602.170 1791.37  -2
  -6  -9   0 602.170 1791.37   1
  -2   6  -4 34398.8 3121.57  -3
   8   2  -2 34398.8 3121.57  -2
  -6  -8 -10 34398.8 3121.57   1
  -2   6  -3 9772.24 2217.97  -3
   8   2  -1 9772.24 2217.97  -2
  -6  -8  -9 9772.24 2217.97   1
  -2   6  -2 115490. 4197.90  -3
   8   2   0 115490. 4197.90  -2
  -6  -8  -8 115490. 4197.90   1
  -2   6  -1 3429.98 1719.61  -3
   8   2   1 3429.98 1719.61  -2
  -6  -8  -7 3429.98 1719.61   1
  -2   6   0 31841.4 1744.76  -3
   8   2   2 31841.4 1744.76  -2
  -6  -8  -6 31841.4 1744.76   1
  -2   6   1 12174.9 1320.43  -3
   8   2   3 12174.9 1320.43  -2
  -6  -8  -5 12174.9 1320.43   1
  -2   6   2 43210.8 1891.65  -3
   8   2   4 43210.8 1891.65  -2
  -6  -8  -4 43210.8 1891.65   1
  -2   6   3 31630.9 1745.20  -3
   8   2   5 31630.9 1745.20  -2
  -6  -8  -3 31630.9 1745.20   1
  -2   6   4 69389.7 2318.49  -3
   8   2   6 69389.7 2318.49  -2
  -6  -8  -2 69389.7 2318.49   1
  -2   6   5 7671.88 1284.32  -3
   8   2   7 7671.88 1284.32  -2
  -6  -8  -1 7671.88 1284.32   1
  -2   6   6 34913.8 1827.26  -3
   8   2   8 34913.8 1827.26  -2
  -6  -8   0 34913.8 1827.26   1
  -2   6   7 1200.90 1855.50  -3
   8   2   9 1200.90 1855.50  -2
  -6  -8   1 1200.90 1855.50   1
  -1   6  -5 17717.0 2389.95  -3
   7   1  -4 17717.0 2389.95  -2
  -6  -7 -11 17717.0 2389.95   1
  -1   6  -4 1899.74 2096.20  -3
   7   1  -3 1899.74 2096.20  -2
  -6  -7 -10 1899.74 2096.20   1
  -1   6  -3 53454.8 3191.20  -3
   7   1  -2 53454.8 3191.20  -2
  -6  -7  -9 53454.8 3191.20   1
  -1   6  -2 5925.74 1887.06  -3
   7   1  -1 5925.74 1887.06  -2
  -6  -7  -8 5925.74 1887.06   1
  -1   6  -1 69828.6 2931.52  -3
   7   1   0 69828.6 2931.52  -2
  -6  -7  -7 69828.6 2931.52   1
  -1   6   0 29629.4 2111.50  -3
   7   1   1 29629.4 2111.50  -2
  -6  -7  -6 29629.4 2111.50   1
  -1   6   1 56301.4 2017.99  -3
   7   1   2 56301.4 2017.99  -2
  -6  -7  -5 56301.4 2017.99   1
  -1   6   2 13529.3 1289.43  -3
   7   1   3 13529.3 1289.43  -2
  -6  -7  -4 13529.3 1289.43   1
  -1   6   3 37003.7 1758.73  -3
   7   1   4 37003.7 1758.73  -2
  -6  -7  -3 37003.7 1758.73   1
  -1   6   4 6703.80 1248.72  -3
   7   1   5 6703.80 1248.72  -2
  -6  -7  -2 6703.80 1248.72   1
  -1   6   5 133841. 2864.57  -3
   7   1   6 133841. 2864.57  -2
  -6  -7  -1 133841. 2864.57   1
  -1   6   6 3228.33 1204.43  -3
   7   1   7 3228.33 1204.43  -2
  -6  -7   0 3228.33 1204.43   1
  -1   6   7 37517.3 1926.16  -3
   7   1   8 37517.3 1926.16  -2
  -6  -7   1 37517.3 1926.16   1
  -1   6   8 1780.63 1300.84  -3
   7   1   9 1780.63 1300.84  -2
  -6  -7   2 1780.63 1300.84   1
   0   6  -5 326.167 1780.45  -3
   6   0  -5 326.167 1780.45  -2
  -6  -6 -11 326.167 1780.45   1
   0   6  -4 42877.6 2629.07  -3
   6   0  -4 42877.6 2629.07  -2
  -6  -6 -10 42877.6 2629.07   1
   0   6  -3 426.389 1533.27  -3
   6   0  -3 426.389 1533.27  -2
  -6  -6  -9 426.389 1533.27   1
   0   6  -2 33142.8 2550.92  -3
   6   0  -2 33142.8 2550.92  -2
  -6  -6  -8 33142.8 2550.92   1
   0   6  -1 6515.31 1274.84  -3
   6   0  -1 6515.31 1274.84  -2
  -6  -6  -7 6515.31 1274.84   1
   0   6   0 52819.3 3034.70  -3
   6   0   0 52819.3 3034.70  -2
  -6  -6  -6 52819.3 3034.70   1
   0   6   1 317.890 1181.75  -3
   6   0   1 317.890 1181.75  -2
  -6  -6  -5 317.890 1181.75   1
   0   6   2 117294. 2523.19  -3
   6   0   2 117294. 2523.19  -2
  -6  -6  -4 117294. 2523.19   1
   0   6   3 2000.40 1030.03  -3
   6   0   3 2000.40 1030.03  -2
  -6  -6  -3 2000.40 1030.03   1
   0   6   4 46193.2 1822.86  -3
   6   0   4 46193.2 1822.86  -2
  -6  -6  -2 46193.2 1822.86   1
   0   6   5 506.343 887.858  -3
   6   0   5 506.343 887.858  -2
  -6  -6  -1 506.343 887.858   1
   0   6   6 72139.2 2166.95  -3
   6   0   6 72139.2 2166.95  -2
  -6  -6   0 72139.2 2166.95   1
   0   6   7-314.722 1061.17  -3
   6   0   7-314.722 1061.17  -2
  -6  -6   1-314.722 1061.17   1
   0   6   8 39604.7 1853.79  -3
   6   0   8 39604.7 1853.79  -2
  -6  -6   2 39604.7 1853.79   1
   0   6   9 549.921 1181.22  -3
   6   0   9 549.921 1181.22  -2
  -6  -6   3 549.921 1181.22   1
   1   6  -5 37392.2 2605.37  -3
   5  -1  -6 37392.2 2605.37  -2
  -6  -5 -11 37392.2 2605.37   1
   1   6  -4-25.5182 1726.71  -3
   5  -1  -5-25.5182 1726.71  -2
  -6  -5 -10-25.5182 1726.71   1
   1   6  -3 69471.8 3162.23  -3
   5  -1  -4 69471.8 3162.23  -2
  -6  -5  -9 69471.8 3162.23   1
   1   6  -2 8244.50 1675.02  -3
   5  -1  -3 8244.50 1675.02  -2
  -6  -5  -8 8244.50 1675.02   1
   1   6  -1 86000.3 2772.93  -3
   5  -1  -2 86000.3 2772.93  -2
  -6  -5  -7 86000.3 2772.93   1
   1   6   0 13373.2 1538.35  -3
   5  -1  -1 13373.2 1538.35  -2
  -6  -5  -6 13373.2 1538.35   1
   1   6   1 75833.3 2818.25  -3
   5  -1   0 75833.3 2818.25  -2
  -6  -5  -5 75833.3 2818.25   1
   1   6   2 10354.1 1614.83  -3
   5  -1   1 10354.1 1614.83  -2
  -6  -5  -4 10354.1 1614.83   1
   1   6   3 172710. 2830.36  -3
   5  -1   2 172710. 2830.36  -2
  -6  -5  -3 172710. 2830.36   1
   1   6   4 1253.97 901.881  -3
   5  -1   3 1253.97 901.881  -2
  -6  -5  -2 1253.97 901.881   1
   1   6   5 25104.4 1392.06  -3
   5  -1   4 25104.4 1392.06  -2
  -6  -5  -1 25104.4 1392.06   1
   1   6   6 2493.52 922.488  -3
   5  -1   5 2493.52 922.488  -2
  -6  -5   0 2493.52 922.488   1
   1   6   7 77586.8 2899.14  -3
   5  -1   6 77586.8 2899.14  -2
  -6  -5   1 77586.8 2899.14   1
   1   6   8 970.805 1350.79  -3
   5  -1   7 970.805 1350.79  -2
  -6  -5   2 970.805 1350.79   1
   1   6   9 46030.2 2686.35  -3
   5  -1   8 46030.2 2686.35  -2
  -6  -5   3 46030.2 2686.35   1
   1   6  10 2666.99 1938.18  -3
   5  -1   9 2666.99 1938.18  -2
  -6  -5   4 2666.99 1938.18   1
   2   6  -4 39615.8 1851.71  -3
   4  -2  -6 39615.8 1851.71  -2
  -6  -4 -10 39615.8 1851.71   1
   2   6  -3 3499.35 1119.34  -3
   4  -2  -5 3499.35 1119.34  -2
  -6  -4  -9 3499.35 1119.34   1
   2   6  -2 94832.3 2311.40  -3
   4  -2  -4 94832.3 2311.40  -2
  -6  -4  -8 94832.3 2311.40   1
   2   6  -1 3558.16 897.622  -3
   4  -2  -3 3558.16 897.622  -2
  -6  -4  -7 3558.16 897.622   1
   2   6   0 87359.5 2043.92  -3
   4  -2  -2 87359.5 2043.92  -2
  -6  -4  -6 87359.5 2043.92   1
   2   6   1 7510.63 1307.93  -3
   4  -2  -1 7510.63 1307.93  -2
  -6  -4  -5 7510.63 1307.93   1
   2   6   2 45403.6 2204.26  -3
   4  -2   0 45403.6 2204.26  -2
  -6  -4  -4 45403.6 2204.26   1
   2   6   3 5638.68 1319.80  -3
   4  -2   1 5638.68 1319.80  -2
  -6  -4  -3 5638.68 1319.80   1
   2   6   4 164710. 2592.60  -3
   4  -2   2 164710. 2592.60  -2
  -6  -4  -2 164710. 2592.60   1
   2   6   5 29753.9 1773.60  -3
   4  -2   3 29753.9 1773.60  -2
  -6  -4  -1 29753.9 1773.60   1
   2   6   6 110381. 2843.57  -3
   4  -2   4 110381. 2843.57  -2
  -6  -4   0 110381. 2843.57   1
   2   6   7 12707.0 1391.55  -3
   4  -2   5 12707.0 1391.55  -2
  -6  -4   1 12707.0 1391.55   1
   2   6   8 54010.8 2333.95  -3
   4  -2   6 54010.8 2333.95  -2
  -6  -4   2 54010.8 2333.95   1
   2   6   9 1111.49 1394.85  -3
   4  -2   7 1111.49 1394.85  -2
  -6  -4   3 1111.49 1394.85   1
   2   6  10 34046.2 2572.71  -3
   4  -2   8 34046.2 2572.71  -2
  -6  -4   4 34046.2 2572.71   1
   3   6  -4 9438.70 2075.49  -3
   3  -3  -7 9438.70 2075.49  -2
  -6  -3 -10 9438.70 2075.49   1
   3   6  -3 29947.3 1553.69  -3
   3  -3  -6 29947.3 1553.69  -2
  -6  -3  -9 29947.3 1553.69   1
   3   6  -2 41169.6 1686.31  -3
   3  -3  -5 41169.6 1686.31  -2
  -6  -3  -8 41169.6 1686.31   1
   3   6  -1 78151.6 1889.92  -3
   3  -3  -4 78151.6 1889.92  -2
  -6  -3  -7 78151.6 1889.92   1
   3   6   0 10308.8 981.819  -3
   3  -3  -3 10308.8 981.819  -2
  -6  -3  -6 10308.8 981.819   1
   3   6   1 233365. 2909.82  -3
   3  -3  -2 233365. 2909.82  -2
  -6  -3  -5 233365. 2909.82   1
   3   6   2 32662.3 1213.74  -3
   3  -3  -1 32662.3 1213.74  -2
  -6  -3  -4 32662.3 1213.74   1
   3   6   3 28124.7 1044.28  -3
   3  -3   0 28124.7 1044.28  -2
  -6  -3  -3 28124.7 1044.28   1
   3   6   4 32146.8 1501.95  -3
   3  -3   1 32146.8 1501.95  -2
  -6  -3  -2 32146.8 1501.95   1
   3   6   5 216819. 3354.78  -3
   3  -3   2 216819. 3354.78  -2
  -6  -3  -1 216819. 3354.78   1
   3   6   6 9023.08 1066.51  -3
   3  -3   3 9023.08 1066.51  -2
  -6  -3   0 9023.08 1066.51   1
   3   6   7 79709.4 2267.49  -3
   3  -3   4 79709.4 2267.49  -2
  -6  -3   1 79709.4 2267.49   1
   3   6   8 40150.9 1887.01  -3
   3  -3   5 40150.9 1887.01  -2
  -6  -3   2 40150.9 1887.01   1
   3   6   9 29829.3 1942.77  -3
   3  -3   6 29829.3 1942.77  -2
  -6  -3   3 29829.3 1942.77   1
   4   6  -3 142.875 1569.99  -3
   2  -4  -7 142.875 1569.99  -2
  -6  -2  -9 142.875 1569.99   1
   4   6  -2 59562.1 1764.55  -3
   2  -4  -6 59562.1 1764.55  -2
  -6  -2  -8 59562.1 1764.55   1
   4   6  -1 12411.9 942.539  -3
   2  -4  -5 12411.9 942.539  -2
  -6  -2  -7 12411.9 942.539   1
   4   6   0 122937. 2219.71  -3
   2  -4  -4 122937. 2219.71  -2
  -6  -2  -6 122937. 2219.71   1
   4   6   1 29833.1 1034.63  -3
   2  -4  -3 29833.1 1034.63  -2
  -6  -2  -5 29833.1 1034.63   1
   4   6   2 164070. 1908.50  -3
   2  -4  -2 164070. 1908.50  -2
  -6  -2  -4 164070. 1908.50   1
   4   6   3 5065.01 638.723  -3
   2  -4  -1 5065.01 638.723  -2
  -6  -2  -3 5065.01 638.723   1
   4   6   4 42721.0 1027.54  -3
   2  -4   0 42721.0 1027.54  -2
  -6  -2  -2 42721.0 1027.54   1
   4   6   5 6840.68 511.476  -3
   2  -4   1 6840.68 511.476  -2
  -6  -2  -1 6840.68 511.476   1
   4   6   6 84866.8 1859.53  -3
   2  -4   2 84866.8 1859.53  -2
  -6  -2   0 84866.8 1859.53   1
   4   6   7 3767.29 771.301  -3
   2  -4   3 3767.29 771.301  -2
  -6  -2   1 3767.29 771.301   1
   4   6   8 97493.2 2328.18  -3
   2  -4   4 97493.2 2328.18  -2
  -6  -2   2 97493.2 2328.18   1
   4   6   9 1599.93 1098.88  -3
   2  -4   5 1599.93 1098.88  -2
  -6  -2   3 1599.93 1098.88   1
   5   6  -3 45238.0 3134.24  -3
   1  -5  -8 45238.0 3134.24  -2
  -6  -1  -9 45238.0 3134.24   1
   5   6  -2 3228.19 1667.34  -3
   1  -5  -7 3228.19 1667.34  -2
  -6  -1  -8 3228.19 1667.34   1
   5   6  -1 80512.3 1813.78  -3
   1  -5  -6 80512.3 1813.78  -2
  -6  -1  -7 80512.3 1813.78   1
   5   6   0 2430.30 716.011  -3
   1  -5  -5 2430.30 716.011  -2
  -6  -1  -6 2430.30 716.011   1
   5   6   1 23977.9 1216.00  -3
   1  -5  -4 23977.9 1216.00  -2
  -6  -1  -5 23977.9 1216.00   1
   5   6   2 1031.01 598.867  -3
   1  -5  -3 1031.01 598.867  -2
  -6  -1  -4 1031.01 598.867   1
   5   6   3 171063. 2121.32  -3
   1  -5  -2 171063. 2121.32  -2
  -6  -1  -3 171063. 2121.32   1
   5   6   4 9010.23 614.943  -3
   1  -5  -1 9010.23 614.943  -2
  -6  -1  -2 9010.23 614.943   1
   1  -5   0 40518.3 836.012  -2
  -6  -1  -1 40518.3 836.012   1
   5   6   5 67129.1 848.048  -3
   1  -5   0 67129.1 848.048  -2
  -6  -1  -1 67129.1 848.048   1
   5   6   6 15482.3 793.097  -3
   1  -5   1 15482.3 793.097  -2
  -6  -1   0 15482.3 793.097   1
   5   6   7 88040.6 1047.89  -3
   1  -5   2 88040.6 1047.89  -2
  -6  -1   1 88040.6 1047.89   1
   6   6  -2 30054.6 2665.29  -3
   0  -6  -8 30054.6 2665.29  -2
  -6   0  -8 30054.6 2665.29   1
   6   6  -1 1869.87 1378.77  -3
   0  -6  -7 1869.87 1378.77  -2
  -6   0  -7 1869.87 1378.77   1
   6   6   0 63199.8 1554.23  -3
   0  -6  -6 63199.8 1554.23  -2
  -6   0  -6 63199.8 1554.23   1
   6   6   1 762.009 637.537  -3
   0  -6  -5 762.009 637.537  -2
  -6   0  -5 762.009 637.537   1
   6   6   2 62789.8 1165.59  -3
   0  -6  -4 62789.8 1165.59  -2
  -6   0  -4 62789.8 1165.59   1
   6   6   3 4511.31 702.266  -3
   0  -6  -3 4511.31 702.266  -2
  -6   0  -3 4511.31 702.266   1
   6   6   4 119381. 1261.57  -3
   0  -6  -2 119381. 1261.57  -2
  -6   0  -2 119381. 1261.57   1
   7   6  -1 41458.0 2858.91  -3
  -1  -7  -8 41458.0 2858.91  -2
  -6   1  -7 41458.0 2858.91   1
   7   6   0 4550.05 1635.75  -3
  -1  -7  -7 4550.05 1635.75  -2
  -6   1  -6 4550.05 1635.75   1
   7   6   2 6361.74 960.126  -3
  -1  -7  -5 6361.74 960.126  -2
  -6   1  -4 6361.74 960.126   1
  -5   5  -1 943.272 1446.41  -3
  10   5   4 943.272 1446.41  -2
  -5 -10  -6 943.272 1446.41   1
  -5   5   0 72151.2 2479.73  -3
  10   5   5 72151.2 2479.73  -2
  -5 -10  -5 72151.2 2479.73   1
  -5   5   1 1122.03 1415.05  -3
  10   5   6 1122.03 1415.05  -2
  -5 -10  -4 1122.03 1415.05   1
  -5   5   2 36836.7 2785.51  -3
  10   5   7 36836.7 2785.51  -2
  -5 -10  -3 36836.7 2785.51   1
  -5   5   3 1307.49 1906.83  -3
  10   5   8 1307.49 1906.83  -2
  -5 -10  -2 1307.49 1906.83   1
  -4   5  -3 10703.6 2324.55  -3
   9   4   1 10703.6 2324.55  -2
  -5  -9  -8 10703.6 2324.55   1
  -4   5  -2 3321.52 1365.24  -3
   9   4   2 3321.52 1365.24  -2
  -5  -9  -7 3321.52 1365.24   1
  -4   5  -1 67533.5 2403.88  -3
   9   4   3 67533.5 2403.88  -2
  -5  -9  -6 67533.5 2403.88   1
  -4   5   0 7587.20 1408.22  -3
   9   4   4 7587.20 1408.22  -2
  -5  -9  -5 7587.20 1408.22   1
  -4   5   1 86470.7 2486.09  -3
   9   4   5 86470.7 2486.09  -2
  -5  -9  -4 86470.7 2486.09   1
  -4   5   2 957.340 1168.45  -3
   9   4   6 957.340 1168.45  -2
  -5  -9  -3 957.340 1168.45   1
  -4   5   3 11218.6 1381.57  -3
   9   4   7 11218.6 1381.57  -2
  -5  -9  -2 11218.6 1381.57   1
  -4   5   4 577.838 1108.67  -3
   9   4   8 577.838 1108.67  -2
  -5  -9  -1 577.838 1108.67   1
  -5  -9   0 3449.22 1135.26   1
  -3   5  -4 79446.7 3688.76  -3
   8   3  -1 79446.7 3688.76  -2
  -5  -8  -9 79446.7 3688.76   1
  -3   5  -3 2405.18 1870.32  -3
   8   3   0 2405.18 1870.32  -2
  -5  -8  -8 2405.18 1870.32   1
  -3   5  -2 22909.4 2258.49  -3
   8   3   1 22909.4 2258.49  -2
  -5  -8  -7 22909.4 2258.49   1
  -3   5  -1 277.785 1184.94  -3
   8   3   2 277.785 1184.94  -2
  -5  -8  -6 277.785 1184.94   1
  -3   5   0 63151.7 2079.46  -3
   8   3   3 63151.7 2079.46  -2
  -5  -8  -5 63151.7 2079.46   1
  -3   5   1 5238.64 1111.28  -3
   8   3   4 5238.64 1111.28  -2
  -5  -8  -4 5238.64 1111.28   1
  -3   5   2 69841.0 2219.97  -3
   8   3   5 69841.0 2219.97  -2
  -5  -8  -3 69841.0 2219.97   1
  -3   5   3 13866.9 1367.36  -3
   8   3   6 13866.9 1367.36  -2
  -5  -8  -2 13866.9 1367.36   1
  -3   5   4 70594.4 2160.52  -3
   8   3   7 70594.4 2160.52  -2
  -5  -8  -1 70594.4 2160.52   1
  -3   5   5 2173.75 1073.34  -3
   8   3   8 2173.75 1073.34  -2
  -5  -8   0 2173.75 1073.34   1
  -3   5   6 17592.0 1442.51  -3
   8   3   9 17592.0 1442.51  -2
  -5  -8   1 17592.0 1442.51   1
  -2   5  -5 15937.1 2193.90  -3
   7   2  -3 15937.1 2193.90  -2
  -5  -7 -10 15937.1 2193.90   1
  -2   5  -4 6498.49 2098.55  -3
   7   2  -2 6498.49 2098.55  -2
  -5  -7  -9 6498.49 2098.55   1
  -2   5  -3 107273. 3888.43  -3
   7   2  -1 107273. 3888.43  -2
  -5  -7  -8 107273. 3888.43   1
  -2   5  -2 3096.44 1627.21  -3
   7   2   0 3096.44 1627.21  -2
  -5  -7  -7 3096.44 1627.21   1
  -2   5  -1 57510.0 2749.20  -3
   7   2   1 57510.0 2749.20  -2
  -5  -7  -6 57510.0 2749.20   1
  -2   5   0 1624.21 967.619  -3
   7   2   2 1624.21 967.619  -2
  -5  -7  -5 1624.21 967.619   1
  -2   5   1 69354.6 2048.61  -3
   7   2   3 69354.6 2048.61  -2
  -5  -7  -4 69354.6 2048.61   1
  -2   5   2 2928.82 1014.51  -3
   7   2   4 2928.82 1014.51  -2
  -5  -7  -3 2928.82 1014.51   1
  -2   5   3 120284. 2636.08  -3
   7   2   5 120284. 2636.08  -2
  -5  -7  -2 120284. 2636.08   1
  -2   5   4 2776.11 1010.92  -3
   7   2   6 2776.11 1010.92  -2
  -5  -7  -1 2776.11 1010.92   1
  -2   5   5 67912.9 2056.27  -3
   7   2   7 67912.9 2056.27  -2
  -5  -7   0 67912.9 2056.27   1
  -2   5   6 5582.27 1192.68  -3
   7   2   8 5582.27 1192.68  -2
  -5  -7   1 5582.27 1192.68   1
  -2   5   7 12779.0 1408.70  -3
   7   2   9 12779.0 1408.70  -2
  -5  -7   2 12779.0 1408.70   1
  -1   5  -6 36517.2 2659.30  -3
   6   1  -5 36517.2 2659.30  -2
  -5  -6 -11 36517.2 2659.30   1
  -1   5  -5-198.149 1686.36  -3
   6   1  -4-198.149 1686.36  -2
  -5  -6 -10-198.149 1686.36   1
  -1   5  -4 71834.3 3517.43  -3
   6   1  -3 71834.3 3517.43  -2
  -5  -6  -9 71834.3 3517.43   1
  -1   5  -3 5922.59 1705.92  -3
   6   1  -2 5922.59 1705.92  -2
  -5  -6  -8 5922.59 1705.92   1
  -1   5  -2 96955.8 3454.52  -3
   6   1  -1 96955.8 3454.52  -2
  -5  -6  -7 96955.8 3454.52   1
  -1   5  -1 12582.4 1512.45  -3
   6   1   0 12582.4 1512.45  -2
  -5  -6  -6 12582.4 1512.45   1
  -1   5   0 62158.7 2500.85  -3
   6   1   1 62158.7 2500.85  -2
  -5  -6  -5 62158.7 2500.85   1
  -1   5   1 8684.89 1073.79  -3
   6   1   2 8684.89 1073.79  -2
  -5  -6  -4 8684.89 1073.79   1
  -1   5   2 166138. 2780.74  -3
   6   1   3 166138. 2780.74  -2
  -5  -6  -3 166138. 2780.74   1
  -1   5   3 1702.16 960.431  -3
   6   1   4 1702.16 960.431  -2
  -5  -6  -2 1702.16 960.431   1
  -1   5   4 25366.4 1422.67  -3
   6   1   5 25366.4 1422.67  -2
  -5  -6  -1 25366.4 1422.67   1
  -1   5   5 2485.32 945.122  -3
   6   1   6 2485.32 945.122  -2
  -5  -6   0 2485.32 945.122   1
  -1   5   6 82912.2 2208.27  -3
   6   1   7 82912.2 2208.27  -2
  -5  -6   1 82912.2 2208.27   1
  -1   5   7 1931.77 1049.55  -3
   6   1   8 1931.77 1049.55  -2
  -5  -6   2 1931.77 1049.55   1
  -1   5   8 44719.4 1910.39  -3
   6   1   9 44719.4 1910.39  -2
  -5  -6   3 44719.4 1910.39   1
   0   5  -6 1388.21 1435.97  -3
   5   0  -6 1388.21 1435.97  -2
  -5  -5 -11 1388.21 1435.97   1
   0   5  -5 104056. 3952.67  -3
   5   0  -5 104056. 3952.67  -2
  -5  -5 -10 104056. 3952.67   1
   0   5  -4 3570.33 1442.24  -3
   5   0  -4 3570.33 1442.24  -2
  -5  -5  -9 3570.33 1442.24   1
   0   5  -3 56551.5 2730.13  -3
   5   0  -3 56551.5 2730.13  -2
  -5  -5  -8 56551.5 2730.13   1
   0   5  -2 837.229 1192.43  -3
   5   0  -2 837.229 1192.43  -2
  -5  -5  -7 837.229 1192.43   1
   0   5  -1 5682.32 1210.30  -3
   5   0  -1 5682.32 1210.30  -2
  -5  -5  -6 5682.32 1210.30   1
   0   5   0 279.054 1000.47  -3
   5   0   0 279.054 1000.47  -2
  -5  -5  -5 279.054 1000.47   1
   0   5   1 117720. 4152.14  -3
   5   0   1 117720. 4152.14  -2
  -5  -5  -4 117720. 4152.14   1
   0   5   2 133.793 782.098  -3
   5   0   2 133.793 782.098  -2
  -5  -5  -3 133.793 782.098   1
   0   5   3 156261. 2559.18  -3
   5   0   3 156261. 2559.18  -2
  -5  -5  -2 156261. 2559.18   1
   0   5   4 5315.08 940.303  -3
   5   0   4 5315.08 940.303  -2
  -5  -5  -1 5315.08 940.303   1
   0   5   5 8310.75 926.023  -3
   5   0   5 8310.75 926.023  -2
  -5  -5   0 8310.75 926.023   1
   0   5   6 719.666 857.153  -3
   5   0   6 719.666 857.153  -2
  -5  -5   1 719.666 857.153   1
   0   5   7 139092. 3712.33  -3
   5   0   7 139092. 3712.33  -2
  -5  -5   2 139092. 3712.33   1
   0   5   8 723.135 1389.92  -3
   5   0   8 723.135 1389.92  -2
  -5  -5   3 723.135 1389.92   1
   0   5   9 53420.1 3037.53  -3
   5   0   9 53420.1 3037.53  -2
  -5  -5   4 53420.1 3037.53   1
   0   5  10 1189.66 1711.76  -3
   5   0  10 1189.66 1711.76  -2
  -5  -5   5 1189.66 1711.76   1
   1   5  -5 2184.84 1282.80  -3
   4  -1  -6 2184.84 1282.80  -2
  -5  -4 -10 2184.84 1282.80   1
   1   5  -4 105913. 2572.16  -3
   4  -1  -5 105913. 2572.16  -2
  -5  -4  -9 105913. 2572.16   1
   1   5  -3 2983.13 1025.81  -3
   4  -1  -4 2983.13 1025.81  -2
  -5  -4  -8 2983.13 1025.81   1
   1   5  -2 31299.7 1437.83  -3
   4  -1  -3 31299.7 1437.83  -2
  -5  -4  -7 31299.7 1437.83   1
   1   5  -1 18065.3 1027.25  -3
   4  -1  -2 18065.3 1027.25  -2
  -5  -4  -6 18065.3 1027.25   1
   1   5   0 91096.4 2697.99  -3
   4  -1  -1 91096.4 2697.99  -2
  -5  -4  -5 91096.4 2697.99   1
   1   5   1 28734.3 1747.21  -3
   4  -1   0 28734.3 1747.21  -2
  -5  -4  -4 28734.3 1747.21   1
   1   5   2 427544. 5835.39  -3
   4  -1   1 427544. 5835.39  -2
  -5  -4  -3 427544. 5835.39   1
   1   5   3 12492.5 982.652  -3
   4  -1   2 12492.5 982.652  -2
  -5  -4  -2 12492.5 982.652   1
   1   5   4 140093. 2267.33  -3
   4  -1   3 140093. 2267.33  -2
  -5  -4  -1 140093. 2267.33   1
   1   5   5 2565.58 1055.20  -3
   4  -1   4 2565.58 1055.20  -2
  -5  -4   0 2565.58 1055.20   1
   1   5   6 17476.4 1504.53  -3
   4  -1   5 17476.4 1504.53  -2
  -5  -4   1 17476.4 1504.53   1
   1   5   7 1021.59 1110.49  -3
   4  -1   6 1021.59 1110.49  -2
  -5  -4   2 1021.59 1110.49   1
   1   5   8 100021. 3278.09  -3
   4  -1   7 100021. 3278.09  -2
  -5  -4   3 100021. 3278.09   1
   1   5   9 3866.84 1661.24  -3
   4  -1   8 3866.84 1661.24  -2
  -5  -4   4 3866.84 1661.24   1
   1   5  10 26236.1 2701.24  -3
   4  -1   9 26236.1 2701.24  -2
  -5  -4   5 26236.1 2701.24   1
   2   5  -5 33649.7 2932.74  -3
   3  -2  -7 33649.7 2932.74  -2
  -5  -3 -10 33649.7 2932.74   1
   2   5  -4 1642.80 964.906  -3
   3  -2  -6 1642.80 964.906  -2
  -5  -3  -9 1642.80 964.906   1
   2   5  -3 89706.8 2272.97  -3
   3  -2  -5 89706.8 2272.97  -2
  -5  -3  -8 89706.8 2272.97   1
   2   5  -2 17434.3 1156.02  -3
   3  -2  -4 17434.3 1156.02  -2
  -5  -3  -7 17434.3 1156.02   1
   2   5  -1 191357. 2745.64  -3
   3  -2  -3 191357. 2745.64  -2
  -5  -3  -6 191357. 2745.64   1
   2   5   0 9992.89 627.095  -3
   3  -2  -2 9992.89 627.095  -2
  -5  -3  -5 9992.89 627.095   1
   2   5   1 128276. 1757.84  -3
   3  -2  -1 128276. 1757.84  -2
  -5  -3  -4 128276. 1757.84   1
   2   5   2 3364.04 631.737  -3
   3  -2   0 3364.04 631.737  -2
  -5  -3  -3 3364.04 631.737   1
   2   5   3 77642.0 1585.37  -3
   3  -2   1 77642.0 1585.37  -2
  -5  -3  -2 77642.0 1585.37   1
   2   5   4 5410.03 985.775  -3
   3  -2   2 5410.03 985.775  -2
  -5  -3  -1 5410.03 985.775   1
   2   5   5 129361. 2757.47  -3
   3  -2   3 129361. 2757.47  -2
  -5  -3   0 129361. 2757.47   1
   2   5   6 3257.05 989.007  -3
   3  -2   4 3257.05 989.007  -2
  -5  -3   1 3257.05 989.007   1
   2   5   7 68682.7 2331.79  -3
   3  -2   5 68682.7 2331.79  -2
  -5  -3   2 68682.7 2331.79   1
   2   5   8 13404.6 1586.46  -3
   3  -2   6 13404.6 1586.46  -2
  -5  -3   3 13404.6 1586.46   1
   2   5   9 56908.1 2829.71  -3
   3  -2   7 56908.1 2829.71  -2
  -5  -3   4 56908.1 2829.71   1
   2   5  10 3558.75 1667.19  -3
   3  -2   8 3558.75 1667.19  -2
  -5  -3   5 3558.75 1667.19   1
   2   5  11 41844.9 3000.39  -3
   3  -2   9 41844.9 3000.39  -2
  -5  -3   6 41844.9 3000.39   1
   3   5  -5 2126.76 1904.40  -3
   2  -3  -8 2126.76 1904.40  -2
  -5  -2 -10 2126.76 1904.40   1
   3   5  -4 56852.3 3314.34  -3
   2  -3  -7 56852.3 3314.34  -2
  -5  -2  -9 56852.3 3314.34   1
   3   5  -3 14192.5 1142.27  -3
   2  -3  -6 14192.5 1142.27  -2
  -5  -2  -8 14192.5 1142.27   1
   3   5  -2 76927.1 1874.82  -3
   2  -3  -5 76927.1 1874.82  -2
  -5  -2  -7 76927.1 1874.82   1
   3   5  -1 3144.31 668.614  -3
   2  -3  -4 3144.31 668.614  -2
  -5  -2  -6 3144.31 668.614   1
   3   5   0 141615. 1844.77  -3
   2  -3  -3 141615. 1844.77  -2
  -5  -2  -5 141615. 1844.77   1
   3   5   1 6207.28 533.064  -3
   2  -3  -2 6207.28 533.064  -2
  -5  -2  -4 6207.28 533.064   1
   3   5   2 78704.2 1347.16  -3
   2  -3  -1 78704.2 1347.16  -2
  -5  -2  -3 78704.2 1347.16   1
   3   5   3 2719.78 703.680  -3
   2  -3   0 2719.78 703.680  -2
  -5  -2  -2 2719.78 703.680   1
   3   5   4 124200. 1292.51  -3
   2  -3   1 124200. 1292.51  -2
  -5  -2  -1 124200. 1292.51   1
   3   5   5 9599.20 823.592  -3
   2  -3   2 9599.20 823.592  -2
  -5  -2   0 9599.20 823.592   1
   3   5   6 182805. 2867.22  -3
   2  -3   3 182805. 2867.22  -2
  -5  -2   1 182805. 2867.22   1
   3   5   7 15221.0 1197.51  -3
   2  -3   4 15221.0 1197.51  -2
  -5  -2   2 15221.0 1197.51   1
   3   5   8 91217.2 2675.26  -3
   2  -3   5 91217.2 2675.26  -2
  -5  -2   3 91217.2 2675.26   1
   3   5   9 3000.39 1221.99  -3
   2  -3   6 3000.39 1221.99  -2
  -5  -2   4 3000.39 1221.99   1
   3   5  10 30760.2 2145.74  -3
   2  -3   7 30760.2 2145.74  -2
  -5  -2   5 30760.2 2145.74   1
   4   5  -4 5086.29 1903.05  -3
   1  -4  -8 5086.29 1903.05  -2
  -5  -1  -9 5086.29 1903.05   1
   4   5  -3 111490. 4100.08  -3
   1  -4  -7 111490. 4100.08  -2
  -5  -1  -8 111490. 4100.08   1
   4   5  -2 904.885 676.250  -3
   1  -4  -6 904.885 676.250  -2
  -5  -1  -7 904.885 676.250   1
   4   5  -1 17140.3 905.468  -3
   1  -4  -5 17140.3 905.468  -2
  -5  -1  -6 17140.3 905.468   1
   4   5   0 2502.87 550.969  -3
   1  -4  -4 2502.87 550.969  -2
  -5  -1  -5 2502.87 550.969   1
   4   5   1 134791. 1683.39  -3
   1  -4  -3 134791. 1683.39  -2
  -5  -1  -4 134791. 1683.39   1
   4   5   2 12919.3 768.877  -3
   1  -4  -2 12919.3 768.877  -2
  -5  -1  -3 12919.3 768.877   1
   4   5   3 368501. 2381.58  -3
   1  -4  -1 368501. 2381.58  -2
  -5  -1  -2 368501. 2381.58   1
   1  -4   0 19261.0 798.110  -2
  -5  -1  -1 19261.0 798.110   1
   4   5   4 27660.9 918.594  -3
   1  -4   0 27660.9 918.594  -2
  -5  -1  -1 27660.9 918.594   1
   1  -4   1 65495.8 1127.49  -2
  -5  -1   0 65495.8 1127.49   1
   4   5   5 103943. 1533.73  -3
   1  -4   1 103943. 1533.73  -2
  -5  -1   0 103943. 1533.73   1
   4   5   6 20054.4 830.759  -3
   1  -4   2 20054.4 830.759  -2
  -5  -1   1 20054.4 830.759   1
   4   5   7 31801.3 1248.38  -3
   1  -4   3 31801.3 1248.38  -2
  -5  -1   2 31801.3 1248.38   1
   4   5   8 2231.44 847.699  -3
   1  -4   4 2231.44 847.699  -2
  -5  -1   3 2231.44 847.699   1
   4   5   9 98424.0 2514.26  -3
   1  -4   5 98424.0 2514.26  -2
  -5  -1   4 98424.0 2514.26   1
   5   5  -4 57672.0 3458.12  -3
   0  -5  -9 57672.0 3458.12  -2
  -5   0  -9 57672.0 3458.12   1
   5   5  -3 168.787 1489.88  -3
   0  -5  -8 168.787 1489.88  -2
  -5   0  -8 168.787 1489.88   1
   5   5  -2 191579. 4051.31  -3
   0  -5  -7 191579. 4051.31  -2
  -5   0  -7 191579. 4051.31   1
   5   5  -1 41.7494 466.620  -3
   0  -5  -6 41.7494 466.620  -2
  -5   0  -6 41.7494 466.620   1
   5   5   0 8800.71 705.970  -3
   0  -5  -5 8800.71 705.970  -2
  -5   0  -5 8800.71 705.970   1
   5   5   1 5104.32 664.053  -3
   0  -5  -4 5104.32 664.053  -2
  -5   0  -4 5104.32 664.053   1
   5   5   2 209090. 2373.36  -3
   0  -5  -3 209090. 2373.36  -2
  -5   0  -3 209090. 2373.36   1
   5   5   3 387.021 452.370  -3
   0  -5  -2 387.021 452.370  -2
  -5   0  -2 387.021 452.370   1
   5   5   5 4367.74 1196.45  -3
   0  -5   0 4367.74 1196.45  -2
  -5   0   0 4367.74 1196.45   1
   6   5  -3 51755.7 3244.12  -3
  -1  -6  -9 51755.7 3244.12  -2
  -5   1  -8 51755.7 3244.12   1
   6   5  -2 3173.78 1468.15  -3
  -1  -6  -8 3173.78 1468.15  -2
  -5   1  -7 3173.78 1468.15   1
   6   5  -1 83261.5 3265.50  -3
  -1  -6  -7 83261.5 3265.50  -2
  -5   1  -6 83261.5 3265.50   1
  -1  -6  -6 1594.57 380.877  -2
  -5   1  -5 1594.57 380.877   1
   6   5   1 21621.9 863.217  -3
  -1  -6  -5 21621.9 863.217  -2
  -5   1  -4 21621.9 863.217   1
   6   5   2 755.110 765.816  -3
  -1  -6  -4 755.110 765.816  -2
  -5   1  -3 755.110 765.816   1
   6   5   3 169070. 2064.86  -3
  -1  -6  -3 169070. 2064.86  -2
  -5   1  -2 169070. 2064.86   1
   7   5  -2 11301.2 2061.81  -3
  -2  -7  -9 11301.2 2061.81  -2
  -5   2  -7 11301.2 2061.81   1
   7   5   2 103271. 1470.75  -3
  -2  -7  -5 103271. 1470.75  -2
  -5   2  -3 103271. 1470.75   1
   7   5   3 1980.22 596.224  -3
  -2  -7  -4 1980.22 596.224  -2
  -5   2  -2 1980.22 596.224   1
  -6   4  -3 2516.90 2056.33  -3
  10   6   3 2516.90 2056.33  -2
  -4 -10  -7 2516.90 2056.33   1
  -6   4  -2 19103.9 1730.07  -3
  10   6   4 19103.9 1730.07  -2
  -4 -10  -6 19103.9 1730.07   1
  -6   4  -1 1443.21 1392.08  -3
  10   6   5 1443.21 1392.08  -2
  -4 -10  -5 1443.21 1392.08   1
  -6   4   0 62666.2 2376.92  -3
  10   6   6 62666.2 2376.92  -2
  -4 -10  -4 62666.2 2376.92   1
  -6   4   1 3039.55 2016.22  -3
  10   6   7 3039.55 2016.22  -2
  -4 -10  -3 3039.55 2016.22   1
  -6   4   2 11706.8 1794.60  -3
  -4 -10  -2 11706.8 1794.60   1
  -5   4  -4 2443.68 1992.94  -3
   9   5   1 2443.68 1992.94  -2
  -4  -9  -8 2443.68 1992.94   1
  -5   4  -3 14324.4 1596.13  -3
   9   5   2 14324.4 1596.13  -2
  -4  -9  -7 14324.4 1596.13   1
  -5   4  -2 3303.92 1300.15  -3
   9   5   3 3303.92 1300.15  -2
  -4  -9  -6 3303.92 1300.15   1
  -5   4  -1 86908.1 2598.81  -3
   9   5   4 86908.1 2598.81  -2
  -4  -9  -5 86908.1 2598.81   1
  -5   4   0 7012.63 1380.45  -3
   9   5   5 7012.63 1380.45  -2
  -4  -9  -4 7012.63 1380.45   1
  -5   4   1 72860.0 2388.09  -3
   9   5   6 72860.0 2388.09  -2
  -4  -9  -3 72860.0 2388.09   1
  -5   4   2 2179.07 1158.67  -3
   9   5   7 2179.07 1158.67  -2
  -4  -9  -2 2179.07 1158.67   1
  -5   4   3 7541.47 1310.17  -3
   9   5   8 7541.47 1310.17  -2
  -4  -9  -1 7541.47 1310.17   1
  -4   4  -5 393.488 1815.92  -3
   8   4  -1 393.488 1815.92  -2
  -4  -8  -9 393.488 1815.92   1
  -4   4  -4 23115.2 2420.76  -3
   8   4   0 23115.2 2420.76  -2
  -4  -8  -8 23115.2 2420.76   1
  -4   4  -3 3181.18 1763.30  -3
   8   4   1 3181.18 1763.30  -2
  -4  -8  -7 3181.18 1763.30   1
  -4   4  -2 67952.4 2268.89  -3
   8   4   2 67952.4 2268.89  -2
  -4  -8  -6 67952.4 2268.89   1
  -4   4  -1 7665.73 1244.50  -3
   8   4   3 7665.73 1244.50  -2
  -4  -8  -5 7665.73 1244.50   1
  -4   4   0 112866. 2679.15  -3
   8   4   4 112866. 2679.15  -2
  -4  -8  -4 112866. 2679.15   1
  -4   4   1 8802.26 1192.06  -3
   8   4   5 8802.26 1192.06  -2
  -4  -8  -3 8802.26 1192.06   1
  -4   4   2 66515.4 2019.03  -3
   8   4   6 66515.4 2019.03  -2
  -4  -8  -2 66515.4 2019.03   1
  -4   4   3 1691.79 946.887  -3
   8   4   7 1691.79 946.887  -2
  -4  -8  -1 1691.79 946.887   1
  -4   4   4 17678.7 1288.73  -3
   8   4   8 17678.7 1288.73  -2
  -4  -8   0 17678.7 1288.73   1
  -4   4   5 2327.06 1838.04  -3
   8   4   9 2327.06 1838.04  -2
  -4  -8   1 2327.06 1838.04   1
  -3   4  -6 3751.95 1801.66  -3
   7   3  -3 3751.95 1801.66  -2
  -4  -7 -10 3751.95 1801.66   1
  -3   4  -5 51474.4 2993.77  -3
   7   3  -2 51474.4 2993.77  -2
  -4  -7  -9 51474.4 2993.77   1
  -3   4  -4 20273.0 2304.20  -3
   7   3  -1 20273.0 2304.20  -2
  -4  -7  -8 20273.0 2304.20   1
  -3   4  -3 140822. 4105.11  -3
   7   3   0 140822. 4105.11  -2
  -4  -7  -7 140822. 4105.11   1
  -3   4  -2 16694.7 1875.07  -3
   7   3   1 16694.7 1875.07  -2
  -4  -7  -6 16694.7 1875.07   1
  -3   4  -1 58640.0 1996.88  -3
   7   3   2 58640.0 1996.88  -2
  -4  -7  -5 58640.0 1996.88   1
  -3   4   0 2175.91 892.211  -3
   7   3   3 2175.91 892.211  -2
  -4  -7  -4 2175.91 892.211   1
  -3   4   1 53213.4 1788.47  -3
   7   3   4 53213.4 1788.47  -2
  -4  -7  -3 53213.4 1788.47   1
  -3   4   2 3246.40 948.068  -3
   7   3   5 3246.40 948.068  -2
  -4  -7  -2 3246.40 948.068   1
  -3   4   3 99742.0 2342.18  -3
   7   3   6 99742.0 2342.18  -2
  -4  -7  -1 99742.0 2342.18   1
  -3   4   4 905.523 913.674  -3
   7   3   7 905.523 913.674  -2
  -4  -7   0 905.523 913.674   1
  -3   4   5 37216.5 1584.68  -3
   7   3   8 37216.5 1584.68  -2
  -4  -7   1 37216.5 1584.68   1
  -3   4   6 5284.04 1080.84  -3
   7   3   9 5284.04 1080.84  -2
  -4  -7   2 5284.04 1080.84   1
  -3   4   7 29113.2 2635.12  -3
   7   3  10 29113.2 2635.12  -2
  -4  -7   3 29113.2 2635.12   1
  -2   4  -7 2925.11 1741.64  -3
   6   2  -5 2925.11 1741.64  -2
  -4  -6 -11 2925.11 1741.64   1
  -2   4  -6 35407.0 2637.64  -3
   6   2  -4 35407.0 2637.64  -2
  -4  -6 -10 35407.0 2637.64   1
  -2   4  -5 880.923 1624.35  -3
   6   2  -3 880.923 1624.35  -2
  -4  -6  -9 880.923 1624.35   1
  -2   4  -4 99162.5 3639.26  -3
   6   2  -2 99162.5 3639.26  -2
  -4  -6  -8 99162.5 3639.26   1
  -2   4  -3 4968.65 1500.56  -3
   6   2  -1 4968.65 1500.56  -2
  -4  -6  -7 4968.65 1500.56   1
  -2   4  -2 84671.9 3240.56  -3
   6   2   0 84671.9 3240.56  -2
  -4  -6  -6 84671.9 3240.56   1
  -2   4  -1 6551.44 1295.17  -3
   6   2   1 6551.44 1295.17  -2
  -4  -6  -5 6551.44 1295.17   1
  -2   4   0 36997.5 1437.66  -3
   6   2   2 36997.5 1437.66  -2
  -4  -6  -4 36997.5 1437.66   1
  -2   4   1 5563.96 955.012  -3
   6   2   3 5563.96 955.012  -2
  -4  -6  -3 5563.96 955.012   1
  -2   4   2 164388. 2902.02  -3
   6   2   4 164388. 2902.02  -2
  -4  -6  -2 164388. 2902.02   1
  -2   4   3 29700.4 1406.78  -3
   6   2   5 29700.4 1406.78  -2
  -4  -6  -1 29700.4 1406.78   1
  -2   4   4 114814. 2337.49  -3
   6   2   6 114814. 2337.49  -2
  -4  -6   0 114814. 2337.49   1
  -2   4   5 15205.4 1158.33  -3
   6   2   7 15205.4 1158.33  -2
  -4  -6   1 15205.4 1158.33   1
  -2   4   6 55736.5 1836.33  -3
   6   2   8 55736.5 1836.33  -2
  -4  -6   2 55736.5 1836.33   1
  -2   4   7 340.506 967.199  -3
   6   2   9 340.506 967.199  -2
  -4  -6   3 340.506 967.199   1
  -2   4   8 30176.9 2751.73  -3
   6   2  10 30176.9 2751.73  -2
  -4  -6   4 30176.9 2751.73   1
  -1   4  -7 15584.3 1951.34  -3
   5   1  -6 15584.3 1951.34  -2
  -4  -5 -11 15584.3 1951.34   1
  -1   4  -6 674.172 1360.90  -3
   5   1  -5 674.172 1360.90  -2
  -4  -5 -10 674.172 1360.90   1
  -1   4  -5 96115.0 3422.28  -3
   5   1  -4 96115.0 3422.28  -2
  -4  -5  -9 96115.0 3422.28   1
  -1   4  -4 3288.01 1544.71  -3
   5   1  -3 3288.01 1544.71  -2
  -4  -5  -8 3288.01 1544.71   1
  -1   4  -3 29826.9 2089.21  -3
   5   1  -2 29826.9 2089.21  -2
  -4  -5  -7 29826.9 2089.21   1
  -1   4  -2 18714.5 1687.60  -3
   5   1  -1 18714.5 1687.60  -2
  -4  -5  -6 18714.5 1687.60   1
  -1   4  -1 76568.5 2497.38  -3
   5   1   0 76568.5 2497.38  -2
  -4  -5  -5 76568.5 2497.38   1
  -1   4   0 27380.4 1646.77  -3
   5   1   1 27380.4 1646.77  -2
  -4  -5  -4 27380.4 1646.77   1
  -1   4   1 406098. 3908.16  -3
   5   1   2 406098. 3908.16  -2
  -4  -5  -3 406098. 3908.16   1
  -1   4   2 14588.1 1043.22  -3
   5   1   3 14588.1 1043.22  -2
  -4  -5  -2 14588.1 1043.22   1
  -1   4   3 140034. 2402.59  -3
   5   1   4 140034. 2402.59  -2
  -4  -5  -1 140034. 2402.59   1
  -1   4   4 2456.14 809.557  -3
   5   1   5 2456.14 809.557  -2
  -4  -5   0 2456.14 809.557   1
  -1   4   5 18779.6 1145.36  -3
   5   1   6 18779.6 1145.36  -2
  -4  -5   1 18779.6 1145.36   1
  -1   4   6 858.322 816.500  -3
   5   1   7 858.322 816.500  -2
  -4  -5   2 858.322 816.500   1
  -1   4   7 101485. 2325.54  -3
   5   1   8 101485. 2325.54  -2
  -4  -5   3 101485. 2325.54   1
  -1   4   8 3365.03 1064.75  -3
   5   1   9 3365.03 1064.75  -2
  -4  -5   4 3365.03 1064.75   1
  -1   4   9 26856.1 2870.81  -3
   5   1  10 26856.1 2870.81  -2
  -4  -5   5 26856.1 2870.81   1
   0   4  -7 43.1844 1344.81  -3
   4   0  -7 43.1844 1344.81  -2
  -4  -4 -11 43.1844 1344.81   1
   0   4  -6 48965.9 2639.49  -3
   4   0  -6 48965.9 2639.49  -2
  -4  -4 -10 48965.9 2639.49   1
   0   4  -5 3715.49 1290.24  -3
   4   0  -5 3715.49 1290.24  -2
  -4  -4  -9 3715.49 1290.24   1
   0   4  -4 185035. 2915.31  -3
   4   0  -4 185035. 2915.31  -2
  -4  -4  -8 185035. 2915.31   1
   0   4  -3 3717.97 825.451  -3
   4   0  -3 3717.97 825.451  -2
  -4  -4  -7 3717.97 825.451   1
   0   4  -2 9872.14 844.087  -3
   4   0  -2 9872.14 844.087  -2
  -4  -4  -6 9872.14 844.087   1
   0   4  -1-85.7887 831.015  -3
   4   0  -1-85.7887 831.015  -2
  -4  -4  -5-85.7887 831.015   1
   0   4   0 332144. 4627.00  -3
   4   0   0 332144. 4627.00  -2
  -4  -4  -4 332144. 4627.00   1
   0   4   1 49.6469 800.615  -3
   4   0   1 49.6469 800.615  -2
  -4  -4  -3 49.6469 800.615   1
   0   4   2 167559. 2718.43  -3
   4   0   2 167559. 2718.43  -2
  -4  -4  -2 167559. 2718.43   1
   0   4   3 1606.72 701.862  -3
   4   0   3 1606.72 701.862  -2
  -4  -4  -1 1606.72 701.862   1
   0   4   4 15274.6 980.896  -3
   4   0   4 15274.6 980.896  -2
  -4  -4   0 15274.6 980.896   1
   0   4   5 2923.40 1093.86  -3
   4   0   5 2923.40 1093.86  -2
  -4  -4   1 2923.40 1093.86   1
   0   4   6 47781.7 2206.10  -3
   4   0   6 47781.7 2206.10  -2
  -4  -4   2 47781.7 2206.10   1
   0   4   7 632.544 1246.65  -3
   4   0   7 632.544 1246.65  -2
  -4  -4   3 632.544 1246.65   1
   0   4   8 170230. 4669.20  -3
   4   0   8 170230. 4669.20  -2
  -4  -4   4 170230. 4669.20   1
   0   4   9 2859.33 1907.83  -3
   4   0   9 2859.33 1907.83  -2
  -4  -4   5 2859.33 1907.83   1
   0   4  10 19176.9 2633.28  -3
   4   0  10 19176.9 2633.28  -2
  -4  -4   6 19176.9 2633.28   1
   1   4  -7 52595.4 3675.66  -3
   3  -1  -8 52595.4 3675.66  -2
  -4  -3 -11 52595.4 3675.66   1
   1   4  -6 6595.12 1099.26  -3
   3  -1  -7 6595.12 1099.26  -2
  -4  -3 -10 6595.12 1099.26   1
   1   4  -5 73145.7 2124.73  -3
   3  -1  -6 73145.7 2124.73  -2
  -4  -3  -9 73145.7 2124.73   1
   1   4  -4 12422.8 1124.45  -3
   3  -1  -5 12422.8 1124.45  -2
  -4  -3  -8 12422.8 1124.45   1
   1   4  -3 109868. 1851.79  -3
   3  -1  -4 109868. 1851.79  -2
  -4  -3  -7 109868. 1851.79   1
   1   4  -2 4990.17 659.404  -3
   3  -1  -3 4990.17 659.404  -2
  -4  -3  -6 4990.17 659.404   1
   1   4  -1 58895.2 1052.61  -3
   3  -1  -2 58895.2 1052.61  -2
  -4  -3  -5 58895.2 1052.61   1
   1   4   0 9065.62 629.969  -3
   3  -1  -1 9065.62 629.969  -2
  -4  -3  -4 9065.62 629.969   1
   1   4   1 251598. 4027.60  -3
   3  -1   0 251598. 4027.60  -2
  -4  -3  -3 251598. 4027.60   1
   1   4   2 6770.22 1139.50  -3
   3  -1   1 6770.22 1139.50  -2
  -4  -3  -2 6770.22 1139.50   1
   1   4   3 129404. 2603.65  -3
   3  -1   2 129404. 2603.65  -2
  -4  -3  -1 129404. 2603.65   1
   1   4   4 20580.5 1232.49  -3
   3  -1   3 20580.5 1232.49  -2
  -4  -3   0 20580.5 1232.49   1
   1   4   5 199456. 3535.65  -3
   3  -1   4 199456. 3535.65  -2
  -4  -3   1 199456. 3535.65   1
   1   4   6 23410.2 1514.27  -3
   3  -1   5 23410.2 1514.27  -2
  -4  -3   2 23410.2 1514.27   1
   1   4   7 87295.8 2976.64  -3
   3  -1   6 87295.8 2976.64  -2
  -4  -3   3 87295.8 2976.64   1
   1   4   8 9084.00 1628.65  -3
   3  -1   7 9084.00 1628.65  -2
  -4  -3   4 9084.00 1628.65   1
   1   4   9 62860.8 3272.48  -3
   3  -1   8 62860.8 3272.48  -2
  -4  -3   5 62860.8 3272.48   1
   1   4  10 445.460 1707.83  -3
   3  -1   9 445.460 1707.83  -2
  -4  -3   6 445.460 1707.83   1
   1   4  11 10041.3 2247.47  -3
   3  -1  10 10041.3 2247.47  -2
  -4  -3   7 10041.3 2247.47   1
   2   4  -6 56266.5 3599.88  -3
   2  -2  -8 56266.5 3599.88  -2
  -4  -2 -10 56266.5 3599.88   1
   2   4  -5 5453.85 958.037  -3
   2  -2  -7 5453.85 958.037  -2
  -4  -2  -9 5453.85 958.037   1
   2   4  -4 9880.64 959.230  -3
   2  -2  -6 9880.64 959.230  -2
  -4  -2  -8 9880.64 959.230   1
   2   4  -3 24154.3 1283.30  -3
   2  -2  -5 24154.3 1283.30  -2
  -4  -2  -7 24154.3 1283.30   1
   2   4  -2 240081. 2606.72  -3
   2  -2  -4 240081. 2606.72  -2
  -4  -2  -6 240081. 2606.72   1
   2   4  -1 3180.91 453.654  -3
   2  -2  -3 3180.91 453.654  -2
  -4  -2  -5 3180.91 453.654   1
   2   4   0 177030. 1700.09  -3
   2  -2  -2 177030. 1700.09  -2
  -4  -2  -4 177030. 1700.09   1
   2   4   1 44455.1 1013.40  -3
   2  -2  -1 44455.1 1013.40  -2
  -4  -2  -3 44455.1 1013.40   1
   2   4   2 223192. 2407.42  -3
   2  -2   0 223192. 2407.42  -2
  -4  -2  -2 223192. 2407.42   1
   2   4   3 42157.1 1310.16  -3
   2  -2   1 42157.1 1310.16  -2
  -4  -2  -1 42157.1 1310.16   1
   2   4   4 174099. 2579.75  -3
   2  -2   2 174099. 2579.75  -2
  -4  -2   0 174099. 2579.75   1
   2   4   5 3529.40 740.876  -3
   2  -2   3 3529.40 740.876  -2
  -4  -2   1 3529.40 740.876   1
   2   4   6 214634. 3543.97  -3
   2  -2   4 214634. 3543.97  -2
  -4  -2   2 214634. 3543.97   1
   2   4   7 23439.8 1659.48  -3
   2  -2   5 23439.8 1659.48  -2
  -4  -2   3 23439.8 1659.48   1
   2   4   8 11270.8 1569.71  -3
   2  -2   6 11270.8 1569.71  -2
  -4  -2   4 11270.8 1569.71   1
   2   4   9 7425.92 1579.38  -3
   2  -2   7 7425.92 1579.38  -2
  -4  -2   5 7425.92 1579.38   1
   2   4  10 49270.7 2961.20  -3
   2  -2   8 49270.7 2961.20  -2
  -4  -2   6 49270.7 2961.20   1
   2   4  11-27.1509 1660.51  -3
   2  -2   9-27.1509 1660.51  -2
  -4  -2   7-27.1509 1660.51   1
   3   4  -6 1576.34 1824.38  -3
   1  -3  -9 1576.34 1824.38  -2
  -4  -1 -10 1576.34 1824.38   1
   3   4  -5 61934.1 3477.46  -3
   1  -3  -8 61934.1 3477.46  -2
  -4  -1  -9 61934.1 3477.46   1
   3   4  -4 7217.18 777.332  -3
   1  -3  -7 7217.18 777.332  -2
  -4  -1  -8 7217.18 777.332   1
   3   4  -3 83683.1 1790.05  -3
   1  -3  -6 83683.1 1790.05  -2
  -4  -1  -7 83683.1 1790.05   1
   3   4  -2 25419.8 1055.50  -3
   1  -3  -5 25419.8 1055.50  -2
  -4  -1  -6 25419.8 1055.50   1
   3   4  -1 201450. 1822.47  -3
   1  -3  -4 201450. 1822.47  -2
  -4  -1  -5 201450. 1822.47   1
   3   4   0 19434.4 644.955  -3
   1  -3  -3 19434.4 644.955  -2
  -4  -1  -4 19434.4 644.955   1
   3   4   1 129138. 1349.84  -3
   1  -3  -2 129138. 1349.84  -2
  -4  -1  -3 129138. 1349.84   1
   3   4   2 6396.08 465.618  -3
   1  -3  -1 6396.08 465.618  -2
  -4  -1  -2 6396.08 465.618   1
   3   4   3 229695. 2168.61  -3
   1  -3   0 229695. 2168.61  -2
  -4  -1  -1 229695. 2168.61   1
   3   4   4 8085.49 373.033  -3
   1  -3   1 8085.49 373.033  -2
  -4  -1   0 8085.49 373.033   1
   3   4   5 60221.6 1360.60  -3
   1  -3   2 60221.6 1360.60  -2
  -4  -1   1 60221.6 1360.60   1
   3   4   6 4465.28 765.944  -3
   1  -3   3 4465.28 765.944  -2
  -4  -1   2 4465.28 765.944   1
   3   4   7 111985. 2652.52  -3
   1  -3   4 111985. 2652.52  -2
  -4  -1   3 111985. 2652.52   1
   3   4   8 11976.2 1287.33  -3
   1  -3   5 11976.2 1287.33  -2
  -4  -1   4 11976.2 1287.33   1
   3   4   9 71816.3 2678.97  -3
   1  -3   6 71816.3 2678.97  -2
  -4  -1   5 71816.3 2678.97   1
   3   4  10 4791.24 1413.90  -3
   1  -3   7 4791.24 1413.90  -2
  -4  -1   6 4791.24 1413.90   1
   4   4  -5 3429.57 1870.63  -3
   0  -4  -9 3429.57 1870.63  -2
  -4   0  -9 3429.57 1870.63   1
   4   4  -4 154492. 4353.73  -3
   0  -4  -8 154492. 4353.73  -2
  -4   0  -8 154492. 4353.73   1
   4   4  -3 27.8394 326.115  -3
   0  -4  -7 27.8394 326.115  -2
  -4   0  -7 27.8394 326.115   1
   4   4  -2 44704.0 1012.64  -3
   0  -4  -6 44704.0 1012.64  -2
  -4   0  -6 44704.0 1012.64   1
   4   4  -1 3362.02 463.489  -3
   0  -4  -5 3362.02 463.489  -2
  -4   0  -5 3362.02 463.489   1
   4   4   0 20992.0 722.220  -3
   0  -4  -4 20992.0 722.220  -2
  -4   0  -4 20992.0 722.220   1
   4   4   1 2362.79 516.347  -3
   0  -4  -3 2362.79 516.347  -2
  -4   0  -3 2362.79 516.347   1
   4   4   2 313894. 2103.20  -3
   0  -4  -2 313894. 2103.20  -2
  -4   0  -2 313894. 2103.20   1
   4   4   3 3048.26 281.798  -3
   0  -4  -1 3048.26 281.798  -2
  -4   0  -1 3048.26 281.798   1
   4   4   4 341962. 4382.91  -3
   0  -4   0 341962. 4382.91  -2
  -4   0   0 341962. 4382.91   1
   4   4   6 9566.60 450.029  -3
   0  -4   2 9566.60 450.029  -2
  -4   0   2 9566.60 450.029   1
   4   4   7 3371.43 531.497  -3
   0  -4   3 3371.43 531.497  -2
  -4   0   3 3371.43 531.497   1
   4   4   8 174584. 2258.38  -3
   0  -4   4 174584. 2258.38  -2
  -4   0   4 174584. 2258.38   1
   4   4   9 2829.19 793.765  -3
   0  -4   5 2829.19 793.765  -2
  -4   0   5 2829.19 793.765   1
   4   4  10 61332.0 1875.15  -3
   0  -4   6 61332.0 1875.15  -2
  -4   0   6 61332.0 1875.15   1
   5   4  -5 27405.6 2860.19  -3
  -1  -5 -10 27405.6 2860.19  -2
  -4   1  -9 27405.6 2860.19   1
   5   4  -4 4065.55 1836.56  -3
  -1  -5  -9 4065.55 1836.56  -2
  -4   1  -8 4065.55 1836.56   1
   5   4  -3 104175. 3789.76  -3
  -1  -5  -8 104175. 3789.76  -2
  -4   1  -7 104175. 3789.76   1
   5   4  -2 1563.03 1227.89  -3
  -1  -5  -7 1563.03 1227.89  -2
  -4   1  -6 1563.03 1227.89   1
   5   4   0 2345.07 432.480  -3
  -1  -5  -5 2345.07 432.480  -2
  -4   1  -4 2345.07 432.480   1
   5   4   1 119805. 2279.54  -3
  -1  -5  -4 119805. 2279.54  -2
  -4   1  -3 119805. 2279.54   1
   5   4   2 12220.2 717.385  -3
  -1  -5  -3 12220.2 717.385  -2
  -4   1  -2 12220.2 717.385   1
  -1  -5  -2 260532. 2077.95  -2
  -4   1  -1 260532. 2077.95   1
   5   4   3 389097. 5237.11  -3
  -1  -5  -2 389097. 5237.11  -2
  -4   1  -1 389097. 5237.11   1
   5   4   4 28188.6 1617.96  -3
  -1  -5  -1 28188.6 1617.96  -2
  -4   1   0 28188.6 1617.96   1
   5   4   5 93337.1 2446.12  -3
  -1  -5   0 93337.1 2446.12  -2
  -4   1   1 93337.1 2446.12   1
   5   4   8 2829.22 652.836  -3
  -1  -5   3 2829.22 652.836  -2
  -4   1   4 2829.22 652.836   1
   6   4  -4 32234.5 2711.03  -3
  -2  -6 -10 32234.5 2711.03  -2
  -4   2  -8 32234.5 2711.03   1
   6   4  -3 694.216 1561.18  -3
  -2  -6  -9 694.216 1561.18  -2
  -4   2  -7 694.216 1561.18   1
   6   4   1 25161.0 761.993  -3
  -2  -6  -5 25161.0 761.993  -2
  -4   2  -3 25161.0 761.993   1
   6   4   2 145515. 1637.50  -3
  -2  -6  -4 145515. 1637.50  -2
  -4   2  -2 145515. 1637.50   1
   6   4   3 5644.14 547.836  -3
  -2  -6  -3 5644.14 547.836  -2
  -4   2  -1 5644.14 547.836   1
   6   4   4 39037.7 1223.94  -3
  -2  -6  -2 39037.7 1223.94  -2
  -4   2   0 39037.7 1223.94   1
   6   4   5 6843.65 1107.45  -3
  -2  -6  -1 6843.65 1107.45  -2
  -4   2   1 6843.65 1107.45   1
   7   4   2 3032.84 610.288  -3
  -3  -7  -5 3032.84 610.288  -2
  -4   3  -2 3032.84 610.288   1
   7   4   3 54796.6 1115.65  -3
  -3  -7  -4 54796.6 1115.65  -2
  -4   3  -1 54796.6 1115.65   1
   7   4   5 49021.0 1905.25  -3
  -3  -7  -2 49021.0 1905.25  -2
  -4   3   1 49021.0 1905.25   1
   7   4   6 13882.8 1259.26  -3
  -3  -7  -1 13882.8 1259.26  -2
  -4   3   2 13882.8 1259.26   1
  -7   3  -4 24771.5 2706.73  -3
  10   7   3 24771.5 2706.73  -2
  -3 -10  -7 24771.5 2706.73   1
  -7   3  -3 6639.55 1489.50  -3
  10   7   4 6639.55 1489.50  -2
  -3 -10  -6 6639.55 1489.50   1
  -7   3  -2 24753.8 1834.86  -3
  10   7   5 24753.8 1834.86  -2
  -3 -10  -5 24753.8 1834.86   1
  -7   3  -1 1392.05 1290.32  -3
  10   7   6 1392.05 1290.32  -2
  -3 -10  -4 1392.05 1290.32   1
  -7   3   0 20246.9 1655.62  -3
  10   7   7 20246.9 1655.62  -2
  -3 -10  -3 20246.9 1655.62   1
  -6   3  -5 29303.0 3016.65  -3
   9   6   1 29303.0 3016.65  -2
  -3  -9  -8 29303.0 3016.65   1
  -6   3  -4 3490.15 1402.24  -3
   9   6   2 3490.15 1402.24  -2
  -3  -9  -7 3490.15 1402.24   1
  -6   3  -3 52604.5 2150.95  -3
   9   6   3 52604.5 2150.95  -2
  -3  -9  -6 52604.5 2150.95   1
  -6   3  -2 2743.74 1304.56  -3
   9   6   4 2743.74 1304.56  -2
  -3  -9  -5 2743.74 1304.56   1
  -6   3  -1 56649.8 2164.28  -3
   9   6   5 56649.8 2164.28  -2
  -3  -9  -4 56649.8 2164.28   1
  -6   3   0 1508.85 1203.04  -3
   9   6   6 1508.85 1203.04  -2
  -3  -9  -3 1508.85 1203.04   1
  -6   3   1 40601.8 1846.50  -3
   9   6   7 40601.8 1846.50  -2
  -3  -9  -2 40601.8 1846.50   1
  -6   3   2 2566.44 1765.00  -3
   9   6   8 2566.44 1765.00  -2
  -3  -9  -1 2566.44 1765.00   1
  -5   3  -6 17610.0 2332.40  -3
   8   5  -1 17610.0 2332.40  -2
  -3  -8  -9 17610.0 2332.40   1
  -5   3  -5 4705.41 1785.48  -3
   8   5   0 4705.41 1785.48  -2
  -3  -8  -8 4705.41 1785.48   1
  -5   3  -4 75199.9 3273.93  -3
   8   5   1 75199.9 3273.93  -2
  -3  -8  -7 75199.9 3273.93   1
  -5   3  -3 13106.2 1475.80  -3
   8   5   2 13106.2 1475.80  -2
  -3  -8  -6 13106.2 1475.80   1
  -5   3  -2 69401.2 2228.86  -3
   8   5   3 69401.2 2228.86  -2
  -3  -8  -5 69401.2 2228.86   1
  -5   3  -1 4444.07 1118.20  -3
   8   5   4 4444.07 1118.20  -2
  -3  -8  -4 4444.07 1118.20   1
  -5   3   0 65583.2 2008.98  -3
   8   5   5 65583.2 2008.98  -2
  -3  -8  -3 65583.2 2008.98   1
  -5   3   1 531.115 1065.24  -3
   8   5   6 531.115 1065.24  -2
  -3  -8  -2 531.115 1065.24   1
  -5   3   2 22631.6 1405.15  -3
   8   5   7 22631.6 1405.15  -2
  -3  -8  -1 22631.6 1405.15   1
  -5   3   3 2816.45 964.262  -3
   8   5   8 2816.45 964.262  -2
  -3  -8   0 2816.45 964.262   1
  -5   3   4 68080.9 3245.71  -3
   8   5   9 68080.9 3245.71  -2
  -3  -8   1 68080.9 3245.71   1
  -4   3  -7 24698.6 2388.05  -3
   7   4  -3 24698.6 2388.05  -2
  -3  -7 -10 24698.6 2388.05   1
  -4   3  -6 5429.97 1817.72  -3
   7   4  -2 5429.97 1817.72  -2
  -3  -7  -9 5429.97 1817.72   1
  -4   3  -5 37049.4 2525.69  -3
   7   4  -1 37049.4 2525.69  -2
  -3  -7  -8 37049.4 2525.69   1
  -4   3  -4 1415.87 1628.32  -3
   7   4   0 1415.87 1628.32  -2
  -3  -7  -7 1415.87 1628.32   1
  -4   3  -3 107610. 3620.07  -3
   7   4   1 107610. 3620.07  -2
  -3  -7  -6 107610. 3620.07   1
  -4   3  -2 4198.70 1054.93  -3
   7   4   2 4198.70 1054.93  -2
  -3  -7  -5 4198.70 1054.93   1
  -4   3  -1 54211.7 1769.59  -3
   7   4   3 54211.7 1769.59  -2
  -3  -7  -4 54211.7 1769.59   1
  -4   3   0 2013.33 932.357  -3
   7   4   4 2013.33 932.357  -2
  -3  -7  -3 2013.33 932.357   1
  -4   3   1 51680.6 1680.56  -3
   7   4   5 51680.6 1680.56  -2
  -3  -7  -2 51680.6 1680.56   1
  -4   3   2 14929.5 1077.95  -3
   7   4   6 14929.5 1077.95  -2
  -3  -7  -1 14929.5 1077.95   1
  -4   3   3 119850. 2274.41  -3
   7   4   7 119850. 2274.41  -2
  -3  -7   0 119850. 2274.41   1
  -4   3   4 15430.3 1116.15  -3
   7   4   8 15430.3 1116.15  -2
  -3  -7   1 15430.3 1116.15   1
  -4   3   5 45765.2 2792.11  -3
   7   4   9 45765.2 2792.11  -2
  -3  -7   2 45765.2 2792.11   1
  -4   3   6 3585.52 1855.74  -3
   7   4  10 3585.52 1855.74  -2
  -3  -7   3 3585.52 1855.74   1
  -3   3  -7 7911.40 1822.74  -3
   6   3  -4 7911.40 1822.74  -2
  -3  -6 -10 7911.40 1822.74   1
  -3   3  -6 26878.0 2264.97  -3
   6   3  -3 26878.0 2264.97  -2
  -3  -6  -9 26878.0 2264.97   1
  -3   3  -5 37878.2 2475.40  -3
   6   3  -2 37878.2 2475.40  -2
  -3  -6  -8 37878.2 2475.40   1
  -3   3  -4 84016.8 3301.84  -3
   6   3  -1 84016.8 3301.84  -2
  -3  -6  -7 84016.8 3301.84   1
  -3   3  -3 11414.6 1740.05  -3
   6   3   0 11414.6 1740.05  -2
  -3  -6  -6 11414.6 1740.05   1
  -3   3  -2 221259. 4474.17  -3
   6   3   1 221259. 4474.17  -2
  -3  -6  -5 221259. 4474.17   1
  -3   3  -1 31482.3 1469.67  -3
   6   3   2 31482.3 1469.67  -2
  -3  -6  -4 31482.3 1469.67   1
  -3   3   0 26158.1 1154.14  -3
   6   3   3 26158.1 1154.14  -2
  -3  -6  -3 26158.1 1154.14   1
  -3   3   1 30191.5 1300.69  -3
   6   3   4 30191.5 1300.69  -2
  -3  -6  -2 30191.5 1300.69   1
  -3   3   2 214467. 3078.51  -3
   6   3   5 214467. 3078.51  -2
  -3  -6  -1 214467. 3078.51   1
  -3   3   3 10649.6 984.648  -3
   6   3   6 10649.6 984.648  -2
  -3  -6   0 10649.6 984.648   1
  -3   3   4 78542.5 1895.38  -3
   6   3   7 78542.5 1895.38  -2
  -3  -6   1 78542.5 1895.38   1
  -3   3   5 39088.5 1467.74  -3
   6   3   8 39088.5 1467.74  -2
  -3  -6   2 39088.5 1467.74   1
  -3   3   6 29007.1 1414.47  -3
   6   3   9 29007.1 1414.47  -2
  -3  -6   3 29007.1 1414.47   1
  -3   3   7 8506.45 2013.46  -3
   6   3  10 8506.45 2013.46  -2
  -3  -6   4 8506.45 2013.46   1
  -2   3  -8 182.534 1513.44  -3
   5   2  -6 182.534 1513.44  -2
  -3  -5 -11 182.534 1513.44   1
  -2   3  -7 26347.0 2229.45  -3
   5   2  -5 26347.0 2229.45  -2
  -3  -5 -10 26347.0 2229.45   1
  -2   3  -6 1547.75 1452.44  -3
   5   2  -4 1547.75 1452.44  -2
  -3  -5  -9 1547.75 1452.44   1
  -2   3  -5 81668.7 3124.21  -3
   5   2  -3 81668.7 3124.21  -2
  -3  -5  -8 81668.7 3124.21   1
  -2   3  -4 16795.7 1828.63  -3
   5   2  -2 16795.7 1828.63  -2
  -3  -5  -7 16795.7 1828.63   1
  -2   3  -3 213155. 4705.31  -3
   5   2  -1 213155. 4705.31  -2
  -3  -5  -6 213155. 4705.31   1
  -2   3  -2 11031.1 1414.45  -3
   5   2   0 11031.1 1414.45  -2
  -3  -5  -5 11031.1 1414.45   1
  -2   3  -1 116552. 2996.10  -3
   5   2   1 116552. 2996.10  -2
  -3  -5  -4 116552. 2996.10   1
  -2   3   0 2550.19 680.612  -3
   5   2   2 2550.19 680.612  -2
  -3  -5  -3 2550.19 680.612   1
  -2   3   1 74428.6 1660.76  -3
   5   2   3 74428.6 1660.76  -2
  -3  -5  -2 74428.6 1660.76   1
  -2   3   2 5537.38 810.130  -3
   5   2   4 5537.38 810.130  -2
  -3  -5  -1 5537.38 810.130   1
  -2   3   3 135061. 2340.07  -3
   5   2   5 135061. 2340.07  -2
  -3  -5   0 135061. 2340.07   1
  -2   3   4 4061.37 795.339  -3
   5   2   6 4061.37 795.339  -2
  -3  -5   1 4061.37 795.339   1
  -2   3   5 71166.9 1807.71  -3
   5   2   7 71166.9 1807.71  -2
  -3  -5   2 71166.9 1807.71   1
  -2   3   6 14294.7 1151.94  -3
   5   2   8 14294.7 1151.94  -2
  -3  -5   3 14294.7 1151.94   1
  -2   3   7 56186.7 1902.28  -3
   5   2   9 56186.7 1902.28  -2
  -3  -5   4 56186.7 1902.28   1
  -2   3   8 2885.55 1985.28  -3
   5   2  10 2885.55 1985.28  -2
  -3  -5   5 2885.55 1985.28   1
  -1   3  -8 41191.0 2774.70  -3
   4   1  -7 41191.0 2774.70  -2
  -3  -4 -11 41191.0 2774.70   1
  -1   3  -7 6269.16 1611.66  -3
   4   1  -6 6269.16 1611.66  -2
  -3  -4 -10 6269.16 1611.66   1
  -1   3  -6 61465.2 2755.25  -3
   4   1  -5 61465.2 2755.25  -2
  -3  -4  -9 61465.2 2755.25   1
  -1   3  -5 12823.4 926.328  -3
   4   1  -4 12823.4 926.328  -2
  -3  -4  -8 12823.4 926.328   1
  -1   3  -4 108085. 1959.74  -3
   4   1  -3 108085. 1959.74  -2
  -3  -4  -7 108085. 1959.74   1
  -1   3  -3 3990.87 1218.52  -3
   4   1  -2 3990.87 1218.52  -2
  -3  -4  -6 3990.87 1218.52   1
  -1   3  -2 59796.6 2327.93  -3
   4   1  -1 59796.6 2327.93  -2
  -3  -4  -5 59796.6 2327.93   1
  -1   3  -1 7431.24 1011.93  -3
   4   1   0 7431.24 1011.93  -2
  -3  -4  -4 7431.24 1011.93   1
  -1   3   0 223394. 3530.51  -3
   4   1   1 223394. 3530.51  -2
  -3  -4  -3 223394. 3530.51   1
  -1   3   1 6970.71 762.928  -3
   4   1   2 6970.71 762.928  -2
  -3  -4  -2 6970.71 762.928   1
  -1   3   2 137107. 2191.76  -3
   4   1   3 137107. 2191.76  -2
  -3  -4  -1 137107. 2191.76   1
  -1   3   3 19678.6 951.633  -3
   4   1   4 19678.6 951.633  -2
  -3  -4   0 19678.6 951.633   1
  -1   3   4 195357. 2568.96  -3
   4   1   5 195357. 2568.96  -2
  -3  -4   1 195357. 2568.96   1
  -1   3   5 24199.0 1704.99  -3
   4   1   6 24199.0 1704.99  -2
  -3  -4   2 24199.0 1704.99   1
  -1   3   6 82798.8 3042.82  -3
   4   1   7 82798.8 3042.82  -2
  -3  -4   3 82798.8 3042.82   1
  -1   3   7 9074.08 1735.16  -3
   4   1   8 9074.08 1735.16  -2
  -3  -4   4 9074.08 1735.16   1
  -1   3   8 59905.1 3427.93  -3
   4   1   9 59905.1 3427.93  -2
  -3  -4   5 59905.1 3427.93   1
  -1   3   9 2275.13 2010.90  -3
   4   1  10 2275.13 2010.90  -2
  -3  -4   6 2275.13 2010.90   1
   0   3  -7 40029.7 2415.95  -3
   3   0  -7 40029.7 2415.95  -2
  -3  -3 -10 40029.7 2415.95   1
   0   3  -6 891.976 955.246  -3
   3   0  -6 891.976 955.246  -2
  -3  -3  -9 891.976 955.246   1
   0   3  -5 36710.7 1180.74  -3
   3   0  -5 36710.7 1180.74  -2
  -3  -3  -8 36710.7 1180.74   1
   0   3  -4 1851.27 543.714  -3
   3   0  -4 1851.27 543.714  -2
  -3  -3  -7 1851.27 543.714   1
   0   3  -3 76649.9 1415.29  -3
   3   0  -3 76649.9 1415.29  -2
  -3  -3  -6 76649.9 1415.29   1
   0   3  -2 1844.44 373.381  -3
   3   0  -2 1844.44 373.381  -2
  -3  -3  -5 1844.44 373.381   1
   0   3  -1 225730. 2489.86  -3
   3   0  -1 225730. 2489.86  -2
  -3  -3  -4 225730. 2489.86   1
   0   3   0 1349.10 762.195  -3
   3   0   0 1349.10 762.195  -2
  -3  -3  -3 1349.10 762.195   1
   0   3   1 334951. 4382.32  -3
   3   0   1 334951. 4382.32  -2
  -3  -3  -2 334951. 4382.32   1
   0   3   2 6527.24 601.094  -3
   3   0   2 6527.24 601.094  -2
  -3  -3  -1 6527.24 601.094   1
   0   3   3 204171. 3121.29  -3
   3   0   3 204171. 3121.29  -2
  -3  -3   0 204171. 3121.29   1
   0   3   4 2800.38 917.446  -3
   3   0   4 2800.38 917.446  -2
  -3  -3   1 2800.38 917.446   1
   0   3   5 134419. 3132.22  -3
   3   0   5 134419. 3132.22  -2
  -3  -3   2 134419. 3132.22   1
   0   3   6-142.073 1054.52  -3
   3   0   6-142.073 1054.52  -2
  -3  -3   3-142.073 1054.52   1
   0   3   7 40315.0 2491.77  -3
   3   0   7 40315.0 2491.77  -2
  -3  -3   4 40315.0 2491.77   1
   0   3   8 459.755 1507.39  -3
   3   0   8 459.755 1507.39  -2
  -3  -3   5 459.755 1507.39   1
   0   3   9 36581.0 2982.69  -3
   3   0   9 36581.0 2982.69  -2
  -3  -3   6 36581.0 2982.69   1
   0   3  10 302.359 1634.94  -3
   3   0  10 302.359 1634.94  -2
  -3  -3   7 302.359 1634.94   1
   1   3  -8 35031.5 3234.24  -3
   2  -1  -9 35031.5 3234.24  -2
  -3  -2 -11 35031.5 3234.24   1
   1   3  -7 13610.1 2341.63  -3
   2  -1  -8 13610.1 2341.63  -2
  -3  -2 -10 13610.1 2341.63   1
   1   3  -6 37223.7 1667.71  -3
   2  -1  -7 37223.7 1667.71  -2
  -3  -2  -9 37223.7 1667.71   1
   1   3  -5 2312.74 773.370  -3
   2  -1  -6 2312.74 773.370  -2
  -3  -2  -8 2312.74 773.370   1
   1   3  -4 74277.5 1577.46  -3
   2  -1  -5 74277.5 1577.46  -2
  -3  -2  -7 74277.5 1577.46   1
   1   3  -3 39547.3 1149.35  -3
   2  -1  -4 39547.3 1149.35  -2
  -3  -2  -6 39547.3 1149.35   1
   1   3  -2 471210. 2899.55  -3
   2  -1  -3 471210. 2899.55  -2
  -3  -2  -5 471210. 2899.55   1
   1   3  -1 65633.3 998.909  -3
   2  -1  -2 65633.3 998.909  -2
  -3  -2  -4 65633.3 998.909   1
   1   3   0 223913. 1968.77  -3
   2  -1  -1 223913. 1968.77  -2
  -3  -2  -3 223913. 1968.77   1
   1   3   1 53081.0 1177.10  -3
   2  -1   0 53081.0 1177.10  -2
  -3  -2  -2 53081.0 1177.10   1
   1   3   2 20040.0 1005.66  -3
   2  -1   1 20040.0 1005.66  -2
  -3  -2  -1 20040.0 1005.66   1
   1   3   3 265603. 3118.36  -3
   2  -1   2 265603. 3118.36  -2
  -3  -2   0 265603. 3118.36   1
   1   3   4 226915. 3169.41  -3
   2  -1   3 226915. 3169.41  -2
  -3  -2   1 226915. 3169.41   1
   1   3   5 38706.6 1688.15  -3
   2  -1   4 38706.6 1688.15  -2
  -3  -2   2 38706.6 1688.15   1
   1   3   6 145111. 3578.11  -3
   2  -1   5 145111. 3578.11  -2
  -3  -2   3 145111. 3578.11   1
   1   3   7 5927.23 1348.03  -3
   2  -1   6 5927.23 1348.03  -2
  -3  -2   4 5927.23 1348.03   1
   1   3   8 43918.6 2747.77  -3
   2  -1   7 43918.6 2747.77  -2
  -3  -2   5 43918.6 2747.77   1
   1   3   9 9542.94 1847.76  -3
   2  -1   8 9542.94 1847.76  -2
  -3  -2   6 9542.94 1847.76   1
   1   3  10 64350.2 3624.61  -3
   2  -1   9 64350.2 3624.61  -2
  -3  -2   7 64350.2 3624.61   1
   1   3  11 747.090 1880.23  -3
   2  -1  10 747.090 1880.23  -2
  -3  -2   8 747.090 1880.23   1
   2   3  -7 74062.4 4193.17  -3
   1  -2  -9 74062.4 4193.17  -2
  -3  -1 -10 74062.4 4193.17   1
   2   3  -6 7343.46 1872.11  -3
   1  -2  -8 7343.46 1872.11  -2
  -3  -1  -9 7343.46 1872.11   1
   2   3  -5 35852.5 1420.14  -3
   1  -2  -7 35852.5 1420.14  -2
  -3  -1  -8 35852.5 1420.14   1
   2   3  -4 3879.82 677.525  -3
   1  -2  -6 3879.82 677.525  -2
  -3  -1  -7 3879.82 677.525   1
   2   3  -3 144794. 1979.27  -3
   1  -2  -5 144794. 1979.27  -2
  -3  -1  -6 144794. 1979.27   1
   2   3  -2 44487.1 970.072  -3
   1  -2  -4 44487.1 970.072  -2
  -3  -1  -5 44487.1 970.072   1
   2   3  -1 229464. 1823.55  -3
   1  -2  -3 229464. 1823.55  -2
  -3  -1  -4 229464. 1823.55   1
   2   3   0 273188. 1894.51  -3
   1  -2  -2 273188. 1894.51  -2
  -3  -1  -3 273188. 1894.51   1
   2   3   1 19788.0 862.159  -3
   1  -2  -1 19788.0 862.159  -2
  -3  -1  -2 19788.0 862.159   1
   2   3   2 54577.7 1089.09  -3
   1  -2   0 54577.7 1089.09  -2
  -3  -1  -1 54577.7 1089.09   1
   2   3   3 227575. 1240.93  -3
   1  -2   1 227575. 1240.93  -2
  -3  -1   0 227575. 1240.93   1
   2   3   4 62690.9 1440.22  -3
   1  -2   2 62690.9 1440.22  -2
  -3  -1   1 62690.9 1440.22   1
   2   3   5 467144. 4761.98  -3
   1  -2   3 467144. 4761.98  -2
  -3  -1   2 467144. 4761.98   1
   2   3   6 38567.6 1800.88  -3
   1  -2   4 38567.6 1800.88  -2
  -3  -1   3 38567.6 1800.88   1
   2   3   7 80561.9 2844.23  -3
   1  -2   5 80561.9 2844.23  -2
  -3  -1   4 80561.9 2844.23   1
   2   3   8 2158.28 1146.94  -3
   1  -2   6 2158.28 1146.94  -2
  -3  -1   5 2158.28 1146.94   1
   2   3   9 38126.4 2483.98  -3
   1  -2   7 38126.4 2483.98  -2
  -3  -1   6 38126.4 2483.98   1
   2   3  10 12694.1 2026.18  -3
   1  -2   8 12694.1 2026.18  -2
  -3  -1   7 12694.1 2026.18   1
   2   3  11 31018.6 2702.91  -3
   1  -2   9 31018.6 2702.91  -2
  -3  -1   8 31018.6 2702.91   1
   3   3  -7 211.575 1594.12  -3
   0  -3 -10 211.575 1594.12  -2
  -3   0 -10 211.575 1594.12   1
   3   3  -6 26713.8 2335.65  -3
   0  -3  -9 26713.8 2335.65  -2
  -3   0  -9 26713.8 2335.65   1
   3   3  -5 1562.47 1263.62  -3
   0  -3  -8 1562.47 1263.62  -2
  -3   0  -8 1562.47 1263.62   1
   3   3  -4 51913.6 2150.92  -3
   0  -3  -7 51913.6 2150.92  -2
  -3   0  -7 51913.6 2150.92   1
   3   3  -3 17.2601 361.673  -3
   0  -3  -6 17.2601 361.673  -2
  -3   0  -6 17.2601 361.673   1
   3   3  -2 141712. 1523.46  -3
   0  -3  -5 141712. 1523.46  -2
  -3   0  -5 141712. 1523.46   1
   3   3  -1 2082.62 309.118  -3
   0  -3  -4 2082.62 309.118  -2
  -3   0  -4 2082.62 309.118   1
   3   3   0 195539. 1624.41  -3
   0  -3  -3 195539. 1624.41  -2
  -3   0  -3 195539. 1624.41   1
   3   3   1 4542.18 447.036  -3
   0  -3  -2 4542.18 447.036  -2
  -3   0  -2 4542.18 447.036   1
   3   3   2 314012. 2123.35  -3
   0  -3  -1 314012. 2123.35  -2
  -3   0  -1 314012. 2123.35   1
   3   3   3-116.026 612.343  -3
   0  -3   0-116.026 612.343  -2
  -3   0   0-116.026 612.343   1
   3   3   4 348288. 2225.34  -3
   0  -3   1 348288. 2225.34  -2
  -3   0   1 348288. 2225.34   1
   3   3   5 2108.50 239.772  -3
   0  -3   2 2108.50 239.772  -2
  -3   0   2 2108.50 239.772   1
   3   3   6 81727.2 1000.36  -3
   0  -3   3 81727.2 1000.36  -2
  -3   0   3 81727.2 1000.36   1
   3   3   7 1780.36 659.553  -3
   0  -3   4 1780.36 659.553  -2
  -3   0   4 1780.36 659.553   1
   3   3   8 42884.2 1471.52  -3
   0  -3   5 42884.2 1471.52  -2
  -3   0   5 42884.2 1471.52   1
   3   3   9 206.813 1019.91  -3
   0  -3   6 206.813 1019.91  -2
  -3   0   6 206.813 1019.91   1
   3   3  10 48294.8 1931.96  -3
   0  -3   7 48294.8 1931.96  -2
  -3   0   7 48294.8 1931.96   1
   3   3  11 1981.84 1208.44  -3
   0  -3   8 1981.84 1208.44  -2
  -3   0   8 1981.84 1208.44   1
   4   3  -6 2020.39 1864.34  -3
  -1  -4 -10 2020.39 1864.34  -2
  -3   1  -9 2020.39 1864.34   1
   4   3  -5 67668.7 3593.74  -3
  -1  -4  -9 67668.7 3593.74  -2
  -3   1  -8 67668.7 3593.74   1
   4   3  -4 9255.37 1745.42  -3
  -1  -4  -8 9255.37 1745.42  -2
  -3   1  -7 9255.37 1745.42   1
   4   3  -3 90778.3 3369.54  -3
  -1  -4  -7 90778.3 3369.54  -2
  -3   1  -6 90778.3 3369.54   1
   4   3  -1 182693. 3448.40  -3
  -1  -4  -5 182693. 3448.40  -2
  -3   1  -4 182693. 3448.40   1
   4   3   0 18293.4 517.023  -3
  -1  -4  -4 18293.4 517.023  -2
  -3   1  -3 18293.4 517.023   1
   4   3   1 117941. 1682.08  -3
  -1  -4  -3 117941. 1682.08  -2
  -3   1  -2 117941. 1682.08   1
   4   3   2 6739.43 483.990  -3
  -1  -4  -2 6739.43 483.990  -2
  -3   1  -1 6739.43 483.990   1
   4   3   3 220503. 3405.35  -3
  -1  -4  -1 220503. 3405.35  -2
  -3   1   0 220503. 3405.35   1
   4   3   4 7272.46 884.310  -3
  -1  -4   0 7272.46 884.310  -2
  -3   1   1 7272.46 884.310   1
   4   3   5 59377.9 2190.95  -3
  -1  -4   1 59377.9 2190.95  -2
  -3   1   2 59377.9 2190.95   1
   4   3   7 101158. 2061.05  -3
  -1  -4   3 101158. 2061.05  -2
  -3   1   4 101158. 2061.05   1
   4   3   8 11321.5 1024.29  -3
  -1  -4   4 11321.5 1024.29  -2
  -3   1   5 11321.5 1024.29   1
   5   3  -5 4223.87 1856.92  -3
  -2  -5 -10 4223.87 1856.92  -2
  -3   2  -8 4223.87 1856.92   1
   5   3  -4 53178.8 3002.94  -3
  -2  -5  -9 53178.8 3002.94  -2
  -3   2  -7 53178.8 3002.94   1
   5   3   0 129578. 996.643  -3
  -2  -5  -5 129578. 996.643  -2
  -3   2  -3 129578. 996.643   1
  -3   2  -3 40843.1 691.157   1
   5   3   1 4943.84 430.556  -3
  -2  -5  -4 4943.84 430.556  -2
  -3   2  -2 4943.84 430.556   1
   5   3   2 73916.1 1019.48  -3
  -2  -5  -3 73916.1 1019.48  -2
  -3   2  -1 73916.1 1019.48   1
   5   3   3 2822.53 569.775  -3
  -2  -5  -2 2822.53 569.775  -2
  -3   2   0 2822.53 569.775   1
   5   3   4 112591. 1751.61  -3
  -2  -5  -1 112591. 1751.61  -2
  -3   2   1 112591. 1751.61   1
   5   3   5 10246.3 944.236  -3
  -2  -5   0 10246.3 944.236  -2
  -3   2   2 10246.3 944.236   1
   5   3   8 79028.8 2293.67  -3
  -2  -5   3 79028.8 2293.67  -2
  -3   2   5 79028.8 2293.67   1
   6   3  -4 9235.41 1965.16  -3
  -3  -6 -10 9235.41 1965.16  -2
  -3   3  -7 9235.41 1965.16   1
   6   3   1 223497. 1948.36  -3
  -3  -6  -5 223497. 1948.36  -2
  -3   3  -2 223497. 1948.36   1
   6   3   2 31015.1 930.388  -3
  -3  -6  -4 31015.1 930.388  -2
  -3   3  -1 31015.1 930.388   1
   6   3   3 26422.9 998.000  -3
  -3  -6  -3 26422.9 998.000  -2
  -3   3   0 26422.9 998.000   1
   6   3   4 27444.3 1017.62  -3
  -3  -6  -2 27444.3 1017.62  -2
  -3   3   1 27444.3 1017.62   1
   6   3   5 204288. 2865.18  -3
  -3  -6  -1 204288. 2865.18  -2
  -3   3   2 204288. 2865.18   1
   7   3   2 54888.8 1226.63  -3
  -4  -7  -5 54888.8 1226.63  -2
  -3   4  -1 54888.8 1226.63   1
   7   3   3 2642.17 1043.12  -3
  -4  -7  -4 2642.17 1043.12  -2
  -3   4   0 2642.17 1043.12   1
   7   3   4 55881.3 2008.99  -3
  -4  -7  -3 55881.3 2008.99  -2
  -3   4   1 55881.3 2008.99   1
   7   3   5 3395.89 965.295  -3
  -4  -7  -2 3395.89 965.295  -2
  -3   4   2 3395.89 965.295   1
   7   3   6 98087.4 1961.97  -3
  -4  -7  -1 98087.4 1961.97  -2
  -3   4   3 98087.4 1961.97   1
  -8   2  -5 3937.72 2213.88  -3
  10   8   3 3937.72 2213.88  -2
  -2 -10  -7 3937.72 2213.88   1
  -8   2  -4 46471.5 3215.59  -3
  10   8   4 46471.5 3215.59  -2
  -2 -10  -6 46471.5 3215.59   1
  -8   2  -3 2551.91 1332.41  -3
  10   8   5 2551.91 1332.41  -2
  -2 -10  -5 2551.91 1332.41   1
  -8   2  -2 23716.6 1755.17  -3
  10   8   6 23716.6 1755.17  -2
  -2 -10  -4 23716.6 1755.17   1
  -8   2  -1 9710.53 2093.97  -3
  10   8   7 9710.53 2093.97  -2
  -2 -10  -3 9710.53 2093.97   1
  -7   2  -7 36561.3 3365.47  -3
   9   7   0 36561.3 3365.47  -2
  -2  -9  -9 36561.3 3365.47   1
  -7   2  -6 930.759 2144.02  -3
   9   7   1 930.759 2144.02  -2
  -2  -9  -8 930.759 2144.02   1
  -7   2  -5 31277.8 1895.20  -3
   9   7   2 31277.8 1895.20  -2
  -2  -9  -7 31277.8 1895.20   1
  -7   2  -4 2102.44 1280.25  -3
   9   7   3 2102.44 1280.25  -2
  -2  -9  -6 2102.44 1280.25   1
  -7   2  -3 63575.1 2355.05  -3
   9   7   4 63575.1 2355.05  -2
  -2  -9  -5 63575.1 2355.05   1
  -7   2  -2 1407.47 1180.81  -3
   9   7   5 1407.47 1180.81  -2
  -2  -9  -4 1407.47 1180.81   1
  -7   2  -1 9913.00 1332.97  -3
   9   7   6 9913.00 1332.97  -2
  -2  -9  -3 9913.00 1332.97   1
  -7   2   0 1612.99 1085.01  -3
   9   7   7 1612.99 1085.01  -2
  -2  -9  -2 1612.99 1085.01   1
  -7   2   1 53761.6 3147.52  -3
   9   7   8 53761.6 3147.52  -2
  -2  -9  -1 53761.6 3147.52   1
  -7   2   2 421.758 1774.79  -3
   9   7   9 421.758 1774.79  -2
  -2  -9   0 421.758 1774.79   1
  -6   2  -6 31263.0 2563.59  -3
   8   6   0 31263.0 2563.59  -2
  -2  -8  -8 31263.0 2563.59   1
  -6   2  -5 5132.40 1319.41  -3
   8   6   1 5132.40 1319.41  -2
  -2  -8  -7 5132.40 1319.41   1
  -6   2  -4 65812.1 2233.75  -3
   8   6   2 65812.1 2233.75  -2
  -2  -8  -6 65812.1 2233.75   1
  -6   2  -3 25802.2 1536.81  -3
   8   6   3 25802.2 1536.81  -2
  -2  -8  -5 25802.2 1536.81   1
  -6   2  -2 40272.6 1759.86  -3
   8   6   4 40272.6 1759.86  -2
  -2  -8  -4 40272.6 1759.86   1
  -6   2  -1 11325.8 1241.38  -3
   8   6   5 11325.8 1241.38  -2
  -2  -8  -3 11325.8 1241.38   1
  -6   2   0 33778.2 1622.12  -3
   8   6   6 33778.2 1622.12  -2
  -2  -8  -2 33778.2 1622.12   1
  -6   2   1 3183.86 1044.26  -3
   8   6   7 3183.86 1044.26  -2
  -2  -8  -1 3183.86 1044.26   1
  -6   2   2 94932.3 3646.90  -3
   8   6   8 94932.3 3646.90  -2
  -2  -8   0 94932.3 3646.90   1
  -6   2   3 7728.92 1899.09  -3
   8   6   9 7728.92 1899.09  -2
  -2  -8   1 7728.92 1899.09   1
  -5   2  -7 10178.4 1974.53  -3
   7   5  -2 10178.4 1974.53  -2
  -2  -7  -9 10178.4 1974.53   1
  -5   2  -6 6943.36 1794.56  -3
   7   5  -1 6943.36 1794.56  -2
  -2  -7  -8 6943.36 1794.56   1
  -5   2  -5 62965.4 2931.46  -3
   7   5   0 62965.4 2931.46  -2
  -2  -7  -7 62965.4 2931.46   1
  -5   2  -4 1560.96 1413.00  -3
   7   5   1 1560.96 1413.00  -2
  -2  -7  -6 1560.96 1413.00   1
  -5   2  -3 113107. 2563.26  -3
   7   5   2 113107. 2563.26  -2
  -2  -7  -5 113107. 2563.26   1
  -5   2  -2 2345.34 927.448  -3
   7   5   3 2345.34 927.448  -2
  -2  -7  -4 2345.34 927.448   1
  -5   2  -1 74718.4 2092.81  -3
   7   5   4 74718.4 2092.81  -2
  -2  -7  -3 74718.4 2092.81   1
  -5   2   0 1722.99 864.523  -3
   7   5   5 1722.99 864.523  -2
  -2  -7  -2 1722.99 864.523   1
  -5   2   1 60255.8 1796.16  -3
   7   5   6 60255.8 1796.16  -2
  -2  -7  -1 60255.8 1796.16   1
  -5   2   2 4133.83 896.693  -3
   7   5   7 4133.83 896.693  -2
  -2  -7   0 4133.83 896.693   1
  -5   2   3 102918. 2151.56  -3
   7   5   8 102918. 2151.56  -2
  -2  -7   1 102918. 2151.56   1
  -5   2   4 6086.20 1699.07  -3
   7   5   9 6086.20 1699.07  -2
  -2  -7   2 6086.20 1699.07   1
  -5   2   5 15544.3 2229.39  -3
   7   5  10 15544.3 2229.39  -2
  -2  -7   3 15544.3 2229.39   1
  -4   2  -8 30261.8 2477.76  -3
   6   4  -4 30261.8 2477.76  -2
  -2  -6 -10 30261.8 2477.76   1
  -4   2  -7 979.537 1546.96  -3
   6   4  -3 979.537 1546.96  -2
  -2  -6  -9 979.537 1546.96   1
  -4   2  -6 50827.1 2744.16  -3
   6   4  -2 50827.1 2744.16  -2
  -2  -6  -8 50827.1 2744.16   1
  -4   2  -5 10062.0 1624.78  -3
   6   4  -1 10062.0 1624.78  -2
  -2  -6  -7 10062.0 1624.78   1
  -4   2  -4 118069. 3624.73  -3
   6   4   0 118069. 3624.73  -2
  -2  -6  -6 118069. 3624.73   1
  -4   2  -3 29728.5 2118.50  -3
   6   4   1 29728.5 2118.50  -2
  -2  -6  -5 29728.5 2118.50   1
  -4   2  -2 161027. 2799.80  -3
   6   4   2 161027. 2799.80  -2
  -2  -6  -4 161027. 2799.80   1
  -4   2  -1 4772.49 892.762  -3
   6   4   3 4772.49 892.762  -2
  -2  -6  -3 4772.49 892.762   1
  -4   2   0 40765.9 1477.35  -3
   6   4   4 40765.9 1477.35  -2
  -2  -6  -2 40765.9 1477.35   1
  -4   2   1 5990.04 846.812  -3
   6   4   5 5990.04 846.812  -2
  -2  -6  -1 5990.04 846.812   1
  -4   2   2 74680.3 1719.41  -3
   6   4   6 74680.3 1719.41  -2
  -2  -6   0 74680.3 1719.41   1
  -4   2   3 3156.51 711.586  -3
   6   4   7 3156.51 711.586  -2
  -2  -6   1 3156.51 711.586   1
  -4   2   4 80110.1 1725.07  -3
   6   4   8 80110.1 1725.07  -2
  -2  -6   2 80110.1 1725.07   1
  -4   2   5 3008.16 1511.66  -3
   6   4   9 3008.16 1511.66  -2
  -2  -6   3 3008.16 1511.66   1
  -4   2   6 42820.5 2995.50  -3
   6   4  10 42820.5 2995.50  -2
  -2  -6   4 42820.5 2995.50   1
  -3   2  -8 5227.40 1723.66  -3
   5   3  -5 5227.40 1723.66  -2
  -2  -5 -10 5227.40 1723.66   1
  -3   2  -7 43531.0 2575.95  -3
   5   3  -4 43531.0 2575.95  -2
  -2  -5  -9 43531.0 2575.95   1
  -3   2  -6 12733.3 1731.15  -3
   5   3  -3 12733.3 1731.15  -2
  -2  -5  -8 12733.3 1731.15   1
  -3   2  -5 67400.9 2814.68  -3
   5   3  -2 67400.9 2814.68  -2
  -2  -5  -7 67400.9 2814.68   1
  -3   2  -4 3396.00 1301.79  -3
   5   3  -1 3396.00 1301.79  -2
  -2  -5  -6 3396.00 1301.79   1
  -3   2  -3 148963. 3931.92  -3
   5   3   0 148963. 3931.92  -2
  -2  -5  -5 148963. 3931.92   1
  -3   2  -2 7075.35 1232.00  -3
   5   3   1 7075.35 1232.00  -2
  -2  -5  -4 7075.35 1232.00   1
  -3   2  -1 75342.4 1742.20  -3
   5   3   2 75342.4 1742.20  -2
  -2  -5  -3 75342.4 1742.20   1
  -3   2   0 2879.28 647.450  -3
   5   3   3 2879.28 647.450  -2
  -2  -5  -2 2879.28 647.450   1
  -3   2   1 117079. 2069.09  -3
   5   3   4 117079. 2069.09  -2
  -2  -5  -1 117079. 2069.09   1
  -3   2   2 9017.92 771.858  -3
   5   3   5 9017.92 771.858  -2
  -2  -5   0 9017.92 771.858   1
  -3   2   3 183447. 2546.24  -3
   5   3   6 183447. 2546.24  -2
  -2  -5   1 183447. 2546.24   1
  -3   2   4 14614.0 937.751  -3
   5   3   7 14614.0 937.751  -2
  -2  -5   2 14614.0 937.751   1
  -3   2   5 84131.9 1902.66  -3
   5   3   8 84131.9 1902.66  -2
  -2  -5   3 84131.9 1902.66   1
  -3   2   6 3323.19 846.444  -3
   5   3   9 3323.19 846.444  -2
  -2  -5   4 3323.19 846.444   1
  -3   2   7 34852.0 3016.00  -3
   5   3  10 34852.0 3016.00  -2
  -2  -5   5 34852.0 3016.00   1
  -2   2  -8 49603.3 2969.02  -3
   4   2  -6 49603.3 2969.02  -2
  -2  -4 -10 49603.3 2969.02   1
  -2   2  -7 6388.56 1552.07  -3
   4   2  -5 6388.56 1552.07  -2
  -2  -4  -9 6388.56 1552.07   1
  -2   2  -6 8017.00 1421.41  -3
   4   2  -4 8017.00 1421.41  -2
  -2  -4  -8 8017.00 1421.41   1
  -2   2  -5 20384.7 1805.66  -3
   4   2  -3 20384.7 1805.66  -2
  -2  -4  -7 20384.7 1805.66   1
  -2   2  -4 218033. 4552.99  -3
   4   2  -2 218033. 4552.99  -2
  -2  -4  -6 218033. 4552.99   1
  -2   2  -3 4344.80 1197.29  -3
   4   2  -1 4344.80 1197.29  -2
  -2  -4  -5 4344.80 1197.29   1
  -2   2  -2 175668. 3622.45  -3
   4   2   0 175668. 3622.45  -2
  -2  -4  -4 175668. 3622.45   1
  -2   2  -1 42949.9 1783.09  -3
   4   2   1 42949.9 1783.09  -2
  -2  -4  -3 42949.9 1783.09   1
  -2   2   0 200462. 2454.22  -3
   4   2   2 200462. 2454.22  -2
  -2  -4  -2 200462. 2454.22   1
  -2   2   1 43824.9 1235.59  -3
   4   2   3 43824.9 1235.59  -2
  -2  -4  -1 43824.9 1235.59   1
  -2   2   2 171259. 2304.38  -3
   4   2   4 171259. 2304.38  -2
  -2  -4   0 171259. 2304.38   1
  -2   2   3 3417.74 626.129  -3
   4   2   5 3417.74 626.129  -2
  -2  -4   1 3417.74 626.129   1
  -2   2   4 223060. 2806.31  -3
   4   2   6 223060. 2806.31  -2
  -2  -4   2 223060. 2806.31   1
  -2   2   5 23585.6 1154.45  -3
   4   2   7 23585.6 1154.45  -2
  -2  -4   3 23585.6 1154.45   1
  -2   2   6 9552.85 944.446  -3
   4   2   8 9552.85 944.446  -2
  -2  -4   4 9552.85 944.446   1
  -2   2   7 7872.83 1955.81  -3
   4   2   9 7872.83 1955.81  -2
  -2  -4   5 7872.83 1955.81   1
  -2   2   8 57203.7 3816.12  -3
   4   2  10 57203.7 3816.12  -2
  -2  -4   6 57203.7 3816.12   1
  -1   2  -7 33509.2 2301.81  -3
   3   1  -6 33509.2 2301.81  -2
  -2  -3  -9 33509.2 2301.81   1
  -1   2  -6 2718.60 678.136  -3
   3   1  -5 2718.60 678.136  -2
  -2  -3  -8 2718.60 678.136   1
  -1   2  -5 72478.9 1637.89  -3
   3   1  -4 72478.9 1637.89  -2
  -2  -3  -7 72478.9 1637.89   1
  -1   2  -4 36846.1 1142.41  -3
   3   1  -3 36846.1 1142.41  -2
  -2  -3  -6 36846.1 1142.41   1
  -1   2  -3 458194. 2973.71  -3
   3   1  -2 458194. 2973.71  -2
  -2  -3  -5 458194. 2973.71   1
  -1   2  -2 72656.9 2395.61  -3
   3   1  -1 72656.9 2395.61  -2
  -2  -3  -4 72656.9 2395.61   1
  -1   2  -1 191313. 3112.77  -3
   3   1   0 191313. 3112.77  -2
  -2  -3  -3 191313. 3112.77   1
  -1   2   0 51959.5 1701.01  -3
   3   1   1 51959.5 1701.01  -2
  -2  -3  -2 51959.5 1701.01   1
  -1   2   1 20489.2 843.194  -3
   3   1   2 20489.2 843.194  -2
  -2  -3  -1 20489.2 843.194   1
  -1   2   2 264525. 2553.03  -3
   3   1   3 264525. 2553.03  -2
  -2  -3   0 264525. 2553.03   1
  -1   2   3 210511. 3499.32  -3
   3   1   4 210511. 3499.32  -2
  -2  -3   1 210511. 3499.32   1
  -1   2   4 37161.2 1871.10  -3
   3   1   5 37161.2 1871.10  -2
  -2  -3   2 37161.2 1871.10   1
  -1   2   5 136335. 3792.06  -3
   3   1   6 136335. 3792.06  -2
  -2  -3   3 136335. 3792.06   1
  -1   2   6 4542.72 1353.03  -3
   3   1   7 4542.72 1353.03  -2
  -2  -3   4 4542.72 1353.03   1
  -1   2   7 37561.9 1622.76  -3
   3   1   8 37561.9 1622.76  -2
  -2  -3   5 37561.9 1622.76   1
  -1   2   8 8977.70 2151.21  -3
   3   1   9 8977.70 2151.21  -2
  -2  -3   6 8977.70 2151.21   1
  -1   2   9 76751.6 4339.70  -3
   3   1  10 76751.6 4339.70  -2
  -2  -3   7 76751.6 4339.70   1
   0   2  -7 455.830 1136.61  -3
   2   0  -7 455.830 1136.61  -2
  -2  -2  -9 455.830 1136.61   1
   0   2  -6 122438. 2167.05  -3
   2   0  -6 122438. 2167.05  -2
  -2  -2  -8 122438. 2167.05   1
   0   2  -5 1455.67 499.957  -3
   2   0  -5 1455.67 499.957  -2
  -2  -2  -7 1455.67 499.957   1
   0   2  -4 32408.1 939.153  -3
   2   0  -4 32408.1 939.153  -2
  -2  -2  -6 32408.1 939.153   1
   0   2  -3 3507.30 380.702  -3
   2   0  -3 3507.30 380.702  -2
  -2  -2  -5 3507.30 380.702   1
   0   2  -2 527998. 2702.84  -3
   2   0  -2 527998. 2702.84  -2
  -2  -2  -4 527998. 2702.84   1
   0   2  -1 2328.72 312.867  -3
   2   0  -1 2328.72 312.867  -2
  -2  -2  -3 2328.72 312.867   1
   0   2   0 4141.26 637.422  -3
   2   0   0 4141.26 637.422  -2
  -2  -2  -2 4141.26 637.422   1
   0   2   1 5609.75 636.998  -3
   2   0   1 5609.75 636.998  -2
  -2  -2  -1 5609.75 636.998   1
   0   2   2 346380. 3400.35  -3
   2   0   2 346380. 3400.35  -2
  -2  -2   0 346380. 3400.35   1
   0   2   3 4966.22 848.233  -3
   2   0   3 4966.22 848.233  -2
  -2  -2   1 4966.22 848.233   1
   0   2   4 230900. 3874.42  -3
   2   0   4 230900. 3874.42  -2
  -2  -2   2 230900. 3874.42   1
   0   2   5 655.012 896.474  -3
   2   0   5 655.012 896.474  -2
  -2  -2   3 655.012 896.474   1
   0   2   6 229249. 5324.80  -3
   2   0   6 229249. 5324.80  -2
  -2  -2   4 229249. 5324.80   1
   0   2   7 575.364 1329.61  -3
   2   0   7 575.364 1329.61  -2
  -2  -2   5 575.364 1329.61   1
   0   2   8 13668.4 2035.28  -3
   2   0   8 13668.4 2035.28  -2
  -2  -2   6 13668.4 2035.28   1
   0   2   9-292.943 1588.90  -3
   2   0   9-292.943 1588.90  -2
  -2  -2   7-292.943 1588.90   1
   0   2  10 49477.0 3665.78  -3
   2   0  10 49477.0 3665.78  -2
  -2  -2   8 49477.0 3665.78   1
   1   2  -8 4726.95 2058.47  -3
   1  -1  -9 4726.95 2058.47  -2
  -2  -1 -10 4726.95 2058.47   1
   1   2  -7 37311.9 2970.72  -3
   1  -1  -8 37311.9 2970.72  -2
  -2  -1  -9 37311.9 2970.72   1
   1   2  -6 4244.34 1585.79  -3
   1  -1  -7 4244.34 1585.79  -2
  -2  -1  -8 4244.34 1585.79   1
   1   2  -5 40203.6 1264.65  -3
   1  -1  -6 40203.6 1264.65  -2
  -2  -1  -7 40203.6 1264.65   1
   1   2  -4 16652.6 810.083  -3
   1  -1  -5 16652.6 810.083  -2
  -2  -1  -6 16652.6 810.083   1
   1   2  -3 154257. 1709.84  -3
   1  -1  -4 154257. 1709.84  -2
  -2  -1  -5 154257. 1709.84   1
   1   2  -2 1227.57 352.782  -3
   1  -1  -3 1227.57 352.782  -2
  -2  -1  -4 1227.57 352.782   1
   1   2  -1 418816. 2214.02  -3
   1  -1  -2 418816. 2214.02  -2
  -2  -1  -3 418816. 2214.02   1
   1   2   0 190846. 1516.97  -3
   1  -1  -1 190846. 1516.97  -2
  -2  -1  -2 190846. 1516.97   1
   1   2   1 396660. 2505.18  -3
   1  -1   0 396660. 2505.18  -2
  -2  -1  -1 396660. 2505.18   1
   1   2   2 176576. 1946.44  -3
   1  -1   1 176576. 1946.44  -2
  -2  -1   0 176576. 1946.44   1
   1   2   3 413052. 3800.67  -3
   1  -1   2 413052. 3800.67  -2
  -2  -1   1 413052. 3800.67   1
   1   2   4 1602.19 644.006  -3
   1  -1   3 1602.19 644.006  -2
  -2  -1   2 1602.19 644.006   1
   1   2   5 154204. 3558.17  -3
   1  -1   4 154204. 3558.17  -2
  -2  -1   3 154204. 3558.17   1
   1   2   6 18206.9 1109.25  -3
   1  -1   5 18206.9 1109.25  -2
  -2  -1   4 18206.9 1109.25   1
   1   2   7 43726.7 2556.81  -3
   1  -1   6 43726.7 2556.81  -2
  -2  -1   5 43726.7 2556.81   1
   1   2   8 2515.02 1408.63  -3
   1  -1   7 2515.02 1408.63  -2
  -2  -1   6 2515.02 1408.63   1
   1   2   9 36727.0 2769.01  -3
   1  -1   8 36727.0 2769.01  -2
  -2  -1   7 36727.0 2769.01   1
   1   2  10 2072.85 1670.94  -3
   1  -1   9 2072.85 1670.94  -2
  -2  -1   8 2072.85 1670.94   1
   2   2  -8 63123.5 2756.22  -3
   0  -2 -10 63123.5 2756.22  -2
  -2   0 -10 63123.5 2756.22   1
   2   2  -7 937.353 1304.36  -3
   0  -2  -9 937.353 1304.36  -2
  -2   0  -9 937.353 1304.36   1
   2   2  -6 12968.4 1519.13  -3
   0  -2  -8 12968.4 1519.13  -2
  -2   0  -8 12968.4 1519.13   1
   2   2  -5 63.3899 983.444  -3
   0  -2  -7 63.3899 983.444  -2
  -2   0  -7 63.3899 983.444   1
   2   2  -4 196061. 3841.79  -3
   0  -2  -6 196061. 3841.79  -2
  -2   0  -6 196061. 3841.79   1
   2   2  -3 538.256 304.762  -3
   0  -2  -5 538.256 304.762  -2
  -2   0  -5 538.256 304.762   1
   2   2  -2 256991. 1520.84  -3
   0  -2  -4 256991. 1520.84  -2
  -2   0  -4 256991. 1520.84   1
   2   2  -1 5329.03 329.597  -3
   0  -2  -3 5329.03 329.597  -2
  -2   0  -3 5329.03 329.597   1
   2   2   0 404539. 1916.54  -3
   0  -2  -2 404539. 1916.54  -2
  -2   0  -2 404539. 1916.54   1
   2   2   1 4266.34 304.476  -3
   0  -2  -1 4266.34 304.476  -2
  -2   0  -1 4266.34 304.476   1
   2   2   2 4807.25 736.898  -3
   0  -2   0 4807.25 736.898  -2
  -2   0   0 4807.25 736.898   1
   2   2   3 3426.93 423.870  -3
   0  -2   1 3426.93 423.870  -2
  -2   0   1 3426.93 423.870   1
   2   2   4 456877. 1800.01  -3
   0  -2   2 456877. 1800.01  -2
  -2   0   2 456877. 1800.01   1
   2   2   5 3414.37 284.548  -3
   0  -2   3 3414.37 284.548  -2
  -2   0   3 3414.37 284.548   1
   2   2   6 36043.4 949.230  -3
   0  -2   4 36043.4 949.230  -2
  -2   0   4 36043.4 949.230   1
   2   2   7 710.228 769.238  -3
   0  -2   5 710.228 769.238  -2
  -2   0   5 710.228 769.238   1
   2   2   8 128126. 2628.43  -3
   0  -2   6 128126. 2628.43  -2
  -2   0   6 128126. 2628.43   1
   2   2   9 332.231 915.275  -3
   0  -2   7 332.231 915.275  -2
  -2   0   7 332.231 915.275   1
   2   2  10 42271.4 2032.64  -3
   0  -2   8 42271.4 2032.64  -2
  -2   0   8 42271.4 2032.64   1
   2   2  11 914.385 1222.30  -3
   0  -2   9 914.385 1222.30  -2
  -2   0   9 914.385 1222.30   1
   3   2  -7 69983.5 3986.94  -3
  -1  -3 -10 69983.5 3986.94  -2
  -2   1  -9 69983.5 3986.94   1
   3   2  -6 7852.77 1893.07  -3
  -1  -3  -9 7852.77 1893.07  -2
  -2   1  -8 7852.77 1893.07   1
   3   2  -5 43208.3 2775.02  -3
  -1  -3  -8 43208.3 2775.02  -2
  -2   1  -7 43208.3 2775.02   1
   3   2  -4 4851.91 1299.53  -3
  -1  -3  -7 4851.91 1299.53  -2
  -2   1  -6 4851.91 1299.53   1
   3   2  -2 39310.2 1851.40  -3
  -1  -3  -5 39310.2 1851.40  -2
  -2   1  -4 39310.2 1851.40   1
   3   2  -1 203550. 3457.05  -3
  -1  -3  -4 203550. 3457.05  -2
  -2   1  -3 203550. 3457.05   1
   3   2   0 248224. 2623.01  -3
  -1  -3  -3 248224. 2623.01  -2
  -2   1  -2 248224. 2623.01   1
   3   2   1 19041.2 667.377  -3
  -1  -3  -2 19041.2 667.377  -2
  -2   1  -1 19041.2 667.377   1
  -1  -3  -1 41489.0 629.414  -2
  -2   1   0 41489.0 629.414   1
   3   2   2 48425.8 1619.76  -3
  -1  -3  -1 48425.8 1619.76  -2
  -2   1   0 48425.8 1619.76   1
   3   2   3 199015. 1985.90  -3
  -1  -3   0 199015. 1985.90  -2
  -2   1   1 199015. 1985.90   1
   3   2   4 62912.4 2130.51  -3
  -1  -3   1 62912.4 2130.51  -2
  -2   1   2 62912.4 2130.51   1
   3   2   5 426597. 3204.91  -3
  -1  -3   2 426597. 3204.91  -2
  -2   1   3 426597. 3204.91   1
   3   2   6 33860.4 1010.98  -3
  -1  -3   3 33860.4 1010.98  -2
  -2   1   4 33860.4 1010.98   1
   3   2   7 68655.1 1599.40  -3
  -1  -3   4 68655.1 1599.40  -2
  -2   1   5 68655.1 1599.40   1
   3   2   8 2727.44 1036.94  -3
  -1  -3   5 2727.44 1036.94  -2
  -2   1   6 2727.44 1036.94   1
   4   2  -7 1636.32 1909.71  -3
  -2  -4 -11 1636.32 1909.71  -2
  -2   2  -9 1636.32 1909.71   1
   4   2  -6 60329.7 3634.34  -3
  -2  -4 -10 60329.7 3634.34  -2
  -2   2  -8 60329.7 3634.34   1
   4   2  -5 6114.12 1692.49  -3
  -2  -4  -9 6114.12 1692.49  -2
  -2   2  -7 6114.12 1692.49   1
   4   2  -1 3140.87 872.838  -3
  -2  -4  -5 3140.87 872.838  -2
  -2   2  -3 3140.87 872.838   1
   4   2   0 174439. 1288.45  -3
  -2  -4  -4 174439. 1288.45  -2
  -2   2  -2 174439. 1288.45   1
   4   2   1 41123.8 774.877  -3
  -2  -4  -3 41123.8 774.877  -2
  -2   2  -1 41123.8 774.877   1
   4   2   2 211978. 1540.25  -3
  -2  -4  -2 211978. 1540.25  -2
  -2   2   0 211978. 1540.25   1
   4   2   3 38441.8 963.874  -3
  -2  -4  -1 38441.8 963.874  -2
  -2   2   1 38441.8 963.874   1
   4   2   4 159885. 1767.59  -3
  -2  -4   0 159885. 1767.59  -2
  -2   2   2 159885. 1767.59   1
   4   2   5 4017.97 1033.38  -3
  -2  -4   1 4017.97 1033.38  -2
  -2   2   3 4017.97 1033.38   1
   4   2   7 23315.1 1537.64  -3
  -2  -4   3 23315.1 1537.64  -2
  -2   2   5 23315.1 1537.64   1
   4   2   8 9560.76 1293.99  -3
  -2  -4   4 9560.76 1293.99  -2
  -2   2   6 9560.76 1293.99   1
   5   2  -6-540.348 1715.61  -3
  -3  -5 -11-540.348 1715.61  -2
  -2   3  -8-540.348 1715.61   1
   5   2  -5 33164.3 2644.81  -3
  -3  -5 -10 33164.3 2644.81  -2
  -2   3  -7 33164.3 2644.81   1
   5   2   0 8627.25 395.850  -3
  -3  -5  -5 8627.25 395.850  -2
  -2   3  -2 8627.25 395.850   1
   5   2   1 123239. 1548.75  -3
  -3  -5  -4 123239. 1548.75  -2
  -2   3  -1 123239. 1548.75   1
   5   2   2 2864.69 459.459  -3
  -3  -5  -3 2864.69 459.459  -2
  -2   3   0 2864.69 459.459   1
   5   2   3 72342.1 1391.48  -3
  -3  -5  -2 72342.1 1391.48  -2
  -2   3   1 72342.1 1391.48   1
   5   2   4 5330.10 590.929  -3
  -3  -5  -1 5330.10 590.929  -2
  -2   3   2 5330.10 590.929   1
   5   2   5 133659. 1836.33  -3
  -3  -5   0 133659. 1836.33  -2
  -2   3   3 133659. 1836.33   1
   5   2   7 68802.0 2364.85  -3
  -3  -5   2 68802.0 2364.85  -2
  -2   3   5 68802.0 2364.85   1
   6   2   0 62636.2 1075.43  -3
  -2   4  -2 62636.2 1075.43   1
   6   2   1 6086.25 596.313  -3
  -4  -6  -5 6086.25 596.313  -2
  -2   4  -1 6086.25 596.313   1
   6   2   2 42981.3 1027.02  -3
  -4  -6  -4 42981.3 1027.02  -2
  -2   4   0 42981.3 1027.02   1
   6   2   3 6337.60 814.964  -3
  -4  -6  -3 6337.60 814.964  -2
  -2   4   1 6337.60 814.964   1
   6   2   4 156596. 2666.47  -3
  -4  -6  -2 156596. 2666.47  -2
  -2   4   2 156596. 2666.47   1
   6   2   5 28584.8 1126.81  -3
  -4  -6  -1 28584.8 1126.81  -2
  -2   4   3 28584.8 1126.81   1
   7   2   1 52221.8 1514.04  -3
  -5  -7  -6 52221.8 1514.04  -2
  -2   5  -1 52221.8 1514.04   1
   7   2   2 1043.10 807.872  -3
  -5  -7  -5 1043.10 807.872  -2
  -2   5   0 1043.10 807.872   1
   7   2   4 2008.79 1038.49  -3
  -5  -7  -3 2008.79 1038.49  -2
  -2   5   2 2008.79 1038.49   1
   7   2   5 112787. 2229.71  -3
  -5  -7  -2 112787. 2229.71  -2
  -2   5   3 112787. 2229.71   1
  -9   1  -3 698.887 1439.42  -3
  -1 -10  -4 698.887 1439.42   1
  -9   1  -3 53.6943 1687.87  -3
  10   9   6 53.6943 1687.87  -2
  -1 -10  -4 53.6943 1687.87   1
  -9   1  -2 30594.4 2613.67  -3
  10   9   7 30594.4 2613.67  -2
  -1 -10  -3 30594.4 2613.67   1
  -8   1  -6 5705.47 1828.53  -3
   9   8   2 5705.47 1828.53  -2
  -1  -9  -7 5705.47 1828.53   1
  -8   1  -5 17730.2 1618.82  -3
   9   8   3 17730.2 1618.82  -2
  -1  -9  -6 17730.2 1618.82   1
  -8   1  -4 272.518 1179.63  -3
   9   8   4 272.518 1179.63  -2
  -1  -9  -5 272.518 1179.63   1
  -8   1  -3 47290.8 2010.74  -3
   9   8   5 47290.8 2010.74  -2
  -1  -9  -4 47290.8 2010.74   1
  -8   1  -2 1704.85 1087.43  -3
   9   8   6 1704.85 1087.43  -2
  -1  -9  -3 1704.85 1087.43   1
  -8   1  -1 22910.5 1854.29  -3
  -1  -9  -2 22910.5 1854.29   1
  -8   1  -1 31075.6 2533.72  -3
   9   8   7 31075.6 2533.72  -2
  -1  -9  -2 31075.6 2533.72   1
  -8   1   0 242.730 1792.77  -3
   9   8   8 242.730 1792.77  -2
  -1  -9  -1 242.730 1792.77   1
  -8   1   1 17772.7 2340.89  -3
   9   8   9 17772.7 2340.89  -2
  -1  -9   0 17772.7 2340.89   1
  -7   1  -7 1497.69 1919.87  -3
   8   7   0 1497.69 1919.87  -2
  -1  -8  -8 1497.69 1919.87   1
  -7   1  -6 44405.1 2063.00  -3
   8   7   1 44405.1 2063.00  -2
  -1  -8  -7 44405.1 2063.00   1
  -7   1  -5 962.372 1122.85  -3
   8   7   2 962.372 1122.85  -2
  -1  -8  -6 962.372 1122.85   1
  -7   1  -4 57305.2 2003.40  -3
   8   7   3 57305.2 2003.40  -2
  -1  -8  -5 57305.2 2003.40   1
  -7   1  -3 16447.8 1412.09  -3
   8   7   4 16447.8 1412.09  -2
  -1  -8  -4 16447.8 1412.09   1
  -7   1  -2 25863.0 1522.91  -3
   8   7   5 25863.0 1522.91  -2
  -1  -8  -3 25863.0 1522.91   1
  -7   1  -1 8808.31 1089.68  -3
   8   7   6 8808.31 1089.68  -2
  -1  -8  -2 8808.31 1089.68   1
  -7   1   0 87628.6 2147.94  -3
   8   7   7 87628.6 2147.94  -2
  -1  -8  -1 87628.6 2147.94   1
  -7   1   1 1017.29 1558.98  -3
   8   7   8 1017.29 1558.98  -2
  -1  -8   0 1017.29 1558.98   1
  -7   1   2 21896.9 2401.85  -3
   8   7   9 21896.9 2401.85  -2
  -1  -8   1 21896.9 2401.85   1
  -6   1  -7 33835.5 2683.61  -3
   7   6  -1 33835.5 2683.61  -2
  -1  -7  -8 33835.5 2683.61   1
  -6   1  -6 3525.65 1588.63  -3
   7   6   0 3525.65 1588.63  -2
  -1  -7  -7 3525.65 1588.63   1
  -6   1  -5 135184. 2818.09  -3
   7   6   1 135184. 2818.09  -2
  -1  -7  -6 135184. 2818.09   1
  -6   1  -4 5569.37 1044.32  -3
   7   6   2 5569.37 1044.32  -2
  -1  -7  -5 5569.37 1044.32   1
  -6   1  -3 32822.9 1515.07  -3
   7   6   3 32822.9 1515.07  -2
  -1  -7  -4 32822.9 1515.07   1
  -6   1  -2 11739.5 1085.94  -3
   7   6   4 11739.5 1085.94  -2
  -1  -7  -3 11739.5 1085.94   1
  -6   1  -1 47167.7 1616.67  -3
   7   6   5 47167.7 1616.67  -2
  -1  -7  -2 47167.7 1616.67   1
  -6   1   0 31927.4 1360.55  -3
   7   6   6 31927.4 1360.55  -2
  -1  -7  -1 31927.4 1360.55   1
  -6   1   1 74044.6 1829.84  -3
   7   6   7 74044.6 1829.84  -2
  -1  -7   0 74044.6 1829.84   1
  -6   1   2 5564.91 1619.06  -3
   7   6   8 5564.91 1619.06  -2
  -1  -7   1 5564.91 1619.06   1
  -6   1   3 43496.8 2723.72  -3
   7   6   9 43496.8 2723.72  -2
  -1  -7   2 43496.8 2723.72   1
  -6   1   4 2689.23 1781.19  -3
   7   6  10 2689.23 1781.19  -2
  -1  -7   3 2689.23 1781.19   1
  -5   1  -8 40355.9 2753.45  -3
   6   5  -3 40355.9 2753.45  -2
  -1  -6  -9 40355.9 2753.45   1
  -5   1  -7 1213.16 1522.39  -3
   6   5  -2 1213.16 1522.39  -2
  -1  -6  -8 1213.16 1522.39   1
  -5   1  -6 70937.9 3095.87  -3
   6   5  -1 70937.9 3095.87  -2
  -1  -6  -7 70937.9 3095.87   1
  -5   1  -5 4047.82 1360.29  -3
   6   5   0 4047.82 1360.29  -2
  -1  -6  -6 4047.82 1360.29   1
  -5   1  -4 23903.2 1880.42  -3
   6   5   1 23903.2 1880.42  -2
  -1  -6  -5 23903.2 1880.42   1
  -5   1  -3 1710.63 827.166  -3
   6   5   2 1710.63 827.166  -2
  -1  -6  -4 1710.63 827.166   1
  -5   1  -2 147124. 2451.56  -3
   6   5   3 147124. 2451.56  -2
  -1  -6  -3 147124. 2451.56   1
  -5   1  -1 7976.87 933.068  -3
   6   5   4 7976.87 933.068  -2
  -1  -6  -2 7976.87 933.068   1
  -5   1   0 69244.7 1748.40  -3
   6   5   5 69244.7 1748.40  -2
  -1  -6  -1 69244.7 1748.40   1
  -5   1   1 13676.6 957.842  -3
   6   5   6 13676.6 957.842  -2
  -1  -6   0 13676.6 957.842   1
  -5   1   2 90236.8 1797.81  -3
   6   5   7 90236.8 1797.81  -2
  -1  -6   1 90236.8 1797.81   1
  -5   1   3 6229.50 755.985  -3
   6   5   8 6229.50 755.985  -2
  -1  -6   2 6229.50 755.985   1
  -5   1   4 60825.4 3140.56  -3
   6   5   9 60825.4 3140.56  -2
  -1  -6   3 60825.4 3140.56   1
  -5   1   5 662.122 1766.55  -3
   6   5  10 662.122 1766.55  -2
  -1  -6   4 662.122 1766.55   1
  -4   1  -8 3100.04 1578.60  -3
   5   4  -4 3100.04 1578.60  -2
  -1  -5  -9 3100.04 1578.60   1
  -4   1  -7 86803.2 3362.81  -3
   5   4  -3 86803.2 3362.81  -2
  -1  -5  -8 86803.2 3362.81   1
  -4   1  -6 250.807 1184.70  -3
   5   4  -2 250.807 1184.70  -2
  -1  -5  -7 250.807 1184.70   1
  -4   1  -5 17813.1 1701.87  -3
   5   4  -1 17813.1 1701.87  -2
  -1  -5  -6 17813.1 1701.87   1
  -4   1  -4 1764.40 1118.33  -3
   5   4   0 1764.40 1118.33  -2
  -1  -5  -5 1764.40 1118.33   1
  -4   1  -3 124499. 3246.15  -3
   5   4   1 124499. 3246.15  -2
  -1  -5  -4 124499. 3246.15   1
  -4   1  -2 12739.3 961.276  -3
   5   4   2 12739.3 961.276  -2
  -1  -5  -3 12739.3 961.276   1
  -4   1  -1 367525. 3606.78  -3
   5   4   3 367525. 3606.78  -2
  -1  -5  -2 367525. 3606.78   1
  -4   1   0 27099.1 1119.46  -3
   5   4   4 27099.1 1119.46  -2
  -1  -5  -1 27099.1 1119.46   1
  -4   1   1 87458.4 1722.55  -3
   5   4   5 87458.4 1722.55  -2
  -1  -5   0 87458.4 1722.55   1
  -4   1   2 16561.9 829.447  -3
   5   4   6 16561.9 829.447  -2
  -1  -5   1 16561.9 829.447   1
  -4   1   3 26888.2 973.932  -3
   5   4   7 26888.2 973.932  -2
  -1  -5   2 26888.2 973.932   1
  -4   1   4 2192.37 527.237  -3
   5   4   8 2192.37 527.237  -2
  -1  -5   3 2192.37 527.237   1
  -4   1   5 98214.4 3769.18  -3
   5   4   9 98214.4 3769.18  -2
  -1  -5   4 98214.4 3769.18   1
  -4   1   6 1691.92 1844.05  -3
   5   4  10 1691.92 1844.05  -2
  -1  -5   5 1691.92 1844.05   1
  -3   1  -7 7904.50 1533.74  -3
   4   3  -4 7904.50 1533.74  -2
  -1  -4  -8 7904.50 1533.74   1
  -3   1  -6 79910.4 2959.88  -3
   4   3  -3 79910.4 2959.88  -2
  -1  -4  -7 79910.4 2959.88   1
  -3   1  -5 23000.1 1678.32  -3
   4   3  -2 23000.1 1678.32  -2
  -1  -4  -6 23000.1 1678.32   1
  -3   1  -4 195449. 4030.64  -3
   4   3  -1 195449. 4030.64  -2
  -1  -4  -5 195449. 4030.64   1
  -3   1  -3 21137.3 1493.44  -3
   4   3   0 21137.3 1493.44  -2
  -1  -4  -4 21137.3 1493.44   1
  -3   1  -2 129096. 3078.42  -3
   4   3   1 129096. 3078.42  -2
  -1  -4  -3 129096. 3078.42   1
  -3   1  -1 6064.00 679.160  -3
   4   3   2 6064.00 679.160  -2
  -1  -4  -2 6064.00 679.160   1
  -3   1   0 232341. 2637.83  -3
   4   3   3 232341. 2637.83  -2
  -1  -4  -1 232341. 2637.83   1
  -3   1   1 7477.20 609.697  -3
   4   3   4 7477.20 609.697  -2
  -1  -4   0 7477.20 609.697   1
  -3   1   2 54061.3 1226.50  -3
   4   3   5 54061.3 1226.50  -2
  -1  -4   1 54061.3 1226.50   1
  -3   1   3 3455.78 558.379  -3
   4   3   6 3455.78 558.379  -2
  -1  -4   2 3455.78 558.379   1
  -3   1   4 106222. 1826.92  -3
   4   3   7 106222. 1826.92  -2
  -1  -4   3 106222. 1826.92   1
  -3   1   5 13893.4 896.649  -3
   4   3   8 13893.4 896.649  -2
  -1  -4   4 13893.4 896.649   1
  -3   1   6 81805.3 3779.03  -3
   4   3   9 81805.3 3779.03  -2
  -1  -4   5 81805.3 3779.03   1
  -3   1   7 8965.12 2252.89  -3
   4   3  10 8965.12 2252.89  -2
  -1  -4   6 8965.12 2252.89   1
  -2   1  -7 35752.9 2330.44  -3
   3   2  -5 35752.9 2330.44  -2
  -1  -3  -8 35752.9 2330.44   1
  -2   1  -6 5069.13 472.585  -3
   3   2  -4 5069.13 472.585  -2
  -1  -3  -7 5069.13 472.585   1
  -2   1  -5 125519. 3410.43  -3
   3   2  -3 125519. 3410.43  -2
  -1  -3  -6 125519. 3410.43   1
  -2   1  -4 36159.0 1253.62  -3
   3   2  -2 36159.0 1253.62  -2
  -1  -3  -5 36159.0 1253.62   1
  -2   1  -3 224891. 4129.42  -3
   3   2  -1 224891. 4129.42  -2
  -1  -3  -4 224891. 4129.42   1
  -2   1  -2 288545. 4581.52  -3
   3   2   0 288545. 4581.52  -2
  -1  -3  -3 288545. 4581.52   1
  -2   1  -1 18767.1 1201.02  -3
   3   2   1 18767.1 1201.02  -2
  -1  -3  -2 18767.1 1201.02   1
  -2   1   0 48134.4 1069.28  -3
   3   2   2 48134.4 1069.28  -2
  -1  -3  -1 48134.4 1069.28   1
  -2   1   1 204271. 2050.99  -3
   3   2   3 204271. 2050.99  -2
  -1  -3   0 204271. 2050.99   1
  -2   1   2 64535.4 1272.43  -3
   3   2   4 64535.4 1272.43  -2
  -1  -3   1 64535.4 1272.43   1
  -2   1   3 470176. 3552.54  -3
   3   2   5 470176. 3552.54  -2
  -1  -3   2 470176. 3552.54   1
  -2   1   4 37040.7 2117.70  -3
   3   2   6 37040.7 2117.70  -2
  -1  -3   3 37040.7 2117.70   1
  -2   1   5 76399.6 3263.89  -3
   3   2   7 76399.6 3263.89  -2
  -1  -3   4 76399.6 3263.89   1
  -2   1   6 2149.51 663.736  -3
   3   2   8 2149.51 663.736  -2
  -1  -3   5 2149.51 663.736   1
  -2   1   7 42660.5 3150.55  -3
   3   2   9 42660.5 3150.55  -2
  -1  -3   6 42660.5 3150.55   1
  -2   1   8 14696.2 2485.82  -3
   3   2  10 14696.2 2485.82  -2
  -1  -3   7 14696.2 2485.82   1
  -1   1  -7 3530.85 1050.64  -3
   2   1  -6 3530.85 1050.64  -2
  -1  -2  -8 3530.85 1050.64   1
  -1   1  -6 41251.4 1422.26  -3
   2   1  -5 41251.4 1422.26  -2
  -1  -2  -7 41251.4 1422.26   1
  -1   1  -5 17409.3 892.936  -3
   2   1  -4 17409.3 892.936  -2
  -1  -2  -6 17409.3 892.936   1
  -1   1  -4 143308. 1696.39  -3
   2   1  -3 143308. 1696.39  -2
  -1  -2  -5 143308. 1696.39   1
  -1   1  -3 1034.11 310.419  -3
   2   1  -2 1034.11 310.419  -2
  -1  -2  -4 1034.11 310.419   1
  -1   1  -2 467366. 2594.64  -3
   2   1  -1 467366. 2594.64  -2
  -1  -2  -3 467366. 2594.64   1
  -1   1  -1 178123. 2790.16  -3
   2   1   0 178123. 2790.16  -2
  -1  -2  -2 178123. 2790.16   1
  -1   1   0 356367. 3370.60  -3
   2   1   1 356367. 3370.60  -2
  -1  -2  -1 356367. 3370.60   1
  -1   1   1 172264. 1671.56  -3
   2   1   2 172264. 1671.56  -2
  -1  -2   0 172264. 1671.56   1
  -1   1   2 401114. 4445.41  -3
   2   1   3 401114. 4445.41  -2
  -1  -2   1 401114. 4445.41   1
  -1   1   3 803.877 727.116  -3
   2   1   4 803.877 727.116  -2
  -1  -2   2 803.877 727.116   1
  -1   1   4 143561. 3726.26  -3
   2   1   5 143561. 3726.26  -2
  -1  -2   3 143561. 3726.26   1
  -1   1   5 15798.9 979.653  -3
   2   1   6 15798.9 979.653  -2
  -1  -2   4 15798.9 979.653   1
  -1   1   6 36776.6 1512.29  -3
   2   1   7 36776.6 1512.29  -2
  -1  -2   5 36776.6 1512.29   1
  -1   1   7 3472.53 875.041  -3
   2   1   8 3472.53 875.041  -2
  -1  -2   6 3472.53 875.041   1
  -1   1   8 37233.3 3052.33  -3
   2   1   9 37233.3 3052.33  -2
  -1  -2   7 37233.3 3052.33   1
  -1   1   9 1990.26 1931.89  -3
   2   1  10 1990.26 1931.89  -2
  -1  -2   8 1990.26 1931.89   1
   0   1  -8 429.190 1030.71  -3
   1   0  -8 429.190 1030.71  -2
  -1  -1  -9 429.190 1030.71   1
   0   1  -7 78106.8 2426.59  -3
   1   0  -7 78106.8 2426.59  -2
  -1  -1  -8 78106.8 2426.59   1
   0   1  -6 2983.05 1263.02  -3
   1   0  -6 2983.05 1263.02  -2
  -1  -1  -7 2983.05 1263.02   1
   0   1  -5 226289. 2631.78  -3
   1   0  -5 226289. 2631.78  -2
  -1  -1  -6 226289. 2631.78   1
   0   1  -4 1053.42 342.773  -3
   1   0  -4 1053.42 342.773  -2
  -1  -1  -5 1053.42 342.773   1
   0   1  -3 94072.9 1075.41  -3
   1   0  -3 94072.9 1075.41  -2
  -1  -1  -4 94072.9 1075.41   1
   0   1  -2 1548.16 229.431  -3
   1   0  -2 1548.16 229.431  -2
  -1  -1  -3 1548.16 229.431   1
   0   1  -1 474016. 1277.29  -3
   1   0  -1 474016. 1277.29  -2
  -1  -1  -2 474016. 1277.29   1
   0   1   0 311.140 323.581  -3
   1   0   0 311.140 323.581  -2
  -1  -1  -1 311.140 323.581   1
   0   1   1 436488. 2841.44  -3
   1   0   1 436488. 2841.44  -2
  -1  -1   0 436488. 2841.44   1
   0   1   2 589.274 452.882  -3
   1   0   2 589.274 452.882  -2
  -1  -1   1 589.274 452.882   1
   0   1   3 8464.56 926.693  -3
   1   0   3 8464.56 926.693  -2
  -1  -1   2 8464.56 926.693   1
   0   1   4 3583.33 706.902  -3
   1   0   4 3583.33 706.902  -2
  -1  -1   3 3583.33 706.902   1
   0   1   5 113035. 1725.88  -3
   1   0   5 113035. 1725.88  -2
  -1  -1   4 113035. 1725.88   1
   0   1   6 3106.90 584.191  -3
   1   0   6 3106.90 584.191  -2
  -1  -1   5 3106.90 584.191   1
   0   1   7 194155. 2642.09  -3
   1   0   7 194155. 2642.09  -2
  -1  -1   6 194155. 2642.09   1
   0   1   8-451.197 1055.84  -3
   1   0   8-451.197 1055.84  -2
  -1  -1   7-451.197 1055.84   1
   0   1   9 38004.6 3193.76  -3
   1   0   9 38004.6 3193.76  -2
  -1  -1   8 38004.6 3193.76   1
   1   1  -9 1973.15 1298.62  -3
   0  -1 -10 1973.15 1298.62  -2
  -1   0 -10 1973.15 1298.62   1
   1   1  -8 46842.6 2142.53  -3
   0  -1  -9 46842.6 2142.53  -2
  -1   0  -9 46842.6 2142.53   1
   1   1  -7 358.871 945.359  -3
   0  -1  -8 358.871 945.359  -2
  -1   0  -8 358.871 945.359   1
   1   1  -6 204927. 3523.39  -3
   0  -1  -7 204927. 3523.39  -2
  -1   0  -7 204927. 3523.39   1
   1   1  -5 3425.45 832.687  -3
   0  -1  -6 3425.45 832.687  -2
  -1   0  -6 3425.45 832.687   1
   1   1  -4 131642. 1686.71  -3
   0  -1  -5 131642. 1686.71  -2
  -1   0  -5 131642. 1686.71   1
   1   1  -3 4604.34 365.560  -3
   0  -1  -4 4604.34 365.560  -2
  -1   0  -4 4604.34 365.560   1
   1   1  -2 7840.47 381.515  -3
   0  -1  -3 7840.47 381.515  -2
  -1   0  -3 7840.47 381.515   1
   1   1  -1 480.524 270.150  -3
   0  -1  -2 480.524 270.150  -2
  -1   0  -2 480.524 270.150   1
   1   1   0 420848. 1473.39  -3
   0  -1  -1 420848. 1473.39  -2
  -1   0  -1 420848. 1473.39   1
   1   1   2 597386. 2216.95  -3
   0  -1   1 597386. 2216.95  -2
  -1   0   1 597386. 2216.95   1
   1   1   3 1638.81 267.472  -3
   0  -1   2 1638.81 267.472  -2
  -1   0   2 1638.81 267.472   1
   1   1   4 100168. 875.981  -3
   0  -1   3 100168. 875.981  -2
  -1   0   3 100168. 875.981   1
   1   1   5 1095.48 374.825  -3
   0  -1   4 1095.48 374.825  -2
  -1   0   4 1095.48 374.825   1
   1   1   6 249638. 2314.67  -3
   0  -1   5 249638. 2314.67  -2
  -1   0   5 249638. 2314.67   1
   1   1   7 2069.04 866.061  -3
   0  -1   6 2069.04 866.061  -2
  -1   0   6 2069.04 866.061   1
   1   1   8 81316.1 2348.70  -3
   0  -1   7 81316.1 2348.70  -2
  -1   0   7 81316.1 2348.70   1
   1   1   9 1057.69 1006.32  -3
   0  -1   8 1057.69 1006.32  -2
  -1   0   8 1057.69 1006.32   1
   1   1  10 9882.45 1480.25  -3
   0  -1   9 9882.45 1480.25  -2
  -1   0   9 9882.45 1480.25   1
   2   1  -9 41041.7 3523.77  -3
  -1  -2 -11 41041.7 3523.77  -2
  -1   1 -10 41041.7 3523.77   1
   2   1  -8 4182.21 1864.46  -3
  -1  -2 -10 4182.21 1864.46  -2
  -1   1  -9 4182.21 1864.46   1
   2   1  -7 40449.2 2943.86  -3
  -1  -2  -9 40449.2 2943.86  -2
  -1   1  -8 40449.2 2943.86   1
   2   1  -6 4384.50 1443.28  -3
  -1  -2  -8 4384.50 1443.28  -2
  -1   1  -7 4384.50 1443.28   1
   2   1  -5 43702.2 2558.33  -3
  -1  -2  -7 43702.2 2558.33  -2
  -1   1  -6 43702.2 2558.33   1
   2   1  -4 16503.9 1556.77  -3
  -1  -2  -6 16503.9 1556.77  -2
  -1   1  -5 16503.9 1556.77   1
   2   1  -3 147836. 3631.18  -3
  -1  -2  -5 147836. 3631.18  -2
  -1   1  -4 147836. 3631.18   1
   2   1  -2 1210.58 739.558  -3
  -1  -2  -4 1210.58 739.558  -2
  -1   1  -3 1210.58 739.558   1
   2   1  -1 390320. 4298.16  -3
  -1  -2  -3 390320. 4298.16  -2
  -1   1  -2 390320. 4298.16   1
   2   1   0 144737. 1122.47  -3
  -1  -2  -2 144737. 1122.47  -2
  -1   1  -1 144737. 1122.47   1
   2   1   1 383489. 1633.22  -3
  -1  -2  -1 383489. 1633.22  -2
  -1   1   0 383489. 1633.22   1
   2   1   2 153012. 1377.39  -3
  -1  -2   0 153012. 1377.39  -2
  -1   1   1 153012. 1377.39   1
   2   1   3 360262. 4510.71  -3
  -1  -2   1 360262. 4510.71  -2
  -1   1   2 360262. 4510.71   1
   2   1   4 1197.28 339.412  -3
  -1  -2   2 1197.28 339.412  -2
  -1   1   3 1197.28 339.412   1
   2   1   5 142687. 1819.15  -3
  -1  -2   3 142687. 1819.15  -2
  -1   1   4 142687. 1819.15   1
   2   1   6 16431.3 947.692  -3
  -1  -2   4 16431.3 947.692  -2
  -1   1   5 16431.3 947.692   1
   2   1   7 38309.5 2173.78  -3
  -1  -2   5 38309.5 2173.78  -2
  -1   1   6 38309.5 2173.78   1
   2   1   8 3522.07 1236.33  -3
  -1  -2   6 3522.07 1236.33  -2
  -1   1   7 3522.07 1236.33   1
   3   1  -8 38663.8 3251.07  -3
  -2  -3 -11 38663.8 3251.07  -2
  -1   2  -9 38663.8 3251.07   1
   3   1  -7 13965.5 2236.18  -3
  -2  -3 -10 13965.5 2236.18  -2
  -1   2  -8 13965.5 2236.18   1
   3   1  -6 47095.3 2872.50  -3
  -2  -3  -9 47095.3 2872.50  -2
  -1   2  -7 47095.3 2872.50   1
   3   1  -5 2131.26 1230.36  -3
  -2  -3  -8 2131.26 1230.36  -2
  -1   2  -6 2131.26 1230.36   1
   3   1  -2 472212. 5986.01  -3
  -2  -3  -5 472212. 5986.01  -2
  -1   2  -3 472212. 5986.01   1
   3   1  -1 65266.5 1966.59  -3
  -2  -3  -4 65266.5 1966.59  -2
  -1   2  -2 65266.5 1966.59   1
   3   1   0 201046. 1521.88  -3
  -2  -3  -3 201046. 1521.88  -2
  -1   2  -1 201046. 1521.88   1
   3   1   1 53913.2 966.796  -3
  -2  -3  -2 53913.2 966.796  -2
  -1   2   0 53913.2 966.796   1
   3   1   2 19047.6 699.398  -3
  -2  -3  -1 19047.6 699.398  -2
  -1   2   1 19047.6 699.398   1
   3   1   3 242909. 1741.39  -3
  -2  -3   0 242909. 1741.39  -2
  -1   2   2 242909. 1741.39   1
   3   1   4 227716. 4136.38  -3
  -2  -3   1 227716. 4136.38  -2
  -1   2   3 227716. 4136.38   1
   3   1   5 40772.2 1277.63  -3
  -2  -3   2 40772.2 1277.63  -2
  -1   2   4 40772.2 1277.63   1
   3   1   6 149787. 3298.68  -3
  -2  -3   3 149787. 3298.68  -2
  -1   2   5 149787. 3298.68   1
   3   1   7 4417.89 1112.78  -3
  -2  -3   4 4417.89 1112.78  -2
  -1   2   6 4417.89 1112.78   1
   4   1  -7 58022.1 3539.48  -3
  -3  -4 -11 58022.1 3539.48  -2
  -1   3  -8 58022.1 3539.48   1
   4   1  -6 8003.74 1793.94  -3
  -3  -4 -10 8003.74 1793.94  -2
  -1   3  -7 8003.74 1793.94   1
   4   1  -1 62912.6 2080.61  -3
  -3  -4  -5 62912.6 2080.61  -2
  -1   3  -2 62912.6 2080.61   1
   4   1   0 8424.17 504.738  -3
  -3  -4  -4 8424.17 504.738  -2
  -1   3  -1 8424.17 504.738   1
   4   1   1 230555. 2048.45  -3
  -3  -4  -3 230555. 2048.45  -2
  -1   3   0 230555. 2048.45   1
   4   1   2 8231.70 981.754  -3
  -3  -4  -2 8231.70 981.754  -2
  -1   3   1 8231.70 981.754   1
   4   1   3 125883. 1617.31  -3
  -3  -4  -1 125883. 1617.31  -2
  -1   3   2 125883. 1617.31   1
   4   1   4 19424.3 1466.81  -3
  -3  -4   0 19424.3 1466.81  -2
  -1   3   3 19424.3 1466.81   1
   4   1   4 10464.2 475.014  -3
  -1   3   3 10464.2 475.014   1
   4   1   6 24195.0 1543.40  -3
  -3  -4   2 24195.0 1543.40  -2
  -1   3   5 24195.0 1543.40   1
   5   1  -6 22739.1 2424.82  -3
  -4  -5 -11 22739.1 2424.82  -2
  -1   4  -7 22739.1 2424.82   1
   5   1   0 93880.6 1458.88  -3
  -4  -5  -5 93880.6 1458.88  -2
  -1   4  -1 93880.6 1458.88   1
   5   1   1 28767.6 899.351  -3
  -4  -5  -4 28767.6 899.351  -2
  -1   4   0 28767.6 899.351   1
   5   1   2 381041. 4499.23  -3
  -4  -5  -3 381041. 4499.23  -2
  -1   4   1 381041. 4499.23   1
   5   1   3 13383.4 833.807  -3
  -4  -5  -2 13383.4 833.807  -2
  -1   4   2 13383.4 833.807   1
   5   1   4 126172. 1880.96  -3
  -4  -5  -1 126172. 1880.96  -2
  -1   4   3 126172. 1880.96   1
   6   1   0 16883.7 1043.01  -3
  -5  -6  -6 16883.7 1043.01  -2
  -1   5  -1 16883.7 1043.01   1
   6   1   1 59378.1 1726.55  -3
  -5  -6  -5 59378.1 1726.55  -2
  -1   5   0 59378.1 1726.55   1
   6   1   2 9282.02 1038.21  -3
  -5  -6  -4 9282.02 1038.21  -2
  -1   5   1 9282.02 1038.21   1
   6   1   4 743.893 816.838  -3
  -5  -6  -2 743.893 816.838  -2
  -1   5   3 743.893 816.838   1
   6   1   5 16109.2 719.287  -3
  -1   5   4 16109.2 719.287   1
   7   1   3 10032.3 1383.28  -3
  -1   6   2 10032.3 1383.28   1
   7   1   4 35434.6 1814.29  -3
  -6  -7  -3 35434.6 1814.29  -2
  -1   6   3 35434.6 1814.29   1
  -9   0  -5 6911.16 1994.39  -3
   9   9   4 6911.16 1994.39  -2
   0  -9  -5 6911.16 1994.39   1
  -9   0  -4 1114.00 1038.40  -3
   9   9   5 1114.00 1038.40  -2
   0  -9  -4 1114.00 1038.40   1
  -9   0  -3 106857. 3788.52  -3
   9   9   6 106857. 3788.52  -2
   0  -9  -3 106857. 3788.52   1
  -9   0  -2 2425.56 1794.39  -3
   9   9   7 2425.56 1794.39  -2
   0  -9  -2 2425.56 1794.39   1
  -9   0  -1 4895.67 1868.23  -3
   9   9   8 4895.67 1868.23  -2
   0  -9  -1 4895.67 1868.23   1
  -8   0  -6 39659.5 1837.84  -3
   8   8   2 39659.5 1837.84  -2
   0  -8  -6 39659.5 1837.84   1
  -8   0  -5 2061.55 1106.91  -3
   8   8   3 2061.55 1106.91  -2
   0  -8  -5 2061.55 1106.91   1
  -8   0  -4 25465.6 1538.04  -3
   8   8   4 25465.6 1538.04  -2
   0  -8  -4 25465.6 1538.04   1
  -8   0  -3 99.4839 859.335  -3
   8   8   5 99.4839 859.335  -2
   0  -8  -3 99.4839 859.335   1
  -8   0  -2 61634.0 1886.82  -3
   8   8   6 61634.0 1886.82  -2
   0  -8  -2 61634.0 1886.82   1
  -8   0  -1 1099.13 917.779  -3
   0  -8  -1 1099.13 917.779   1
  -8   0  -1 743.972 1419.52  -3
   8   8   7 743.972 1419.52  -2
   0  -8  -1 743.972 1419.52   1
  -8   0   0 21210.8 2209.53  -3
   8   8   8 21210.8 2209.53  -2
   0  -8   0 21210.8 2209.53   1
  -8   0   1 1936.09 1690.15  -3
   8   8   9 1936.09 1690.15  -2
   0  -8   1 1936.09 1690.15   1
  -7   0  -7 53805.0 2118.46  -3
   7   7   0 53805.0 2118.46  -2
   0  -7  -7 53805.0 2118.46   1
  -7   0  -6 1649.71 990.635  -3
   7   7   1 1649.71 990.635  -2
   0  -7  -6 1649.71 990.635   1
  -7   0  -5 68055.8 2066.25  -3
   7   7   2 68055.8 2066.25  -2
   0  -7  -5 68055.8 2066.25   1
  -7   0  -4 842.718 908.789  -3
   7   7   3 842.718 908.789  -2
   0  -7  -4 842.718 908.789   1
  -7   0  -3 5936.85 944.792  -3
   7   7   4 5936.85 944.792  -2
   0  -7  -3 5936.85 944.792   1
  -7   0  -2 1033.67 785.612  -3
   7   7   5 1033.67 785.612  -2
   0  -7  -2 1033.67 785.612   1
  -7   0  -1 121153. 2262.96  -3
   7   7   6 121153. 2262.96  -2
   0  -7  -1 121153. 2262.96   1
  -7   0   0 519.427 698.203  -3
   7   7   7 519.427 698.203  -2
   0  -7   0 519.427 698.203   1
  -7   0   1 53209.9 2744.27  -3
   7   7   8 53209.9 2744.27  -2
   0  -7   1 53209.9 2744.27   1
  -7   0   2 2901.67 1608.52  -3
   7   7   9 2901.67 1608.52  -2
   0  -7   2 2901.67 1608.52   1
  -7   0   3 23978.8 2581.67  -3
   7   7  10 23978.8 2581.67  -2
   0  -7   3 23978.8 2581.67   1
  -6   0  -8 35735.2 2680.40  -3
   6   6  -2 35735.2 2680.40  -2
   0  -6  -8 35735.2 2680.40   1
  -6   0  -7 131.916 1550.50  -3
   6   6  -1 131.916 1550.50  -2
   0  -6  -7 131.916 1550.50   1
  -6   0  -6 64846.4 3008.02  -3
   6   6   0 64846.4 3008.02  -2
   0  -6  -6 64846.4 3008.02   1
  -6   0  -5 615.251 840.957  -3
   6   6   1 615.251 840.957  -2
   0  -6  -5 615.251 840.957   1
  -6   0  -4 47318.7 1473.56  -3
   6   6   2 47318.7 1473.56  -2
   0  -6  -4 47318.7 1473.56   1
  -6   0  -3 4361.91 817.295  -3
   6   6   3 4361.91 817.295  -2
   0  -6  -3 4361.91 817.295   1
  -6   0  -2 112824. 2173.58  -3
   6   6   4 112824. 2173.58  -2
   0  -6  -2 112824. 2173.58   1
  -6   0  -1 94.2321 658.287  -3
   6   6   5 94.2321 658.287  -2
   0  -6  -1 94.2321 658.287   1
  -6   0   0 105164. 1886.28  -3
   6   6   6 105164. 1886.28  -2
   0  -6   0 105164. 1886.28   1
  -6   0   1 6855.59 672.159  -3
   6   6   7 6855.59 672.159  -2
   0  -6   1 6855.59 672.159   1
  -6   0   2 36074.7 2362.04  -3
   6   6   8 36074.7 2362.04  -2
   0  -6   2 36074.7 2362.04   1
  -6   0   3 344.700 1549.93  -3
   6   6   9 344.700 1549.93  -2
   0  -6   3 344.700 1549.93   1
  -6   0   4 34515.6 2804.10  -3
   6   6  10 34515.6 2804.10  -2
   0  -6   4 34515.6 2804.10   1
  -5   0  -7 137714. 4101.57  -3
   5   5  -2 137714. 4101.57  -2
   0  -5  -7 137714. 4101.57   1
  -5   0  -6 286.088 1207.75  -3
   5   5  -1 286.088 1207.75  -2
   0  -5  -6 286.088 1207.75   1
  -5   0  -5 989.636 1171.99  -3
   5   5   0 989.636 1171.99  -2
   0  -5  -5 989.636 1171.99   1
  -5   0  -4 4886.06 1156.56  -3
   5   5   1 4886.06 1156.56  -2
   0  -5  -4 4886.06 1156.56   1
  -5   0  -3 168088. 2515.28  -3
   5   5   2 168088. 2515.28  -2
   0  -5  -3 168088. 2515.28   1
  -5   0  -2 599.672 597.059  -3
   5   5   3 599.672 597.059  -2
   0  -5  -2 599.672 597.059   1
  -5   0  -1 251162. 2750.15  -3
   5   5   4 251162. 2750.15  -2
   0  -5  -1 251162. 2750.15   1
  -5   0   0 4089.23 597.889  -3
   5   5   5 4089.23 597.889  -2
   0  -5   0 4089.23 597.889   1
  -5   0   1 6810.01 662.426  -3
   5   5   6 6810.01 662.426  -2
   0  -5   1 6810.01 662.426   1
  -5   0   2 626.418 400.950  -3
   5   5   7 626.418 400.950  -2
   0  -5   2 626.418 400.950   1
  -5   0   3 50433.0 2573.90  -3
   5   5   8 50433.0 2573.90  -2
   0  -5   3 50433.0 2573.90   1
  -5   0   4 1285.02 1603.89  -3
   5   5   9 1285.02 1603.89  -2
   0  -5   4 1285.02 1603.89   1
  -5   0   5 131189. 4775.70  -3
   5   5  10 131189. 4775.70  -2
   0  -5   5 131189. 4775.70   1
  -4   0  -7 279.670 1075.99  -3
   4   4  -3 279.670 1075.99  -2
   0  -4  -7 279.670 1075.99   1
  -4   0  -6 45726.6 2359.31  -3
   4   4  -2 45726.6 2359.31  -2
   0  -4  -6 45726.6 2359.31   1
  -4   0  -5 2560.75 672.510  -3
   4   4  -1 2560.75 672.510  -2
   0  -4  -5 2560.75 672.510   1
  -4   0  -4 17365.7 1392.13  -3
   4   4   0 17365.7 1392.13  -2
   0  -4  -4 17365.7 1392.13   1
  -4   0  -3 2695.54 767.391  -3
   4   4   1 2695.54 767.391  -2
   0  -4  -3 2695.54 767.391   1
  -4   0  -2 256015. 2608.54  -3
   4   4   2 256015. 2608.54  -2
   0  -4  -2 256015. 2608.54   1
  -4   0  -1 2547.17 556.050  -3
   4   4   3 2547.17 556.050  -2
   0  -4  -1 2547.17 556.050   1
  -4   0   0 330136. 2866.34  -3
   4   4   4 330136. 2866.34  -2
   0  -4   0 330136. 2866.34   1
  -4   0   1 249.012 454.801  -3
   4   4   5 249.012 454.801  -2
   0  -4   1 249.012 454.801   1
  -4   0   2 9471.45 550.948  -3
   4   4   6 9471.45 550.948  -2
   0  -4   2 9471.45 550.948   1
  -4   0   3 3408.95 278.333  -3
   4   4   7 3408.95 278.333  -2
   0  -4   3 3408.95 278.333   1
  -4   0   4 173235. 4606.82  -3
   4   4   8 173235. 4606.82  -2
   0  -4   4 173235. 4606.82   1
  -4   0   5 3292.00 1718.89  -3
   4   4   9 3292.00 1718.89  -2
   0  -4   5 3292.00 1718.89   1
  -4   0   6 68180.5 3768.61  -3
   4   4  10 68180.5 3768.61  -2
   0  -4   6 68180.5 3768.61   1
  -3   0  -6 141.341 1025.90  -3
   3   3  -3 141.341 1025.90  -2
   0  -3  -6 141.341 1025.90   1
  -3   0  -5 88757.0 1989.75  -3
   3   3  -2 88757.0 1989.75  -2
   0  -3  -5 88757.0 1989.75   1
  -3   0  -4 340.990 720.897  -3
   3   3  -1 340.990 720.897  -2
   0  -3  -4 340.990 720.897   1
  -3   0  -3 176144. 3403.85  -3
   3   3   0 176144. 3403.85  -2
   0  -3  -3 176144. 3403.85   1
  -3   0  -2 5418.06 833.102  -3
   3   3   1 5418.06 833.102  -2
   0  -3  -2 5418.06 833.102   1
  -3   0  -1 325004. 2240.07  -3
   3   3   2 325004. 2240.07  -2
   0  -3  -1 325004. 2240.07   1
  -3   0   0 1558.38 396.947  -3
   3   3   3 1558.38 396.947  -2
   0  -3   0 1558.38 396.947   1
  -3   0   1 305049. 2351.07  -3
   3   3   4 305049. 2351.07  -2
   0  -3   1 305049. 2351.07   1
  -3   0   2 2137.71 262.077  -3
   3   3   5 2137.71 262.077  -2
   0  -3   2 2137.71 262.077   1
  -3   0   3 87546.3 911.649  -3
   3   3   6 87546.3 911.649  -2
   0  -3   3 87546.3 911.649   1
  -3   0   4 1963.05 233.508  -3
   3   3   7 1963.05 233.508  -2
   0  -3   4 1963.05 233.508   1
  -3   0   5 45996.5 760.106  -3
   3   3   8 45996.5 760.106  -2
   0  -3   5 45996.5 760.106   1
  -3   0   6 344.074 1573.72  -3
   3   3   9 344.074 1573.72  -2
   0  -3   6 344.074 1573.72   1
  -3   0   7 49356.8 3445.27  -3
   3   3  10 49356.8 3445.27  -2
   0  -3   7 49356.8 3445.27   1
  -2   0  -7 630.448 557.729  -3
   2   2  -5 630.448 557.729  -2
   0  -2  -7 630.448 557.729   1
  -2   0  -6 267913. 2349.57  -3
   2   2  -4 267913. 2349.57  -2
   0  -2  -6 267913. 2349.57   1
  -2   0  -5 575.577 252.776  -3
   2   2  -3 575.577 252.776  -2
   0  -2  -5 575.577 252.776   1
  -2   0  -4 180244. 2213.08  -3
   2   2  -2 180244. 2213.08  -2
   0  -2  -4 180244. 2213.08   1
  -2   0  -3 2529.09 635.322  -3
   2   2  -1 2529.09 635.322  -2
   0  -2  -3 2529.09 635.322   1
  -2   0  -2 415382. 4489.91  -3
   2   2   0 415382. 4489.91  -2
   0  -2  -2 415382. 4489.91   1
  -2   0  -1 2883.83 411.465  -3
   2   2   1 2883.83 411.465  -2
   0  -2  -1 2883.83 411.465   1
  -2   0   0 4588.40 377.078  -3
   2   2   2 4588.40 377.078  -2
   0  -2   0 4588.40 377.078   1
  -2   0   1 3292.45 266.900  -3
   2   2   3 3292.45 266.900  -2
   0  -2   1 3292.45 266.900   1
  -2   0   2 539441. 2770.95  -3
   2   2   4 539441. 2770.95  -2
   0  -2   2 539441. 2770.95   1
  -2   0   3 2545.33 363.768  -3
   2   2   5 2545.33 363.768  -2
   0  -2   3 2545.33 363.768   1
  -2   0   4 29748.1 1036.45  -3
   2   2   6 29748.1 1036.45  -2
   0  -2   4 29748.1 1036.45   1
  -2   0   5 1343.70 461.736  -3
   2   2   7 1343.70 461.736  -2
   0  -2   5 1343.70 461.736   1
  -2   0   6 142739. 1872.95  -3
   2   2   8 142739. 1872.95  -2
   0  -2   6 142739. 1872.95   1
  -2   0   7 635.906 1545.86  -3
   2   2   9 635.906 1545.86  -2
   0  -2   7 635.906 1545.86   1
  -2   0   8 38707.8 3242.78  -3
   2   2  10 38707.8 3242.78  -2
   0  -2   8 38707.8 3242.78   1
  -1   0  -7 177473. 4761.95  -3
   1   1  -6 177473. 4761.95  -2
   0  -1  -7 177473. 4761.95   1
  -1   0  -6 3448.04 764.608  -3
   1   1  -5 3448.04 764.608  -2
   0  -1  -6 3448.04 764.608   1
  -1   0  -5 123995. 1808.51  -3
   1   1  -4 123995. 1808.51  -2
   0  -1  -5 123995. 1808.51   1
  -1   0  -4 4487.06 485.984  -3
   1   1  -3 4487.06 485.984  -2
   0  -1  -4 4487.06 485.984   1
  -1   0  -3 8311.50 424.070  -3
   1   1  -2 8311.50 424.070  -2
   0  -1  -3 8311.50 424.070   1
  -1   0  -2 325.435 248.416  -3
   1   1  -1 325.435 248.416  -2
   0  -1  -2 325.435 248.416   1
  -1   0  -1 339189. 2085.49  -3
   1   1   0 339189. 2085.49  -2
   0  -1  -1 339189. 2085.49   1
  -1   0   0 1086.85 173.990  -3
   1   1   1 1086.85 173.990  -2
   0  -1   0 1086.85 173.990   1
  -1   0   1 494213. 2761.85  -3
   1   1   2 494213. 2761.85  -2
   0  -1   1 494213. 2761.85   1
  -1   0   2 1795.28 727.716  -3
   1   1   3 1795.28 727.716  -2
   0  -1   2 1795.28 727.716   1
  -1   0   3 99170.4 1015.43  -3
   1   1   4 99170.4 1015.43  -2
   0  -1   3 99170.4 1015.43   1
  -1   0   4 1499.85 393.550  -3
   1   1   5 1499.85 393.550  -2
   0  -1   4 1499.85 393.550   1
  -1   0   5 250216. 2405.31  -3
   1   1   6 250216. 2405.31  -2
   0  -1   5 250216. 2405.31   1
  -1   0   6 2414.11 585.986  -3
   1   1   7 2414.11 585.986  -2
   0  -1   6 2414.11 585.986   1
  -1   0   7 78711.0 2513.02  -3
   1   1   8 78711.0 2513.02  -2
   0  -1   7 78711.0 2513.02   1
  -1   0   8 216.122 1189.15  -3
   1   1   9 216.122 1189.15  -2
   0  -1   8 216.122 1189.15   1
  -1   0   9 7989.35 2151.10  -3
   1   1  10 7989.35 2151.10  -2
   0  -1   9 7989.35 2151.10   1
   0   0  -9-628.597 896.705  -3
   0   0  -9-628.597 896.705  -2
   0   0  -9-628.597 896.705   1
   0   0  -8 86864.9 2444.48  -3
   0   0  -8 86864.9 2444.48  -2
   0   0  -8 86864.9 2444.48   1
   0   0  -7 61.7147 732.181  -3
   0   0  -7 61.7147 732.181  -2
   0   0  -7 61.7147 732.181   1
   0   0  -6 147874. 2602.82  -3
   0   0  -6 147874. 2602.82  -2
   0   0  -6 147874. 2602.82   1
   0   0  -5-222.698 446.275  -3
   0   0  -5-222.698 446.275  -2
   0   0  -5-222.698 446.275   1
   0   0  -4 71702.0 1070.76  -3
   0   0  -4 71702.0 1070.76  -2
   0   0  -4 71702.0 1070.76   1
   0   0  -3-7.40228 287.400  -3
   0   0  -3-7.40228 287.400  -2
   0   0  -3-7.40228 287.400   1
   0   0  -2 10731.6 368.686  -3
   0   0  -2 10731.6 368.686  -2
   0   0  -2 10731.6 368.686   1
   0   0  -1 40.9213 170.538  -3
   0   0  -1 40.9213 170.538  -2
   0   0  -1 40.9213 170.538   1
   0   0   1 72.1622 97.5462  -3
   0   0   1 72.1622 97.5462  -2
   0   0   1 72.1622 97.5462   1
   0   0   2 9191.66 335.177  -3
   0   0   2 9191.66 335.177  -2
   0   0   2 9191.66 335.177   1
   0   0   3-14.1218 268.314  -3
   0   0   3-14.1218 268.314  -2
   0   0   3-14.1218 268.314   1
   0   0   4 69886.6 1038.66  -3
   0   0   4 69886.6 1038.66  -2
   0   0   4 69886.6 1038.66   1
   0   0   5 140.498 384.769  -3
   0   0   5 140.498 384.769  -2
   0   0   5 140.498 384.769   1
   0   0   6 144845. 1896.67  -3
   0   0   6 144845. 1896.67  -2
   0   0   6 144845. 1896.67   1
   0   0   7-321.188 800.867  -3
   0   0   7-321.188 800.867  -2
   0   0   7-321.188 800.867   1
   0   0   8 77586.0 2493.92  -3
   0   0   8 77586.0 2493.92  -2
   0   0   8 77586.0 2493.92   1
   0   0   9 221.046 1054.21  -3
   0   0   9 221.046 1054.21  -2
   0   0   9 221.046 1054.21   1
   1   0  -9 6834.94 1891.34  -3
  -1  -1 -10 6834.94 1891.34  -2
   0   1  -9 6834.94 1891.34   1
   1   0  -8 17.8788 1375.17  -3
  -1  -1  -9 17.8788 1375.17  -2
   0   1  -8 17.8788 1375.17   1
   1   0  -7 82464.7 2322.93  -3
  -1  -1  -8 82464.7 2322.93  -2
   0   1  -7 82464.7 2322.93   1
   1   0  -6 2820.99 1165.53  -3
  -1  -1  -7 2820.99 1165.53  -2
   0   1  -6 2820.99 1165.53   1
   1   0  -5 255559. 3378.00  -3
  -1  -1  -6 255559. 3378.00  -2
   0   1  -5 255559. 3378.00   1
   1   0  -4 1168.87 467.305  -3
  -1  -1  -5 1168.87 467.305  -2
   0   1  -4 1168.87 467.305   1
   1   0  -3 95243.8 1734.78  -3
  -1  -1  -4 95243.8 1734.78  -2
   0   1  -3 95243.8 1734.78   1
   1   0  -2 1244.14 677.975  -3
  -1  -1  -3 1244.14 677.975  -2
   0   1  -2 1244.14 677.975   1
   1   0  -1 541630. 4558.28  -3
  -1  -1  -2 541630. 4558.28  -2
   0   1  -1 541630. 4558.28   1
   1   0   0 1699.67 380.090  -3
  -1  -1  -1 1699.67 380.090  -2
   0   1   0 1699.67 380.090   1
   1   0   1 391538. 3688.59  -3
  -1  -1   0 391538. 3688.59  -2
   0   1   1 391538. 3688.59   1
   1   0   2 895.213 302.676  -3
  -1  -1   1 895.213 302.676  -2
   0   1   2 895.213 302.676   1
   1   0   3 7691.04 405.047  -3
  -1  -1   2 7691.04 405.047  -2
   0   1   3 7691.04 405.047   1
   1   0   4 4134.80 367.521  -3
  -1  -1   3 4134.80 367.521  -2
   0   1   4 4134.80 367.521   1
   1   0   5 120663. 1609.17  -3
  -1  -1   4 120663. 1609.17  -2
   0   1   5 120663. 1609.17   1
   1   0   6 3183.33 630.403  -3
  -1  -1   5 3183.33 630.403  -2
   0   1   6 3183.33 630.403   1
   1   0   7 164479. 4689.22  -3
  -1  -1   6 164479. 4689.22  -2
   0   1   7 164479. 4689.22   1
   1   0   8-190.268 1323.01  -3
  -1  -1   7-190.268 1323.01  -2
   0   1   8-190.268 1323.01   1
   2   0  -8 38441.4 2203.30  -3
  -2  -2 -10 38441.4 2203.30  -2
   0   2  -8 38441.4 2203.30   1
   2   0  -7 388.944 1348.68  -3
  -2  -2  -9 388.944 1348.68  -2
   0   2  -7 388.944 1348.68   1
   2   0  -6 116478. 2892.92  -3
  -2  -2  -8 116478. 2892.92  -2
   0   2  -6 116478. 2892.92   1
   2   0  -5 517.756 808.034  -3
  -2  -2  -7 517.756 808.034  -2
   0   2  -5 517.756 808.034   1
   2   0  -3 3808.38 1026.10  -3
  -2  -2  -5 3808.38 1026.10  -2
   0   2  -3 3808.38 1026.10   1
   2   0  -2 505913. 5767.73  -3
  -2  -2  -4 505913. 5767.73  -2
   0   2  -2 505913. 5767.73   1
   2   0  -1 2366.08 600.087  -3
  -2  -2  -3 2366.08 600.087  -2
   0   2  -1 2366.08 600.087   1
   2   0   0 4232.65 393.577  -3
  -2  -2  -2 4232.65 393.577  -2
   0   2   0 4232.65 393.577   1
   2   0   1 6021.95 605.775  -3
  -2  -2  -1 6021.95 605.775  -2
   0   2   1 6021.95 605.775   1
   2   0   2 479570. 5385.87  -3
  -2  -2   0 479570. 5385.87  -2
   0   2   2 479570. 5385.87   1
   2   0   3 7305.76 807.923  -3
  -2  -2   1 7305.76 807.923  -2
   0   2   3 7305.76 807.923   1
   2   0   4 240703. 2163.39  -3
  -2  -2   2 240703. 2163.39  -2
   0   2   4 240703. 2163.39   1
   2   0   5 274.341 544.045  -3
  -2  -2   3 274.341 544.045  -2
   0   2   5 274.341 544.045   1
   2   0   6 232495. 4854.60  -3
  -2  -2   4 232495. 4854.60  -2
   0   2   6 232495. 4854.60   1
   3   0  -8 2585.78 1712.29  -3
  -3  -3 -11 2585.78 1712.29  -2
   0   3  -8 2585.78 1712.29   1
   3   0  -7 35038.8 2335.91  -3
  -3  -3 -10 35038.8 2335.91  -2
   0   3  -7 35038.8 2335.91   1
   3   0  -6-123.142 1071.47  -3
  -3  -3  -9-123.142 1071.47  -2
   0   3  -6-123.142 1071.47   1
   3   0  -2 2418.47 980.730  -3
  -3  -3  -5 2418.47 980.730  -2
   0   3  -2 2418.47 980.730   1
   3   0  -1 310913. 2209.63  -3
  -3  -3  -4 310913. 2209.63  -2
   0   3  -1 310913. 2209.63   1
   3   0   0 1574.42 427.129  -3
  -3  -3  -3 1574.42 427.129  -2
   0   3   0 1574.42 427.129   1
   3   0   1 291079. 3337.64  -3
  -3  -3  -2 291079. 3337.64  -2
   0   3   1 291079. 3337.64   1
   3   0   2 7358.82 781.644  -3
  -3  -3  -1 7358.82 781.644  -2
   0   3   2 7358.82 781.644   1
   3   0   3 145281. 2956.24  -3
  -3  -3   0 145281. 2956.24  -2
   0   3   3 145281. 2956.24   1
   3   0   3 108221. 755.362  -3
   0   3   3 108221. 755.362   1
   3   0   4 2423.24 864.810  -3
  -3  -3   1 2423.24 864.810  -2
   0   3   4 2423.24 864.810   1
   3   0   5 140549. 3238.84  -3
  -3  -3   2 140549. 3238.84  -2
   0   3   5 140549. 3238.84   1
   4   0  -7-830.131 1586.93  -3
  -4  -4 -11-830.131 1586.93  -2
   0   4  -7-830.131 1586.93   1
   4   0  -1-3.17051 451.510  -3
  -4  -4  -5-3.17051 451.510  -2
   0   4  -1-3.17051 451.510   1
   4   0   0 347417. 2790.83  -3
  -4  -4  -4 347417. 2790.83  -2
   0   4   0 347417. 2790.83   1
   4   0   1 2306.01 589.870  -3
  -4  -4  -3 2306.01 589.870  -2
   0   4   1 2306.01 589.870   1
   4   0   2 279457. 3882.74  -3
  -4  -4  -2 279457. 3882.74  -2
   0   4   2 279457. 3882.74   1
   4   0   3 2454.82 994.052  -3
  -4  -4  -1 2454.82 994.052  -2
   0   4   3 2454.82 994.052   1
   5   0  -1 5946.54 791.839  -3
  -5  -5  -6 5946.54 791.839  -2
   0   5  -1 5946.54 791.839   1
   5   0   0 3977.60 752.764  -3
  -5  -5  -5 3977.60 752.764  -2
   0   5   0 3977.60 752.764   1
   5   0   1 263340. 3645.62  -3
  -5  -5  -4 263340. 3645.62  -2
   0   5   1 263340. 3645.62   1
   5   0   2 605.770 840.047  -3
  -5  -5  -3 605.770 840.047  -2
   0   5   2 605.770 840.047   1
   5   0   4 5867.57 539.086  -3
  -5  -5  -1 5867.57 539.086  -2
   0   5   4 5867.57 539.086   1
   6   0   0 120667. 2737.18  -3
  -6  -6  -6 120667. 2737.18  -2
   0   6   0 120667. 2737.18   1
   6   0   1 15.7668 962.522  -3
  -6  -6  -5 15.7668 962.522  -2
   0   6   1 15.7668 962.522   1
   6   0   4 69142.1 1626.46  -3
  -6  -6  -2 69142.1 1626.46  -2
   0   6   4 69142.1 1626.46   1
  -9  -1  -3 245.015 1296.24  -3
   8   9   6 245.015 1296.24  -2
   1  -8  -2 245.015 1296.24   1
  -9  -1  -2 36773.6 2430.83  -3
   8   9   7 36773.6 2430.83  -2
   1  -8  -1 36773.6 2430.83   1
  -9  -1  -1 1333.39 1503.18  -3
   8   9   8 1333.39 1503.18  -2
   1  -8   0 1333.39 1503.18   1
  -9  -1   0 20743.4 2441.03  -3
   8   9   9 20743.4 2441.03  -2
   1  -8   1 20743.4 2441.03   1
  -9  -1   1 636.134 1544.26  -3
   1  -8   2 636.134 1544.26   1
  -8  -1  -6 1381.42 1140.24  -3
   7   8   2 1381.42 1140.24  -2
   1  -7  -5 1381.42 1140.24   1
  -8  -1  -5 59614.3 1869.45  -3
   7   8   3 59614.3 1869.45  -2
   1  -7  -4 59614.3 1869.45   1
  -8  -1  -4 14309.1 1139.67  -3
   7   8   4 14309.1 1139.67  -2
   1  -7  -3 14309.1 1139.67   1
  -8  -1  -3 24575.1 1291.95  -3
   7   8   5 24575.1 1291.95  -2
   1  -7  -2 24575.1 1291.95   1
  -8  -1  -2 9125.93 980.405  -3
   7   8   6 9125.93 980.405  -2
   1  -7  -1 9125.93 980.405   1
  -8  -1  -1 83603.9 2958.12  -3
   7   8   7 83603.9 2958.12  -2
   1  -7   0 83603.9 2958.12   1
  -8  -1   0 3047.87 1513.68  -3
   7   8   8 3047.87 1513.68  -2
   1  -7   1 3047.87 1513.68   1
  -8  -1   1 24167.7 2346.10  -3
   7   8   9 24167.7 2346.10  -2
   1  -7   2 24167.7 2346.10   1
  -8  -1   2 1020.85 1784.98  -3
   7   8  10 1020.85 1784.98  -2
   1  -7   3 1020.85 1784.98   1
  -7  -1  -7 4066.04 1401.11  -3
   6   7   0 4066.04 1401.11  -2
   1  -6  -6 4066.04 1401.11   1
  -7  -1  -6 122270. 2378.63  -3
   6   7   1 122270. 2378.63  -2
   1  -6  -5 122270. 2378.63   1
  -7  -1  -5 5605.73 928.287  -3
   6   7   2 5605.73 928.287  -2
   1  -6  -4 5605.73 928.287   1
  -7  -1  -4 30647.9 1326.48  -3
   6   7   3 30647.9 1326.48  -2
   1  -6  -3 30647.9 1326.48   1
  -7  -1  -3 11037.4 916.127  -3
   6   7   4 11037.4 916.127  -2
   1  -6  -2 11037.4 916.127   1
  -7  -1  -2 46184.6 1407.22  -3
   6   7   5 46184.6 1407.22  -2
   1  -6  -1 46184.6 1407.22   1
  -7  -1  -1 29647.9 1153.10  -3
   6   7   6 29647.9 1153.10  -2
   1  -6   0 29647.9 1153.10   1
  -7  -1   0 67166.2 2642.87  -3
   6   7   7 67166.2 2642.87  -2
   1  -6   1 67166.2 2642.87   1
  -7  -1   1 6972.40 1545.20  -3
   6   7   8 6972.40 1545.20  -2
   1  -6   2 6972.40 1545.20   1
  -7  -1   2 46047.7 2639.39  -3
   6   7   9 46047.7 2639.39  -2
   1  -6   3 46047.7 2639.39   1
  -7  -1   3 2132.67 1797.22  -3
   6   7  10 2132.67 1797.22  -2
   1  -6   4 2132.67 1797.22   1
  -6  -1  -6 1972.25 1227.46  -3
   5   6   0 1972.25 1227.46  -2
   1  -5  -5 1972.25 1227.46   1
  -6  -1  -5 20925.8 1112.98  -3
   5   6   1 20925.8 1112.98  -2
   1  -5  -4 20925.8 1112.98   1
  -6  -1  -4 1251.63 639.383  -3
   5   6   2 1251.63 639.383  -2
   1  -5  -3 1251.63 639.383   1
  -6  -1  -3 149726. 2177.69  -3
   5   6   3 149726. 2177.69  -2
   1  -5  -2 149726. 2177.69   1
  -6  -1  -2 7769.33 737.186  -3
   5   6   4 7769.33 737.186  -2
   1  -5  -1 7769.33 737.186   1
  -6  -1  -1 59463.6 1338.65  -3
   5   6   5 59463.6 1338.65  -2
   1  -5   0 59463.6 1338.65   1
  -6  -1   0 13236.6 744.060  -3
   5   6   6 13236.6 744.060  -2
   1  -5   1 13236.6 744.060   1
  -6  -1   1 91347.6 2739.67  -3
   5   6   7 91347.6 2739.67  -2
   1  -5   2 91347.6 2739.67   1
  -6  -1   2 6617.92 1459.72  -3
   5   6   8 6617.92 1459.72  -2
   1  -5   3 6617.92 1459.72   1
  -6  -1   3 66334.0 3174.25  -3
   5   6   9 66334.0 3174.25  -2
   1  -5   4 66334.0 3174.25   1
  -6  -1   4-125.159 1921.44  -3
   5   6  10-125.159 1921.44  -2
   1  -5   5-125.159 1921.44   1
  -5  -1  -7 757.957 973.981  -3
   4   5  -2 757.957 973.981  -2
   1  -4  -6 757.957 973.981   1
  -5  -1  -6 17051.3 968.989  -3
   4   5  -1 17051.3 968.989  -2
   1  -4  -5 17051.3 968.989   1
  -5  -1  -5 2851.16 1045.81  -3
   4   5   0 2851.16 1045.81  -2
   1  -4  -4 2851.16 1045.81   1
  -5  -1  -4 120834. 1867.78  -3
   4   5   1 120834. 1867.78  -2
   1  -4  -3 120834. 1867.78   1
  -5  -1  -3 11746.7 764.433  -3
   4   5   2 11746.7 764.433  -2
   1  -4  -2 11746.7 764.433   1
  -5  -1  -2 327895. 2814.68  -3
   4   5   3 327895. 2814.68  -2
   1  -4  -1 327895. 2814.68   1
  -5  -1  -1 24996.6 857.665  -3
   4   5   4 24996.6 857.665  -2
   1  -4   0 24996.6 857.665   1
  -5  -1   0 81976.8 1306.98  -3
   4   5   5 81976.8 1306.98  -2
   1  -4   1 81976.8 1306.98   1
  -5  -1   1 16118.4 1369.78  -3
   4   5   6 16118.4 1369.78  -2
   1  -4   2 16118.4 1369.78   1
  -5  -1   2 27374.1 1798.29  -3
   4   5   7 27374.1 1798.29  -2
   1  -4   3 27374.1 1798.29   1
  -5  -1   3 3233.07 1422.95  -3
   4   5   8 3233.07 1422.95  -2
   1  -4   4 3233.07 1422.95   1
  -5  -1   4 106802. 3834.14  -3
   4   5   9 106802. 3834.14  -2
   1  -4   5 106802. 3834.14   1
  -5  -1   5 2015.03 1906.65  -3
   4   5  10 2015.03 1906.65  -2
   1  -4   6 2015.03 1906.65   1
  -4  -1  -7 88346.4 2872.37  -3
   3   4  -3 88346.4 2872.37  -2
   1  -3  -6 88346.4 2872.37   1
  -4  -1  -6 22296.6 1347.99  -3
   3   4  -2 22296.6 1347.99  -2
   1  -3  -5 22296.6 1347.99   1
  -4  -1  -5 177892. 2241.80  -3
   3   4  -1 177892. 2241.80  -2
   1  -3  -4 177892. 2241.80   1
  -4  -1  -4 17291.0 1303.16  -3
   3   4   0 17291.0 1303.16  -2
   1  -3  -3 17291.0 1303.16   1
  -4  -1  -3 113827. 1615.77  -3
   3   4   1 113827. 1615.77  -2
   1  -3  -2 113827. 1615.77   1
  -4  -1  -2 6070.44 546.674  -3
   3   4   2 6070.44 546.674  -2
   1  -3  -1 6070.44 546.674   1
  -4  -1  -1 188553. 1868.36  -3
   3   4   3 188553. 1868.36  -2
   1  -3   0 188553. 1868.36   1
  -4  -1   0 7041.78 476.163  -3
   3   4   4 7041.78 476.163  -2
   1  -3   1 7041.78 476.163   1
  -4  -1   1 56022.1 1978.50  -3
   3   4   5 56022.1 1978.50  -2
   1  -3   2 56022.1 1978.50   1
  -4  -1   2 3682.13 1134.67  -3
   3   4   6 3682.13 1134.67  -2
   1  -3   3 3682.13 1134.67   1
  -4  -1   3 105433. 3379.60  -3
   3   4   7 105433. 3379.60  -2
   1  -3   4 105433. 3379.60   1
  -4  -1   4 12168.2 1800.59  -3
   3   4   8 12168.2 1800.59  -2
   1  -3   5 12168.2 1800.59   1
  -4  -1   5 78074.5 3629.12  -3
   3   4   9 78074.5 3629.12  -2
   1  -3   6 78074.5 3629.12   1
  -4  -1   6 3493.52 1887.59  -3
   3   4  10 3493.52 1887.59  -2
   1  -3   7 3493.52 1887.59   1
  -3  -1  -7 5430.97 572.486  -3
   2   3  -4 5430.97 572.486  -2
   1  -2  -6 5430.97 572.486   1
  -3  -1  -6 153679. 1498.90  -3
   2   3  -3 153679. 1498.90  -2
   1  -2  -5 153679. 1498.90   1
  -3  -1  -5 40426.3 618.345  -3
   2   3  -2 40426.3 618.345  -2
   1  -2  -4 40426.3 618.345   1
  -3  -1  -4 207136. 2222.08  -3
   2   3  -1 207136. 2222.08  -2
   1  -2  -3 207136. 2222.08   1
  -3  -1  -3 220841. 3559.78  -3
   2   3   0 220841. 3559.78  -2
   1  -2  -2 220841. 3559.78   1
  -3  -1  -2 17429.6 583.008  -3
   2   3   1 17429.6 583.008  -2
   1  -2  -1 17429.6 583.008   1
  -3  -1  -1 47388.4 885.127  -3
   2   3   2 47388.4 885.127  -2
   1  -2   0 47388.4 885.127   1
  -3  -1   0 188192. 2821.96  -3
   2   3   3 188192. 2821.96  -2
   1  -2   1 188192. 2821.96   1
  -3  -1   1 62677.6 1886.36  -3
   2   3   4 62677.6 1886.36  -2
   1  -2   2 62677.6 1886.36   1
  -3  -1   2 477642. 5937.45  -3
   2   3   5 477642. 5937.45  -2
   1  -2   3 477642. 5937.45   1
  -3  -1   3 40218.6 2243.50  -3
   2   3   6 40218.6 2243.50  -2
   1  -2   4 40218.6 2243.50   1
  -3  -1   4 75311.7 3253.73  -3
   2   3   7 75311.7 3253.73  -2
   1  -2   5 75311.7 3253.73   1
  -3  -1   5 3877.40 1268.66  -3
   2   3   8 3877.40 1268.66  -2
   1  -2   6 3877.40 1268.66   1
  -3  -1   6 40376.5 2907.09  -3
   2   3   9 40376.5 2907.09  -2
   1  -2   7 40376.5 2907.09   1
  -3  -1   7 15271.5 2280.77  -3
   2   3  10 15271.5 2280.77  -2
   1  -2   8 15271.5 2280.77   1
  -2  -1  -6 16593.1 1479.65  -3
   1   2  -4 16593.1 1479.65  -2
   1  -1  -5 16593.1 1479.65   1
  -2  -1  -5 153528. 3352.21  -3
   1   2  -3 153528. 3352.21  -2
   1  -1  -4 153528. 3352.21   1
  -2  -1  -4 1579.15 633.722  -3
   1   2  -2 1579.15 633.722  -2
   1  -1  -3 1579.15 633.722   1
  -2  -1  -3 430529. 2281.71  -3
   1   2  -1 430529. 2281.71  -2
   1  -1  -2 430529. 2281.71   1
  -2  -1  -2 171902. 1907.70  -3
   1   2   0 171902. 1907.70  -2
   1  -1  -1 171902. 1907.70   1
  -2  -1  -1 351603. 2271.12  -3
   1   2   1 351603. 2271.12  -2
   1  -1   0 351603. 2271.12   1
  -2  -1   0 153451. 2287.36  -3
   1   2   2 153451. 2287.36  -2
   1  -1   1 153451. 2287.36   1
  -2  -1   1 423365. 4662.31  -3
   1   2   3 423365. 4662.31  -2
   1  -1   2 423365. 4662.31   1
  -2  -1   2 1426.77 828.434  -3
   1   2   4 1426.77 828.434  -2
   1  -1   3 1426.77 828.434   1
  -2  -1   3 156922. 1728.33  -3
   1   2   5 156922. 1728.33  -2
   1  -1   4 156922. 1728.33   1
  -2  -1   4 19005.8 840.372  -3
   1   2   6 19005.8 840.372  -2
   1  -1   5 19005.8 840.372   1
  -2  -1   5 44010.1 1462.45  -3
   1   2   7 44010.1 1462.45  -2
   1  -1   6 44010.1 1462.45   1
  -2  -1   6 3875.87 1535.29  -3
   1   2   8 3875.87 1535.29  -2
   1  -1   7 3875.87 1535.29   1
  -2  -1   7 34014.9 2944.33  -3
   1   2   9 34014.9 2944.33  -2
   1  -1   8 34014.9 2944.33   1
  -2  -1   8 2911.69 1870.02  -3
   1   2  10 2911.69 1870.02  -2
   1  -1   9 2911.69 1870.02   1
  -1  -1  -8 87130.9 2095.06  -3
   0   1  -7 87130.9 2095.06  -2
   1   0  -7 87130.9 2095.06   1
  -1  -1  -7 2727.84 700.207  -3
   0   1  -6 2727.84 700.207  -2
   1   0  -6 2727.84 700.207   1
  -1  -1  -6 247049. 2121.56  -3
   0   1  -5 247049. 2121.56  -2
   1   0  -5 247049. 2121.56   1
  -1  -1  -5 1380.71 354.629  -3
   0   1  -4 1380.71 354.629  -2
   1   0  -4 1380.71 354.629   1
  -1  -1  -4 98044.9 1020.82  -3
   0   1  -3 98044.9 1020.82  -2
   1   0  -3 98044.9 1020.82   1
  -1  -1  -3 1957.72 241.164  -3
   0   1  -2 1957.72 241.164  -2
   1   0  -2 1957.72 241.164   1
  -1  -1  -2 516012. 2029.83  -3
   0   1  -1 516012. 2029.83  -2
   1   0  -1 516012. 2029.83   1
  -1  -1  -1 1057.40 322.798  -3
   0   1   0 1057.40 322.798  -2
   1   0   0 1057.40 322.798   1
  -1  -1   0 415677. 1457.74  -3
   0   1   1 415677. 1457.74  -2
   1   0   1 415677. 1457.74   1
  -1  -1   1 655.122 250.842  -3
   0   1   2 655.122 250.842  -2
   1   0   2 655.122 250.842   1
  -1  -1   2 8554.84 477.543  -3
   0   1   3 8554.84 477.543  -2
   1   0   3 8554.84 477.543   1
  -1  -1   3 4777.96 498.933  -3
   0   1   4 4777.96 498.933  -2
   1   0   4 4777.96 498.933   1
  -1  -1   4 127082. 1853.28  -3
   0   1   5 127082. 1853.28  -2
   1   0   5 127082. 1853.28   1
  -1  -1   5 3652.10 644.167  -3
   0   1   6 3652.10 644.167  -2
   1   0   6 3652.10 644.167   1
  -1  -1   6 192476. 2770.76  -3
   0   1   7 192476. 2770.76  -2
   1   0   7 192476. 2770.76   1
  -1  -1   7 301.581 1016.98  -3
   0   1   8 301.581 1016.98  -2
   1   0   8 301.581 1016.98   1
  -1  -1   8 38774.0 2118.94  -3
   0   1   9 38774.0 2118.94  -2
   1   0   9 38774.0 2118.94   1
   0  -1  -9 35704.1 2626.20  -3
  -1   0  -9 35704.1 2626.20  -2
   1   1  -8 35704.1 2626.20   1
   0  -1  -8 221.864 798.344  -3
  -1   0  -8 221.864 798.344  -2
   1   1  -7 221.864 798.344   1
   0  -1  -7 187726. 4631.63  -3
  -1   0  -7 187726. 4631.63  -2
   1   1  -6 187726. 4631.63   1
   0  -1  -6 3718.04 669.925  -3
  -1   0  -6 3718.04 669.925  -2
   1   1  -5 3718.04 669.925   1
   0  -1  -5 120570. 2273.88  -3
  -1   0  -5 120570. 2273.88  -2
   1   1  -4 120570. 2273.88   1
   0  -1  -4 3835.43 420.543  -3
  -1   0  -4 3835.43 420.543  -2
   1   1  -3 3835.43 420.543   1
   0  -1  -3 8673.36 653.546  -3
  -1   0  -3 8673.36 653.546  -2
   1   1  -2 8673.36 653.546   1
   0  -1  -2 609.602 531.402  -3
  -1   0  -2 609.602 531.402  -2
   1   1  -1 609.602 531.402   1
   0  -1  -1 426190. 3232.03  -3
  -1   0  -1 426190. 3232.03  -2
   1   1   0 426190. 3232.03   1
   0  -1   0 847.419 208.389  -3
  -1   0   0 847.419 208.389  -2
   1   1   1 847.419 208.389   1
   0  -1   1 478897. 1464.99  -3
  -1   0   1 478897. 1464.99  -2
   1   1   2 478897. 1464.99   1
   0  -1   2 1867.00 277.330  -3
  -1   0   2 1867.00 277.330  -2
   1   1   3 1867.00 277.330   1
   0  -1   3 96425.2 1072.29  -3
  -1   0   3 96425.2 1072.29  -2
   1   1   4 96425.2 1072.29   1
   0  -1   4 1403.21 327.498  -3
  -1   0   4 1403.21 327.498  -2
   1   1   5 1403.21 327.498   1
   0  -1   5 260645. 2763.65  -3
  -1   0   5 260645. 2763.65  -2
   1   1   6 260645. 2763.65   1
   0  -1   6 2432.04 652.500  -3
  -1   0   6 2432.04 652.500  -2
   1   1   7 2432.04 652.500   1
   0  -1   7 74122.3 3555.08  -3
  -1   0   7 74122.3 3555.08  -2
   1   1   8 74122.3 3555.08   1
   1  -1  -8 40261.5 2599.38  -3
  -2  -1  -9 40261.5 2599.38  -2
   1   2  -7 40261.5 2599.38   1
   1  -1  -7 4061.88 1244.29  -3
  -2  -1  -8 4061.88 1244.29  -2
   1   2  -6 4061.88 1244.29   1
   1  -1  -6 42280.2 2162.85  -3
  -2  -1  -7 42280.2 2162.85  -2
   1   2  -5 42280.2 2162.85   1
   1  -1  -5 17818.9 1359.27  -3
  -2  -1  -6 17818.9 1359.27  -2
   1   2  -4 17818.9 1359.27   1
   1  -1  -4 149018. 3740.29  -3
  -2  -1  -5 149018. 3740.29  -2
   1   2  -3 149018. 3740.29   1
   1  -1  -3 794.245 720.659  -3
  -2  -1  -4 794.245 720.659  -2
   1   2  -2 794.245 720.659   1
   1  -1  -2 456281. 5095.63  -3
  -2  -1  -3 456281. 5095.63  -2
   1   2  -1 456281. 5095.63   1
   1  -1  -1 178010. 2632.95  -3
  -2  -1  -2 178010. 2632.95  -2
   1   2   0 178010. 2632.95   1
   1  -1   0 378495. 3569.62  -3
  -2  -1  -1 378495. 3569.62  -2
   1   2   1 378495. 3569.62   1
   1  -1   1 156276. 2446.72  -3
  -2  -1   0 156276. 2446.72  -2
   1   2   2 156276. 2446.72   1
   1  -1   2 434384. 2138.51  -3
  -2  -1   1 434384. 2138.51  -2
   1   2   3 434384. 2138.51   1
   1  -1   3 1263.06 562.339  -3
  -2  -1   2 1263.06 562.339  -2
   1   2   4 1263.06 562.339   1
   1  -1   4 159037. 2737.80  -3
  -2  -1   3 159037. 2737.80  -2
   1   2   5 159037. 2737.80   1
   1  -1   5 16680.4 1161.98  -3
  -2  -1   4 16680.4 1161.98  -2
   1   2   6 16680.4 1161.98   1
   2  -1  -8 15477.7 1933.61  -3
  -3  -2 -10 15477.7 1933.61  -2
   1   3  -7 15477.7 1933.61   1
   2  -1  -7 43830.3 2487.55  -3
  -3  -2  -9 43830.3 2487.55  -2
   1   3  -6 43830.3 2487.55   1
   2  -1  -3 470212. 6522.48  -3
  -3  -2  -5 470212. 6522.48  -2
   1   3  -2 470212. 6522.48   1
   2  -1  -2 68948.7 2365.38  -3
  -3  -2  -4 68948.7 2365.38  -2
   1   3  -1 68948.7 2365.38   1
   2  -1  -1 208003. 1977.33  -3
  -3  -2  -3 208003. 1977.33  -2
   1   3   0 208003. 1977.33   1
   2  -1   0 51534.2 1615.07  -3
  -3  -2  -2 51534.2 1615.07  -2
   1   3   1 51534.2 1615.07   1
   2  -1   1 15959.9 1026.89  -3
  -3  -2  -1 15959.9 1026.89  -2
   1   3   2 15959.9 1026.89   1
   2  -1   2 218478. 3731.12  -3
  -3  -2   0 218478. 3731.12  -2
   1   3   3 218478. 3731.12   1
   2  -1   3 238127. 2913.49  -3
  -3  -2   1 238127. 2913.49  -2
   1   3   4 238127. 2913.49   1
   2  -1   4 45026.7 1526.88  -3
  -3  -2   2 45026.7 1526.88  -2
   1   3   5 45026.7 1526.88   1
   3  -1  -7 6062.21 1616.55  -3
  -4  -3 -10 6062.21 1616.55  -2
   1   4  -6 6062.21 1616.55   1
   3  -1  -2 64340.7 2688.60  -3
  -4  -3  -5 64340.7 2688.60  -2
   1   4  -1 64340.7 2688.60   1
   3  -1  -1 7643.32 651.508  -3
  -4  -3  -4 7643.32 651.508  -2
   1   4   0 7643.32 651.508   1
   3  -1   0 228392. 3217.23  -3
  -4  -3  -3 228392. 3217.23  -2
   1   4   1 228392. 3217.23   1
   3  -1   1 4993.03 832.510  -3
  -4  -3  -2 4993.03 832.510  -2
   1   4   2 4993.03 832.510   1
   3  -1   2 102758. 2650.74  -3
  -4  -3  -1 102758. 2650.74  -2
   1   4   3 102758. 2650.74   1
   3  -1   3 18205.0 1389.78  -3
  -4  -3   0 18205.0 1389.78  -2
   1   4   4 18205.0 1389.78   1
   3  -1   3 10865.4 449.007  -3
   1   4   4 10865.4 449.007   1
   4  -1  -1 86144.7 2095.48  -3
  -5  -4  -5 86144.7 2095.48  -2
   1   5   0 86144.7 2095.48   1
   4  -1   0 29033.8 1458.90  -3
  -5  -4  -4 29033.8 1458.90  -2
   1   5   1 29033.8 1458.90   1
   4  -1   1 351585. 4515.51  -3
  -5  -4  -3 351585. 4515.51  -2
   1   5   2 351585. 4515.51   1
   4  -1   2 10576.3 1167.11  -3
  -5  -4  -2 10576.3 1167.11  -2
   1   5   3 10576.3 1167.11   1
   5  -1  -1 13180.3 1164.87  -3
  -6  -5  -6 13180.3 1164.87  -2
   1   6   0 13180.3 1164.87   1
   5  -1   0 72391.1 2312.76  -3
  -6  -5  -5 72391.1 2312.76  -2
   1   6   1 72391.1 2312.76   1
   5  -1   1 8614.59 1213.77  -3
  -6  -5  -4 8614.59 1213.77  -2
   1   6   2 8614.59 1213.77   1
  -9  -2  -3 11599.7 1399.40  -3
   7   9   6 11599.7 1399.40  -2
   2  -7  -1 11599.7 1399.40   1
  -9  -2  -2 2018.78 1231.31  -3
   7   9   7 2018.78 1231.31  -2
   2  -7   0 2018.78 1231.31   1
  -9  -2  -1 55745.6 2704.82  -3
   7   9   8 55745.6 2704.82  -2
   2  -7   1 55745.6 2704.82   1
  -9  -2   0-780.382 1697.86  -3
   7   9   9-780.382 1697.86  -2
   2  -7   2-780.382 1697.86   1
  -9  -2   1 21052.5 2524.33  -3
   7   9  10 21052.5 2524.33  -2
   2  -7   3 21052.5 2524.33   1
  -8  -2  -5 26459.0 1469.80  -3
   6   8   3 26459.0 1469.80  -2
   2  -6  -3 26459.0 1469.80   1
  -8  -2  -4 37703.7 1766.88  -3
   6   8   4 37703.7 1766.88  -2
   2  -6  -2 37703.7 1766.88   1
  -8  -2  -3 11674.7 1311.54  -3
   6   8   5 11674.7 1311.54  -2
   2  -6  -1 11674.7 1311.54   1
  -8  -2  -2 28425.8 1689.72  -3
   6   8   6 28425.8 1689.72  -2
   2  -6   0 28425.8 1689.72   1
  -8  -2  -1 3884.70 1263.77  -3
   6   8   7 3884.70 1263.77  -2
   2  -6   1 3884.70 1263.77   1
  -8  -2   0 94990.9 3260.01  -3
   6   8   8 94990.9 3260.01  -2
   2  -6   2 94990.9 3260.01   1
  -8  -2   1 8543.85 1930.76  -3
   6   8   9 8543.85 1930.76  -2
   2  -6   3 8543.85 1930.76   1
  -8  -2   2 31644.4 2699.42  -3
   6   8  10 31644.4 2699.42  -2
   2  -6   4 31644.4 2699.42   1
  -7  -2  -7 64632.6 2130.65  -3
   5   7   0 64632.6 2130.65  -2
   2  -5  -5 64632.6 2130.65   1
  -7  -2  -6 2586.21 935.627  -3
   5   7   1 2586.21 935.627  -2
   2  -5  -4 2586.21 935.627   1
  -7  -2  -5 110822. 2513.12  -3
   5   7   2 110822. 2513.12  -2
   2  -5  -3 110822. 2513.12   1
  -7  -2  -4 2003.29 793.051  -3
   5   7   3 2003.29 793.051  -2
   2  -5  -2 2003.29 793.051   1
  -7  -2  -3 68578.3 2066.26  -3
   5   7   4 68578.3 2066.26  -2
   2  -5  -1 68578.3 2066.26   1
  -7  -2  -2 1246.29 864.249  -3
   5   7   5 1246.29 864.249  -2
   2  -5   0 1246.29 864.249   1
  -7  -2  -1 50114.8 2049.88  -3
   5   7   6 50114.8 2049.88  -2
   2  -5   1 50114.8 2049.88   1
  -7  -2   0 3383.83 1280.44  -3
   5   7   7 3383.83 1280.44  -2
   2  -5   2 3383.83 1280.44   1
  -7  -2   1 101531. 3351.09  -3
   5   7   8 101531. 3351.09  -2
   2  -5   3 101531. 3351.09   1
  -7  -2   2 5898.97 1752.33  -3
   5   7   9 5898.97 1752.33  -2
   2  -5   4 5898.97 1752.33   1
  -7  -2   3 16063.4 2267.87  -3
   5   7  10 16063.4 2267.87  -2
   2  -5   5 16063.4 2267.87   1
  -6  -2  -7 12609.7 1124.21  -3
   4   6  -1 12609.7 1124.21  -2
   2  -4  -5 12609.7 1124.21   1
  -6  -2  -6 106008. 2139.29  -3
   4   6   0 106008. 2139.29  -2
   2  -4  -4 106008. 2139.29   1
  -6  -2  -5 27704.1 1284.75  -3
   4   6   1 27704.1 1284.75  -2
   2  -4  -3 27704.1 1284.75   1
  -6  -2  -4 158600. 2702.21  -3
   4   6   2 158600. 2702.21  -2
   2  -4  -2 158600. 2702.21   1
  -6  -2  -3 4950.89 788.439  -3
   4   6   3 4950.89 788.439  -2
   2  -4  -1 4950.89 788.439   1
  -6  -2  -2 32999.3 1387.38  -3
   4   6   4 32999.3 1387.38  -2
   2  -4   0 32999.3 1387.38   1
  -6  -2  -1 6081.69 968.661  -3
   4   6   5 6081.69 968.661  -2
   2  -4   1 6081.69 968.661   1
  -6  -2   0 81459.1 2565.17  -3
   4   6   6 81459.1 2565.17  -2
   2  -4   2 81459.1 2565.17   1
  -6  -2   1 2766.01 1199.44  -3
   4   6   7 2766.01 1199.44  -2
   2  -4   3 2766.01 1199.44   1
  -6  -2   2 87015.3 3092.07  -3
   4   6   8 87015.3 3092.07  -2
   2  -4   4 87015.3 3092.07   1
  -6  -2   3 2643.25 1664.09  -3
   4   6   9 2643.25 1664.09  -2
   2  -4   5 2643.25 1664.09   1
  -6  -2   4 40205.3 2841.00  -3
   4   6  10 40205.3 2841.00  -2
   2  -4   6 40205.3 2841.00   1
  -5  -2  -7 69321.6 2099.27  -3
   3   5  -2 69321.6 2099.27  -2
   2  -3  -5 69321.6 2099.27   1
  -5  -2  -6 3376.67 742.854  -3
   3   5  -1 3376.67 742.854  -2
   2  -3  -4 3376.67 742.854   1
  -5  -2  -5 121132. 1958.56  -3
   3   5   0 121132. 1958.56  -2
   2  -3  -3 121132. 1958.56   1
  -5  -2  -4 5899.35 696.873  -3
   3   5   1 5899.35 696.873  -2
   2  -3  -2 5899.35 696.873   1
  -5  -2  -3 67484.5 1446.58  -3
   3   5   2 67484.5 1446.58  -2
   2  -3  -1 67484.5 1446.58   1
  -5  -2  -2 2022.87 584.569  -3
   3   5   3 2022.87 584.569  -2
   2  -3   0 2022.87 584.569   1
  -5  -2  -1 108892. 2280.89  -3
   3   5   4 108892. 2280.89  -2
   2  -3   1 108892. 2280.89   1
  -5  -2   0 8569.08 1057.91  -3
   3   5   5 8569.08 1057.91  -2
   2  -3   2 8569.08 1057.91   1
  -5  -2   1 189662. 3823.48  -3
   3   5   6 189662. 3823.48  -2
   2  -3   3 189662. 3823.48   1
  -5  -2   2 14933.5 1606.48  -3
   3   5   7 14933.5 1606.48  -2
   2  -3   4 14933.5 1606.48   1
  -5  -2   3 81949.2 3231.67  -3
   3   5   8 81949.2 3231.67  -2
   2  -3   5 81949.2 3231.67   1
  -5  -2   4 3595.45 1650.28  -3
   3   5   9 3595.45 1650.28  -2
   2  -3   6 3595.45 1650.28   1
  -5  -2   5 32359.6 2746.17  -3
   3   5  10 32359.6 2746.17  -2
   2  -3   7 32359.6 2746.17   1
  -4  -2  -8 9723.58 655.772  -3
   2   4  -4 9723.58 655.772  -2
   2  -2  -6 9723.58 655.772   1
  -4  -2  -7 22872.9 756.918  -3
   2   4  -3 22872.9 756.918  -2
   2  -2  -5 22872.9 756.918   1
  -4  -2  -6 233663. 2039.07  -3
   2   4  -2 233663. 2039.07  -2
   2  -2  -4 233663. 2039.07   1
  -4  -2  -5 3247.24 432.707  -3
   2   4  -1 3247.24 432.707  -2
   2  -2  -3 3247.24 432.707   1
  -4  -2  -4 153513. 1709.13  -3
   2   4   0 153513. 1709.13  -2
   2  -2  -2 153513. 1709.13   1
  -4  -2  -3 41075.6 826.494  -3
   2   4   1 41075.6 826.494  -2
   2  -2  -1 41075.6 826.494   1
  -4  -2  -2 191969. 2204.12  -3
   2   4   2 191969. 2204.12  -2
   2  -2   0 191969. 2204.12   1
  -4  -2  -1 39924.7 1310.06  -3
   2   4   3 39924.7 1310.06  -2
   2  -2   1 39924.7 1310.06   1
  -4  -2   0 173321. 3096.13  -3
   2   4   4 173321. 3096.13  -2
   2  -2   2 173321. 3096.13   1
  -4  -2   1 2690.55 943.361  -3
   2   4   5 2690.55 943.361  -2
   2  -2   3 2690.55 943.361   1
  -4  -2   2 218193. 4443.79  -3
   2   4   6 218193. 4443.79  -2
   2  -2   4 218193. 4443.79   1
  -4  -2   3 21848.4 1948.41  -3
   2   4   7 21848.4 1948.41  -2
   2  -2   5 21848.4 1948.41   1
  -4  -2   4 9202.69 1648.66  -3
   2   4   8 9202.69 1648.66  -2
   2  -2   6 9202.69 1648.66   1
  -4  -2   5 6199.11 1746.82  -3
   2   4   9 6199.11 1746.82  -2
   2  -2   7 6199.11 1746.82   1
  -4  -2   6 51785.5 3398.44  -3
   2   4  10 51785.5 3398.44  -2
   2  -2   8 51785.5 3398.44   1
  -3  -2  -7 67621.4 2394.15  -3
   1   3  -4 67621.4 2394.15  -2
   2  -1  -5 67621.4 2394.15   1
  -3  -2  -6 36902.1 1063.44  -3
   1   3  -3 36902.1 1063.44  -2
   2  -1  -4 36902.1 1063.44   1
  -3  -2  -5 470498. 3056.27  -3
   1   3  -2 470498. 3056.27  -2
   2  -1  -3 470498. 3056.27   1
  -3  -2  -4 68848.9 1018.50  -3
   1   3  -1 68848.9 1018.50  -2
   2  -1  -2 68848.9 1018.50   1
  -3  -2  -3 212262. 2743.16  -3
   1   3   0 212262. 2743.16  -2
   2  -1  -1 212262. 2743.16   1
  -3  -2  -2 61424.8 1894.86  -3
   1   3   1 61424.8 1894.86  -2
   2  -1   0 61424.8 1894.86   1
  -3  -2  -1 18495.4 849.313  -3
   1   3   2 18495.4 849.313  -2
   2  -1   1 18495.4 849.313   1
  -3  -2   0 257261. 3537.18  -3
   1   3   3 257261. 3537.18  -2
   2  -1   2 257261. 3537.18   1
  -3  -2   1 226576. 3880.01  -3
   1   3   4 226576. 3880.01  -2
   2  -1   3 226576. 3880.01   1
  -3  -2   2 39763.9 1967.39  -3
   1   3   5 39763.9 1967.39  -2
   2  -1   4 39763.9 1967.39   1
  -3  -2   3 131869. 3774.17  -3
   1   3   6 131869. 3774.17  -2
   2  -1   5 131869. 3774.17   1
  -3  -2   4 4449.96 1331.52  -3
   1   3   7 4449.96 1331.52  -2
   2  -1   6 4449.96 1331.52   1
  -3  -2   5 36261.2 2631.52  -3
   1   3   8 36261.2 2631.52  -2
   2  -1   7 36261.2 2631.52   1
  -3  -2   6 8751.77 1892.68  -3
   1   3   9 8751.77 1892.68  -2
   2  -1   8 8751.77 1892.68   1
  -3  -2   7 56291.8 3697.52  -3
   1   3  10 56291.8 3697.52  -2
   2  -1   9 56291.8 3697.52   1
  -2  -2  -7 1557.61 793.196  -3
   0   2  -5 1557.61 793.196  -2
   2   0  -5 1557.61 793.196   1
  -2  -2  -6 40296.5 1261.55  -3
   0   2  -4 40296.5 1261.55  -2
   2   0  -4 40296.5 1261.55   1
  -2  -2  -5 3975.01 534.897  -3
   0   2  -3 3975.01 534.897  -2
   2   0  -3 3975.01 534.897   1
  -2  -2  -4 563256. 2975.97  -3
   0   2  -2 563256. 2975.97  -2
   2   0  -2 563256. 2975.97   1
  -2  -2  -3 2848.29 262.964  -3
   0   2  -1 2848.29 262.964  -2
   2   0  -1 2848.29 262.964   1
  -2  -2  -2 4554.43 531.125  -3
   0   2   0 4554.43 531.125  -2
   2   0   0 4554.43 531.125   1
  -2  -2  -1 4119.95 725.801  -3
   0   2   1 4119.95 725.801  -2
   2   0   1 4119.95 725.801   1
  -2  -2   0 351843. 2641.32  -3
   0   2   2 351843. 2641.32  -2
   2   0   2 351843. 2641.32   1
  -2  -2   1 4911.76 370.206  -3
   0   2   3 4911.76 370.206  -2
   2   0   3 4911.76 370.206   1
  -2  -2   2 254533. 2108.94  -3
   0   2   4 254533. 2108.94  -2
   2   0   4 254533. 2108.94   1
  -2  -2   3 764.596 422.134  -3
   0   2   5 764.596 422.134  -2
   2   0   5 764.596 422.134   1
  -2  -2   4 236461. 2500.71  -3
   0   2   6 236461. 2500.71  -2
   2   0   6 236461. 2500.71   1
  -2  -2   5 235.270 577.261  -3
   0   2   7 235.270 577.261  -2
   2   0   7 235.270 577.261   1
  -2  -2   6 15561.4 1452.80  -3
   0   2   8 15561.4 1452.80  -2
   2   0   8 15561.4 1452.80   1
  -2  -2   7-1210.26 1170.56  -3
   0   2   9-1210.26 1170.56  -2
   2   0   9-1210.26 1170.56   1
  -1  -2  -8 3995.25 1005.73  -3
  -1   1  -7 3995.25 1005.73  -2
   2   1  -6 3995.25 1005.73   1
  -1  -2  -7 43533.8 1886.10  -3
  -1   1  -6 43533.8 1886.10  -2
   2   1  -5 43533.8 1886.10   1
  -1  -2  -6 17680.9 918.682  -3
  -1   1  -5 17680.9 918.682  -2
   2   1  -4 17680.9 918.682   1
  -1  -2  -5 149694. 2004.25  -3
  -1   1  -4 149694. 2004.25  -2
   2   1  -3 149694. 2004.25   1
  -1  -2  -4 1013.29 289.868  -3
  -1   1  -3 1013.29 289.868  -2
   2   1  -2 1013.29 289.868   1
  -1  -2  -3 465101. 4272.47  -3
  -1   1  -2 465101. 4272.47  -2
   2   1  -1 465101. 4272.47   1
  -1  -2  -2 187696. 2099.69  -3
  -1   1  -1 187696. 2099.69  -2
   2   1   0 187696. 2099.69   1
  -1  -2  -1 391933. 2438.37  -3
  -1   1   0 391933. 2438.37  -2
   2   1   1 391933. 2438.37   1
  -1  -2   0 183072. 1254.59  -3
  -1   1   1 183072. 1254.59  -2
   2   1   2 183072. 1254.59   1
  -1  -2   1 484890. 2810.63  -3
  -1   1   2 484890. 2810.63  -2
   2   1   3 484890. 2810.63   1
  -1  -2   2 1087.82 397.978  -3
  -1   1   3 1087.82 397.978  -2
   2   1   4 1087.82 397.978   1
  -1  -2   3 140814. 2205.96  -3
  -1   1   4 140814. 2205.96  -2
   2   1   5 140814. 2205.96   1
  -1  -2   4 16236.6 965.348  -3
  -1   1   5 16236.6 965.348  -2
   2   1   6 16236.6 965.348   1
  -1  -2   5 39805.1 1534.16  -3
  -1   1   6 39805.1 1534.16  -2
   2   1   7 39805.1 1534.16   1
  -1  -2   6 3691.70 831.867  -3
  -1   1   7 3691.70 831.867  -2
   2   1   8 3691.70 831.867   1
   0  -2  -8 15110.7 1553.43  -3
  -2   0  -8 15110.7 1553.43  -2
   2   2  -6 15110.7 1553.43   1
   0  -2  -7 612.371 625.101  -3
  -2   0  -7 612.371 625.101  -2
   2   2  -5 612.371 625.101   1
   0  -2  -6 242451. 2786.99  -3
  -2   0  -6 242451. 2786.99  -2
   2   2  -4 242451. 2786.99   1
   0  -2  -5 545.692 376.264  -3
  -2   0  -5 545.692 376.264  -2
   2   2  -3 545.692 376.264   1
   0  -2  -4 249351. 4372.07  -3
  -2   0  -4 249351. 4372.07  -2
   2   2  -2 249351. 4372.07   1
   0  -2  -3 1930.43 718.437  -3
  -2   0  -3 1930.43 718.437  -2
   2   2  -1 1930.43 718.437   1
   0  -2  -2 330810. 3442.07  -3
  -2   0  -2 330810. 3442.07  -2
   2   2   0 330810. 3442.07   1
   0  -2   0 2654.87 328.227  -3
  -2   0   0 2654.87 328.227  -2
   2   2   2 2654.87 328.227   1
   0  -2   1 2386.45 316.439  -3
  -2   0   1 2386.45 316.439  -2
   2   2   3 2386.45 316.439   1
   0  -2   2 511849. 2759.42  -3
  -2   0   2 511849. 2759.42  -2
   2   2   4 511849. 2759.42   1
   0  -2   3 2715.37 445.449  -3
  -2   0   3 2715.37 445.449  -2
   2   2   5 2715.37 445.449   1
   0  -2   4 28486.4 1241.17  -3
  -2   0   4 28486.4 1241.17  -2
   2   2   6 28486.4 1241.17   1
   0  -2   5 1072.15 737.592  -3
  -2   0   5 1072.15 737.592  -2
   2   2   7 1072.15 737.592   1
   1  -2  -8 10005.6 1492.82  -3
  -3  -1  -9 10005.6 1492.82  -2
   2   3  -6 10005.6 1492.82   1
   1  -2  -7 41616.5 2089.66  -3
  -3  -1  -8 41616.5 2089.66  -2
   2   3  -5 41616.5 2089.66   1
   1  -2  -4 46123.4 2257.55  -3
  -3  -1  -5 46123.4 2257.55  -2
   2   3  -2 46123.4 2257.55   1
   1  -2  -3 255323. 4431.82  -3
  -3  -1  -4 255323. 4431.82  -2
   2   3  -1 255323. 4431.82   1
   1  -2  -2 274800. 3968.93  -3
  -3  -1  -3 274800. 3968.93  -2
   2   3   0 274800. 3968.93   1
   1  -2  -1 21935.7 1202.45  -3
  -3  -1  -2 21935.7 1202.45  -2
   2   3   1 21935.7 1202.45   1
   1  -2   0 55472.8 1776.91  -3
  -3  -1  -1 55472.8 1776.91  -2
   2   3   2 55472.8 1776.91   1
   1  -2   1 200019. 2003.47  -3
  -3  -1   0 200019. 2003.47  -2
   2   3   3 200019. 2003.47   1
   1  -2   2 65456.7 1036.04  -3
  -3  -1   1 65456.7 1036.04  -2
   2   3   4 65456.7 1036.04   1
   1  -2   3 450186. 4116.80  -3
  -3  -1   2 450186. 4116.80  -2
   2   3   5 450186. 4116.80   1
   1  -2   4 34112.0 1948.97  -3
  -3  -1   3 34112.0 1948.97  -2
   2   3   6 34112.0 1948.97   1
   2  -2  -7 5632.56 1317.56  -3
  -4  -2  -9 5632.56 1317.56  -2
   2   4  -5 5632.56 1317.56   1
   2  -2  -3 2882.72 1177.49  -3
  -4  -2  -5 2882.72 1177.49  -2
   2   4  -1 2882.72 1177.49   1
   2  -2  -2 188109. 3860.47  -3
  -4  -2  -4 188109. 3860.47  -2
   2   4   0 188109. 3860.47   1
   2  -2  -1 44813.1 1571.99  -3
  -4  -2  -3 44813.1 1571.99  -2
   2   4   1 44813.1 1571.99   1
   2  -2   0 233166. 3675.20  -3
  -4  -2  -2 233166. 3675.20  -2
   2   4   2 233166. 3675.20   1
   2  -2   1 45057.0 1788.34  -3
  -4  -2  -1 45057.0 1788.34  -2
   2   4   3 45057.0 1788.34   1
   2  -2   2 165637. 1759.27  -3
  -4  -2   0 165637. 1759.27  -2
   2   4   4 165637. 1759.27   1
   2  -2   3 3357.49 427.527  -3
  -4  -2   1 3357.49 427.527  -2
   2   4   5 3357.49 427.527   1
   3  -2  -1 124157. 2629.77  -3
  -5  -3  -4 124157. 2629.77  -2
   2   5   1 124157. 2629.77   1
   3  -2   0 4610.46 952.790  -3
  -5  -3  -3 4610.46 952.790  -2
   2   5   2 4610.46 952.790   1
   3  -2   1 73772.2 2317.35  -3
  -5  -3  -2 73772.2 2317.35  -2
   2   5   3 73772.2 2317.35   1
   3  -2   3 105697. 1555.91  -3
   2   5   5 105697. 1555.91   1
   4  -2  -1 5669.89 1080.20  -3
  -6  -4  -5 5669.89 1080.20  -2
   2   6   1 5669.89 1080.20   1
   4  -2   0 40714.0 1924.29  -3
  -6  -4  -4 40714.0 1924.29  -2
   2   6   2 40714.0 1924.29   1
   4  -2   4 77388.9 926.155  -3
   2   6   6 77388.9 926.155   1
  -9  -3  -3 1632.54 988.891  -3
   6   9   6 1632.54 988.891  -2
   3  -6   0 1632.54 988.891   1
  -9  -3  -2 34234.3 1921.04  -3
   6   9   7 34234.3 1921.04  -2
   3  -6   1 34234.3 1921.04   1
  -9  -3  -1 2208.48 1475.27  -3
   6   9   8 2208.48 1475.27  -2
   3  -6   2 2208.48 1475.27   1
  -9  -3   0 38265.7 2623.21  -3
   6   9   9 38265.7 2623.21  -2
   3  -6   3 38265.7 2623.21   1
  -9  -3   1 109.725 1911.37  -3
   6   9  10 109.725 1911.37  -2
   3  -6   4 109.725 1911.37   1
  -8  -3  -5 63001.7 1668.39  -3
   5   8   3 63001.7 1668.39  -2
   3  -5  -2 63001.7 1668.39   1
  -8  -3  -4 4634.32 806.380  -3
   5   8   4 4634.32 806.380  -2
   3  -5  -1 4634.32 806.380   1
  -8  -3  -3 60600.8 1875.93  -3
   5   8   5 60600.8 1875.93  -2
   3  -5   0 60600.8 1875.93   1
  -8  -3  -2-55.9551 1022.54  -3
   5   8   6-55.9551 1022.54  -2
   3  -5   1-55.9551 1022.54   1
  -8  -3  -1 19467.5 1684.10  -3
   5   8   7 19467.5 1684.10  -2
   3  -5   2 19467.5 1684.10   1
  -8  -3   0 2152.96 1511.95  -3
   5   8   8 2152.96 1511.95  -2
   3  -5   3 2152.96 1511.95   1
  -8  -3   1 75251.6 3154.78  -3
   5   8   9 75251.6 3154.78  -2
   3  -5   4 75251.6 3154.78   1
  -8  -3   2 2654.09 1945.43  -3
   5   8  10 2654.09 1945.43  -2
   3  -5   5 2654.09 1945.43   1
  -7  -3  -6 91673.1 1524.91  -3
   4   7   1 91673.1 1524.91  -2
   3  -4  -3 91673.1 1524.91   1
  -7  -3  -5 3114.72 541.390  -3
   4   7   2 3114.72 541.390  -2
   3  -4  -2 3114.72 541.390   1
  -7  -3  -4 49489.5 1336.17  -3
   4   7   3 49489.5 1336.17  -2
   3  -4  -1 49489.5 1336.17   1
  -7  -3  -3 1966.18 720.546  -3
   4   7   4 1966.18 720.546  -2
   3  -4   0 1966.18 720.546   1
  -7  -3  -2 50036.0 1707.01  -3
   4   7   5 50036.0 1707.01  -2
   3  -4   1 50036.0 1707.01   1
  -7  -3  -1 16288.9 1376.04  -3
   4   7   6 16288.9 1376.04  -2
   3  -4   2 16288.9 1376.04   1
  -7  -3   0 129627. 3332.27  -3
   4   7   7 129627. 3332.27  -2
   3  -4   3 129627. 3332.27   1
  -7  -3   1 16217.7 1854.64  -3
   4   7   8 16217.7 1854.64  -2
   3  -4   4 16217.7 1854.64   1
  -7  -3   2 50889.5 2709.21  -3
   4   7   9 50889.5 2709.21  -2
   3  -4   5 50889.5 2709.21   1
  -7  -3   3 4035.65 1881.95  -3
   4   7  10 4035.65 1881.95  -2
   3  -4   6 4035.65 1881.95   1
  -6  -3  -7 78921.8 1540.81  -3
   3   6  -1 78921.8 1540.81  -2
   3  -3  -4 78921.8 1540.81   1
  -6  -3  -6 10083.6 404.700  -3
   3   6   0 10083.6 404.700  -2
   3  -3  -3 10083.6 404.700   1
  -6  -3  -5 197394. 1442.06  -3
   3   6   1 197394. 1442.06  -2
   3  -3  -2 197394. 1442.06   1
  -6  -3  -4 28726.3 811.930  -3
   3   6   2 28726.3 811.930  -2
   3  -3  -1 28726.3 811.930   1
  -6  -3  -3 23519.6 945.138  -3
   3   6   3 23519.6 945.138  -2
   3  -3   0 23519.6 945.138   1
  -6  -3  -2 28303.0 1238.22  -3
   3   6   4 28303.0 1238.22  -2
   3  -3   1 28303.0 1238.22   1
  -6  -3  -1 217853. 3478.12  -3
   3   6   5 217853. 3478.12  -2
   3  -3   2 217853. 3478.12   1
  -6  -3   0 10514.3 1327.00  -3
   3   6   6 10514.3 1327.00  -2
   3  -3   3 10514.3 1327.00   1
  -6  -3   1 79460.7 2814.05  -3
   3   6   7 79460.7 2814.05  -2
   3  -3   4 79460.7 2814.05   1
  -6  -3   2 34296.0 2190.01  -3
   3   6   8 34296.0 2190.01  -2
   3  -3   5 34296.0 2190.01   1
  -6  -3   3 26059.4 2186.86  -3
   3   6   9 26059.4 2186.86  -2
   3  -3   6 26059.4 2186.86   1
  -6  -3   4 5779.01 1844.40  -3
   3   6  10 5779.01 1844.40  -2
   3  -3   7 5779.01 1844.40   1
  -5  -3  -8 78896.9 1321.66  -3
   2   5  -3 78896.9 1321.66  -2
   3  -2  -5 78896.9 1321.66   1
  -5  -3  -7 14929.4 663.360  -3
   2   5  -2 14929.4 663.360  -2
   3  -2  -4 14929.4 663.360   1
  -5  -3  -6 186470. 1555.38  -3
   2   5  -1 186470. 1555.38  -2
   3  -2  -3 186470. 1555.38   1
  -5  -3  -5 11256.8 1078.31  -3
   2   5   0 11256.8 1078.31  -2
   3  -2  -2 11256.8 1078.31   1
  -5  -3  -3 2769.44 384.187  -3
   2   5   2 2769.44 384.187  -2
   3  -2   0 2769.44 384.187   1
  -5  -3  -2 74104.4 1587.65  -3
   2   5   3 74104.4 1587.65  -2
   3  -2   1 74104.4 1587.65   1
  -5  -3  -1 4884.72 866.450  -3
   2   5   4 4884.72 866.450  -2
   3  -2   2 4884.72 866.450   1
  -5  -3   0 138187. 3029.36  -3
   2   5   5 138187. 3029.36  -2
   3  -2   3 138187. 3029.36   1
  -5  -3   1 3100.81 1104.47  -3
   2   5   6 3100.81 1104.47  -2
   3  -2   4 3100.81 1104.47   1
  -5  -3   2 65649.6 2614.03  -3
   2   5   7 65649.6 2614.03  -2
   3  -2   5 65649.6 2614.03   1
  -5  -3   3 12511.9 1747.27  -3
   2   5   8 12511.9 1747.27  -2
   3  -2   6 12511.9 1747.27   1
  -5  -3   4 48417.2 2875.51  -3
   2   5   9 48417.2 2875.51  -2
   3  -2   7 48417.2 2875.51   1
  -5  -3   5 3584.59 1766.04  -3
   2   5  10 3584.59 1766.04  -2
   3  -2   8 3584.59 1766.04   1
  -4  -3  -9 81656.0 2389.61  -3
   1   4  -5 81656.0 2389.61  -2
   3  -1  -6 81656.0 2389.61   1
  -4  -3  -8 11836.1 823.373  -3
   1   4  -4 11836.1 823.373  -2
   3  -1  -5 11836.1 823.373   1
  -4  -3  -7 102229. 1601.77  -3
   1   4  -3 102229. 1601.77  -2
   3  -1  -4 102229. 1601.77   1
  -4  -3  -6 4342.06 483.626  -3
   1   4  -2 4342.06 483.626  -2
   3  -1  -3 4342.06 483.626   1
  -4  -3  -5 57553.6 700.917  -3
   1   4  -1 57553.6 700.917  -2
   3  -1  -2 57553.6 700.917   1
  -4  -3  -4 7588.09 909.132  -3
   1   4   0 7588.09 909.132  -2
   3  -1  -1 7588.09 909.132   1
  -4  -3  -3 251798. 3932.11  -3
   1   4   1 251798. 3932.11  -2
   3  -1   0 251798. 3932.11   1
  -4  -3  -2 6372.02 465.983  -3
   1   4   2 6372.02 465.983  -2
   3  -1   1 6372.02 465.983   1
  -4  -3  -1 119005. 2152.00  -3
   1   4   3 119005. 2152.00  -2
   3  -1   2 119005. 2152.00   1
  -4  -3   0 16694.0 1112.99  -3
   1   4   4 16694.0 1112.99  -2
   3  -1   3 16694.0 1112.99   1
  -4  -3   1 176214. 3490.16  -3
   1   4   5 176214. 3490.16  -2
   3  -1   4 176214. 3490.16   1
  -4  -3   2 21589.6 1640.69  -3
   1   4   6 21589.6 1640.69  -2
   3  -1   5 21589.6 1640.69   1
  -4  -3   3 76638.0 3012.33  -3
   1   4   7 76638.0 3012.33  -2
   3  -1   6 76638.0 3012.33   1
  -4  -3   4 7971.95 1423.48  -3
   1   4   8 7971.95 1423.48  -2
   3  -1   7 7971.95 1423.48   1
  -4  -3   5 51739.1 3047.50  -3
   1   4   9 51739.1 3047.50  -2
   3  -1   8 51739.1 3047.50   1
  -4  -3   6 98.1316 1631.32  -3
   1   4  10 98.1316 1631.32  -2
   3  -1   9 98.1316 1631.32   1
  -3  -3  -7 2403.16 741.995  -3
   0   3  -4 2403.16 741.995  -2
   3   0  -4 2403.16 741.995   1
  -3  -3  -6 83690.7 1144.34  -3
   0   3  -3 83690.7 1144.34  -2
   3   0  -3 83690.7 1144.34   1
  -3  -3  -5 2340.36 386.122  -3
   0   3  -2 2340.36 386.122  -2
   3   0  -2 2340.36 386.122   1
  -3  -3  -4 348791. 4232.60  -3
   0   3  -1 348791. 4232.60  -2
   3   0  -1 348791. 4232.60   1
   0   3  -1 247003. 1394.76  -2
   3   0  -1 247003. 1394.76   1
  -3  -3  -3 1086.45 698.465  -3
   0   3   0 1086.45 698.465  -2
   3   0   0 1086.45 698.465   1
  -3  -3  -2 292778. 4042.71  -3
   0   3   1 292778. 4042.71  -2
   3   0   1 292778. 4042.71   1
  -3  -3  -1 6703.24 851.421  -3
   0   3   2 6703.24 851.421  -2
   3   0   2 6703.24 851.421   1
  -3  -3   0 187531. 2127.14  -3
   0   3   3 187531. 2127.14  -2
   3   0   3 187531. 2127.14   1
  -3  -3   1 2208.19 624.480  -3
   0   3   4 2208.19 624.480  -2
   3   0   4 2208.19 624.480   1
  -3  -3   2 151958. 2570.88  -3
   0   3   5 151958. 2570.88  -2
   3   0   5 151958. 2570.88   1
  -3  -3   3 375.035 420.765  -3
   0   3   6 375.035 420.765  -2
   3   0   6 375.035 420.765   1
  -3  -3   4 41453.4 1100.46  -3
   0   3   7 41453.4 1100.46  -2
   3   0   7 41453.4 1100.46   1
  -3  -3   5 628.104 1113.13  -3
   0   3   8 628.104 1113.13  -2
   3   0   8 628.104 1113.13   1
  -3  -3   6 33828.9 2109.51  -3
   0   3   9 33828.9 2109.51  -2
   3   0   9 33828.9 2109.51   1
  -2  -3  -7 74536.7 2678.93  -3
  -1   2  -5 74536.7 2678.93  -2
   3   1  -4 74536.7 2678.93   1
  -2  -3  -6 36220.5 1710.53  -3
  -1   2  -4 36220.5 1710.53  -2
   3   1  -3 36220.5 1710.53   1
  -2  -3  -5 504695. 5168.29  -3
  -1   2  -3 504695. 5168.29  -2
   3   1  -2 504695. 5168.29   1
  -2  -3  -4 74285.7 1717.23  -3
  -1   2  -2 74285.7 1717.23  -2
   3   1  -1 74285.7 1717.23   1
  -2  -3  -3 209420. 3232.42  -3
  -1   2  -1 209420. 3232.42  -2
   3   1   0 209420. 3232.42   1
  -2  -3  -2 52545.6 1777.92  -3
  -1   2   0 52545.6 1777.92  -2
   3   1   1 52545.6 1777.92   1
  -2  -3  -1 19790.2 1244.76  -3
  -1   2   1 19790.2 1244.76  -2
   3   1   2 19790.2 1244.76   1
  -2  -3   0 274289. 4310.82  -3
  -1   2   2 274289. 4310.82  -2
   3   1   3 274289. 4310.82   1
  -2  -3   1 256668. 3345.40  -3
  -1   2   3 256668. 3345.40  -2
   3   1   4 256668. 3345.40   1
  -2  -3   2 41010.6 1212.84  -3
  -1   2   4 41010.6 1212.84  -2
   3   1   5 41010.6 1212.84   1
  -2  -3   3 147566. 2401.83  -3
  -1   2   5 147566. 2401.83  -2
   3   1   6 147566. 2401.83   1
  -2  -3   4 4873.14 772.297  -3
  -1   2   6 4873.14 772.297  -2
   3   1   7 4873.14 772.297   1
  -2  -3   5 40711.2 1574.39  -3
  -1   2   7 40711.2 1574.39  -2
   3   1   8 40711.2 1574.39   1
  -1  -3  -8 39534.3 1652.38  -3
  -2   1  -7 39534.3 1652.38  -2
   3   2  -5 39534.3 1652.38   1
  -1  -3  -7 4700.95 718.892  -3
  -2   1  -6 4700.95 718.892  -2
   3   2  -4 4700.95 718.892   1
  -1  -3  -6 148838. 1867.91  -3
  -2   1  -5 148838. 1867.91  -2
   3   2  -3 148838. 1867.91   1
  -1  -3  -5 43476.9 813.669  -3
  -2   1  -4 43476.9 813.669  -2
   3   2  -2 43476.9 813.669   1
  -1  -3  -4 262528. 4010.63  -3
  -2   1  -3 262528. 4010.63  -2
   3   2  -1 262528. 4010.63   1
  -1  -3  -3 272834. 1783.14  -3
  -2   1  -2 272834. 1783.14  -2
   3   2   0 272834. 1783.14   1
  -1  -3  -2 20236.0 712.046  -3
  -2   1  -1 20236.0 712.046  -2
   3   2   1 20236.0 712.046   1
  -1  -3  -1 55272.8 1211.82  -3
  -2   1   0 55272.8 1211.82  -2
   3   2   2 55272.8 1211.82   1
  -1  -3   0 231594. 2025.69  -3
  -2   1   1 231594. 2025.69  -2
   3   2   3 231594. 2025.69   1
  -1  -3   1 74497.3 1279.66  -3
  -2   1   2 74497.3 1279.66  -2
   3   2   4 74497.3 1279.66   1
  -1  -3   2 512429. 4301.22  -3
  -2   1   3 512429. 4301.22  -2
   3   2   5 512429. 4301.22   1
  -1  -3   3 36676.7 1823.65  -3
  -2   1   4 36676.7 1823.65  -2
   3   2   6 36676.7 1823.65   1
  -1  -3   4 75966.1 2701.62  -3
  -2   1   5 75966.1 2701.62  -2
   3   2   7 75966.1 2701.62   1
  -1  -3   5 2637.37 1127.45  -3
  -2   1   6 2637.37 1127.45  -2
   3   2   8 2637.37 1127.45   1
   0  -3  -8 842.803 826.769  -3
  -3   0  -8 842.803 826.769  -2
   3   3  -5 842.803 826.769   1
   0  -3  -7 44349.6 1772.61  -3
  -3   0  -7 44349.6 1772.61  -2
   3   3  -4 44349.6 1772.61   1
   0  -3  -5 167466. 3867.05  -3
  -3   0  -5 167466. 3867.05  -2
   3   3  -2 167466. 3867.05   1
   0  -3  -4 3162.25 865.666  -3
  -3   0  -4 3162.25 865.666  -2
   3   3  -1 3162.25 865.666   1
   0  -3  -3 159714. 3030.37  -3
  -3   0  -3 159714. 3030.37  -2
   3   3   0 159714. 3030.37   1
   0  -3  -1 230883. 2018.08  -3
  -3   0  -1 230883. 2018.08  -2
   3   3   2 230883. 2018.08   1
   0  -3   0 957.914 381.781  -3
  -3   0   0 957.914 381.781  -2
   3   3   3 957.914 381.781   1
   0  -3   1 259233. 2253.09  -3
  -3   0   1 259233. 2253.09  -2
   3   3   4 259233. 2253.09   1
   0  -3   2 1602.28 429.638  -3
  -3   0   2 1602.28 429.638  -2
   3   3   5 1602.28 429.638   1
   0  -3   3 94736.4 2066.08  -3
  -3   0   3 94736.4 2066.08  -2
   3   3   6 94736.4 2066.08   1
   1  -3  -3 22276.2 1584.48  -3
  -4  -1  -4 22276.2 1584.48  -2
   3   4   0 22276.2 1584.48   1
   1  -3  -1 6127.85 1014.27  -3
  -4  -1  -2 6127.85 1014.27  -2
   3   4   2 6127.85 1014.27   1
   1  -3   0 259172. 4338.18  -3
  -4  -1  -1 259172. 4338.18  -2
   3   4   3 259172. 4338.18   1
   1  -3   1 8380.27 594.465  -3
  -4  -1   0 8380.27 594.465  -2
   3   4   4 8380.27 594.465   1
   1  -3   2 61525.4 1173.50  -3
  -4  -1   1 61525.4 1173.50  -2
   3   4   5 61525.4 1173.50   1
   1  -3   3 4250.06 817.623  -3
  -4  -1   2 4250.06 817.623  -2
   3   4   6 4250.06 817.623   1
   2  -3  -1 83523.2 2557.61  -3
  -5  -2  -3 83523.2 2557.61  -2
   3   5   2 83523.2 2557.61   1
   2  -3   0 2703.24 1034.85  -3
  -5  -2  -2 2703.24 1034.85  -2
   3   5   3 2703.24 1034.85   1
   2  -3   1 127510. 3295.95  -3
  -5  -2  -1 127510. 3295.95  -2
   3   5   4 127510. 3295.95   1
   2  -3   2 8786.75 879.396  -3
  -5  -2   0 8786.75 879.396  -2
   3   5   5 8786.75 879.396   1
   2  -3   3 197695. 2621.31  -3
  -5  -2   1 197695. 2621.31  -2
   3   5   6 197695. 2621.31   1
   3  -3   2 212247. 2850.47  -3
  -6  -3  -1 212247. 2850.47  -2
   3   6   5 212247. 2850.47   1
   3  -3   3 10307.0 885.356  -3
  -6  -3   0 10307.0 885.356  -2
   3   6   6 10307.0 885.356   1
   3  -3   4 59339.4 1137.25  -3
   3   6   7 59339.4 1137.25   1
   4  -3   3 104158. 1945.28  -3
  -7  -4  -1 104158. 1945.28  -2
   3   7   6 104158. 1945.28   1
  -9  -4  -2 3840.69 1230.73  -3
   5   9   7 3840.69 1230.73  -2
   4  -5   2 3840.69 1230.73   1
  -9  -4  -1 9812.37 1594.03  -3
   5   9   8 9812.37 1594.03  -2
   4  -5   3 9812.37 1594.03   1
  -9  -4   0 2707.64 1669.20  -3
   5   9   9 2707.64 1669.20  -2
   4  -5   4 2707.64 1669.20   1
  -9  -4   1 54435.8 2843.57  -3
   5   9  10 54435.8 2843.57  -2
   4  -5   5 54435.8 2843.57   1
  -8  -4  -4 112541. 1712.21  -3
   4   8   4 112541. 1712.21  -2
   4  -4   0 112541. 1712.21   1
  -8  -4  -3 7208.20 973.007  -3
   4   8   5 7208.20 973.007  -2
   4  -4   1 7208.20 973.007   1
  -8  -4  -2 66377.7 2032.96  -3
   4   8   6 66377.7 2032.96  -2
   4  -4   2 66377.7 2032.96   1
  -8  -4  -1 2803.35 1262.90  -3
   4   8   7 2803.35 1262.90  -2
   4  -4   3 2803.35 1262.90   1
  -8  -4   0 19492.7 1757.35  -3
   4   8   8 19492.7 1757.35  -2
   4  -4   4 19492.7 1757.35   1
  -8  -4   1 2428.95 1532.30  -3
   4   8   9 2428.95 1532.30  -2
   4  -4   5 2428.95 1532.30   1
  -8  -4   2 37821.4 2614.13  -3
   4   8  10 37821.4 2614.13  -2
   4  -4   6 37821.4 2614.13   1
  -7  -4  -4 2629.45 404.585  -3
   3   7   3 2629.45 404.585  -2
   4  -3   0 2629.45 404.585   1
  -7  -4  -3 53802.6 1346.59  -3
   3   7   4 53802.6 1346.59  -2
   4  -3   1 53802.6 1346.59   1
  -7  -4  -2 3320.60 901.665  -3
   3   7   5 3320.60 901.665  -2
   4  -3   2 3320.60 901.665   1
  -7  -4  -1 100146. 2461.79  -3
   3   7   6 100146. 2461.79  -2
   4  -3   3 100146. 2461.79   1
  -7  -4   0 448.981 1177.17  -3
   3   7   7 448.981 1177.17  -2
   4  -3   4 448.981 1177.17   1
  -7  -4   1 35777.8 2164.76  -3
   3   7   8 35777.8 2164.76  -2
   4  -3   5 35777.8 2164.76   1
  -7  -4   2 4525.51 1674.28  -3
   3   7   9 4525.51 1674.28  -2
   4  -3   6 4525.51 1674.28   1
  -7  -4   3 28408.1 2460.57  -3
   3   7  10 28408.1 2460.57  -2
   4  -3   7 28408.1 2460.57   1
  -6  -4  -8 102038. 2397.09  -3
   2   6  -2 102038. 2397.09  -2
   4  -2  -4 102038. 2397.09   1
  -6  -4  -7 4412.64 1028.97  -3
   2   6  -1 4412.64 1028.97  -2
   4  -2  -3 4412.64 1028.97   1
  -6  -4  -6 102171. 2775.96  -3
   2   6   0 102171. 2775.96  -2
   4  -2  -2 102171. 2775.96   1
  -6  -4  -3 5291.10 569.345  -3
   2   6   3 5291.10 569.345  -2
   4  -2   1 5291.10 569.345   1
  -6  -4  -2 146388. 2356.70  -3
   2   6   4 146388. 2356.70  -2
   4  -2   2 146388. 2356.70   1
  -6  -4  -1 25613.0 1369.18  -3
   2   6   5 25613.0 1369.18  -2
   4  -2   3 25613.0 1369.18   1
  -6  -4   0 104858. 2678.65  -3
   2   6   6 104858. 2678.65  -2
   4  -2   4 104858. 2678.65   1
  -6  -4   1 11545.9 1433.95  -3
   2   6   7 11545.9 1433.95  -2
   4  -2   5 11545.9 1433.95   1
  -6  -4   2 51333.9 2550.92  -3
   2   6   8 51333.9 2550.92  -2
   4  -2   6 51333.9 2550.92   1
  -6  -4   3 521.197 1509.09  -3
   2   6   9 521.197 1509.09  -2
   4  -2   7 521.197 1509.09   1
  -6  -4   4 27612.1 2458.06  -3
   2   6  10 27612.1 2458.06  -2
   4  -2   8 27612.1 2458.06   1
  -5  -4  -9 112338. 2748.23  -3
   1   5  -4 112338. 2748.23  -2
   4  -1  -5 112338. 2748.23   1
  -5  -4  -8 3482.62 1011.03  -3
   1   5  -3 3482.62 1011.03  -2
   4  -1  -4 3482.62 1011.03   1
  -5  -4  -7 28576.2 705.581  -3
   1   5  -2 28576.2 705.581  -2
   4  -1  -3 28576.2 705.581   1
  -5  -4  -6 20361.4 1396.39  -3
   1   5  -1 20361.4 1396.39  -2
   4  -1  -2 20361.4 1396.39   1
  -5  -4  -5 95598.9 2552.54  -3
   1   5   0 95598.9 2552.54  -2
   4  -1  -1 95598.9 2552.54   1
  -5  -4  -4 30097.6 1841.72  -3
   1   5   1 30097.6 1841.72  -2
   4  -1   0 30097.6 1841.72   1
  -5  -4  -3 440060. 6249.29  -3
   1   5   2 440060. 6249.29  -2
   4  -1   1 440060. 6249.29   1
  -5  -4  -2 10234.6 740.391  -3
   1   5   3 10234.6 740.391  -2
   4  -1   2 10234.6 740.391   1
  -5  -4  -1 111108. 2223.35  -3
   1   5   4 111108. 2223.35  -2
   4  -1   3 111108. 2223.35   1
  -5  -4   0 2392.45 903.276  -3
   1   5   5 2392.45 903.276  -2
   4  -1   4 2392.45 903.276   1
  -5  -4   1 15165.9 1400.63  -3
   1   5   6 15165.9 1400.63  -2
   4  -1   5 15165.9 1400.63   1
  -5  -4   2 532.287 1128.03  -3
   1   5   7 532.287 1128.03  -2
   4  -1   6 532.287 1128.03   1
  -5  -4   3 86114.4 3227.02  -3
   1   5   8 86114.4 3227.02  -2
   4  -1   7 86114.4 3227.02   1
  -5  -4   4 2271.25 1556.57  -3
   1   5   9 2271.25 1556.57  -2
   4  -1   8 2271.25 1556.57   1
  -5  -4   5 19660.4 2469.71  -3
   1   5  10 19660.4 2469.71  -2
   4  -1   9 19660.4 2469.71   1
  -4  -4  -9 3479.13 1219.97  -3
   0   4  -5 3479.13 1219.97  -2
   4   0  -5 3479.13 1219.97   1
  -4  -4  -8 199776. 2171.42  -3
   0   4  -4 199776. 2171.42  -2
   4   0  -4 199776. 2171.42   1
  -4  -4  -7 3772.80 573.779  -3
   0   4  -3 3772.80 573.779  -2
   4   0  -3 3772.80 573.779   1
  -4  -4  -6 9617.85 531.429  -3
   0   4  -2 9617.85 531.429  -2
   4   0  -2 9617.85 531.429   1
  -4  -4  -5 68.6293 843.264  -3
   0   4  -1 68.6293 843.264  -2
   4   0  -1 68.6293 843.264   1
  -4  -4  -4 158257. 3481.35  -3
   0   4   0 158257. 3481.35  -2
   4   0   0 158257. 3481.35   1
  -4  -4  -3-56.3547 730.682  -3
   0   4   1-56.3547 730.682  -2
   4   0   1-56.3547 730.682   1
  -4  -4  -2 201598. 3720.34  -3
   0   4   2 201598. 3720.34  -2
   4   0   2 201598. 3720.34   1
  -4  -4  -1 3799.52 1260.68  -3
   0   4   3 3799.52 1260.68  -2
   4   0   3 3799.52 1260.68   1
  -4  -4   0 11788.5 1022.77  -3
   0   4   4 11788.5 1022.77  -2
   4   0   4 11788.5 1022.77   1
  -4  -4   1 2727.75 798.413  -3
   0   4   5 2727.75 798.413  -2
   4   0   5 2727.75 798.413   1
  -4  -4   2 51464.6 1845.48  -3
   0   4   6 51464.6 1845.48  -2
   4   0   6 51464.6 1845.48   1
  -4  -4   3-977.964 1197.59  -3
   0   4   7-977.964 1197.59  -2
   4   0   7-977.964 1197.59   1
  -4  -4   4 149493. 4402.17  -3
   0   4   8 149493. 4402.17  -2
   4   0   8 149493. 4402.17   1
  -4  -4   5 3448.16 1749.15  -3
   0   4   9 3448.16 1749.15  -2
   4   0   9 3448.16 1749.15   1
  -3  -4  -8 13569.1 1478.56  -3
  -1   3  -5 13569.1 1478.56  -2
   4   1  -4 13569.1 1478.56   1
  -3  -4  -7 110818. 2020.95  -3
  -1   3  -4 110818. 2020.95  -2
   4   1  -3 110818. 2020.95   1
  -3  -4  -6 5125.57 695.716  -3
  -1   3  -3 5125.57 695.716  -2
   4   1  -2 5125.57 695.716   1
  -3  -4  -5 64403.6 1260.11  -3
  -1   3  -2 64403.6 1260.11  -2
   4   1  -1 64403.6 1260.11   1
  -3  -4  -4 7763.81 1116.40  -3
  -1   3  -1 7763.81 1116.40  -2
   4   1   0 7763.81 1116.40   1
  -3  -4  -3 238880. 4042.12  -3
  -1   3   0 238880. 4042.12  -2
   4   1   1 238880. 4042.12   1
  -3  -4  -2 6898.75 1135.40  -3
  -1   3   1 6898.75 1135.40  -2
   4   1   2 6898.75 1135.40   1
  -3  -4  -1 135266. 3262.59  -3
  -1   3   2 135266. 3262.59  -2
   4   1   3 135266. 3262.59   1
  -3  -4   0 22780.5 1730.35  -3
  -1   3   3 22780.5 1730.35  -2
   4   1   4 22780.5 1730.35   1
  -3  -4   3 86215.1 2176.37  -3
  -1   3   6 86215.1 2176.37  -2
   4   1   7 86215.1 2176.37   1
  -2  -4  -7 23690.6 1803.07  -3
  -2   2  -5 23690.6 1803.07  -2
   4   2  -3 23690.6 1803.07   1
  -2  -4  -6 246258. 4333.87  -3
  -2   2  -4 246258. 4333.87  -2
   4   2  -2 246258. 4333.87   1
  -2  -4  -5 4064.73 862.904  -3
  -2   2  -3 4064.73 862.904  -2
   4   2  -1 4064.73 862.904   1
  -2  -4  -4 175274. 3704.85  -3
  -2   2  -2 175274. 3704.85  -2
   4   2   0 175274. 3704.85   1
  -2  -4  -3 40825.4 1778.91  -3
  -2   2  -1 40825.4 1778.91  -2
   4   2   1 40825.4 1778.91   1
  -2  -4  -2 208101. 3780.26  -3
  -2   2   0 208101. 3780.26  -2
   4   2   2 208101. 3780.26   1
  -2  -4  -1 40316.8 1757.56  -3
  -2   2   1 40316.8 1757.56  -2
   4   2   3 40316.8 1757.56   1
  -2  -4   0 177878. 3659.11  -3
  -2   2   2 177878. 3659.11  -2
   4   2   4 177878. 3659.11   1
  -2  -4   1 3879.32 696.674  -3
  -2   2   3 3879.32 696.674  -2
   4   2   5 3879.32 696.674   1
  -2  -4   2 235838. 4034.52  -3
  -2   2   4 235838. 4034.52  -2
   4   2   6 235838. 4034.52   1
  -2  -4   3 23321.6 1644.55  -3
  -2   2   5 23321.6 1644.55  -2
   4   2   7 23321.6 1644.55   1
  -2  -4   4 8642.07 1306.37  -3
  -2   2   6 8642.07 1306.37  -2
   4   2   8 8642.07 1306.37   1
  -1  -4  -7 84318.8 1271.77  -3
  -3   1  -6 84318.8 1271.77  -2
   4   3  -3 84318.8 1271.77   1
  -1  -4  -6 24522.2 535.824  -3
  -3   1  -5 24522.2 535.824  -2
   4   3  -2 24522.2 535.824   1
  -1  -4  -5 210079. 3852.26  -3
  -3   1  -4 210079. 3852.26  -2
   4   3  -1 210079. 3852.26   1
  -1  -4  -4 19834.9 625.500  -3
  -3   1  -3 19834.9 625.500  -2
   4   3   0 19834.9 625.500   1
  -1  -4  -3 131749. 2088.02  -3
  -3   1  -2 131749. 2088.02  -2
   4   3   1 131749. 2088.02   1
  -1  -4  -2 6641.47 631.206  -3
  -3   1  -1 6641.47 631.206  -2
   4   3   2 6641.47 631.206   1
  -1  -4  -1 234523. 2625.97  -3
  -3   1   0 234523. 2625.97  -2
   4   3   3 234523. 2625.97   1
  -1  -4   0 8766.97 643.201  -3
  -3   1   1 8766.97 643.201  -2
   4   3   4 8766.97 643.201   1
  -1  -4   1 66237.2 1330.00  -3
  -3   1   2 66237.2 1330.00  -2
   4   3   5 66237.2 1330.00   1
  -1  -4   2 4772.23 791.177  -3
  -3   1   3 4772.23 791.177  -2
   4   3   6 4772.23 791.177   1
  -1  -4   3 113197. 3328.89  -3
  -3   1   4 113197. 3328.89  -2
   4   3   7 113197. 3328.89   1
   0  -4  -7 32.3657 593.927  -3
  -4   0  -7 32.3657 593.927  -2
   4   4  -3 32.3657 593.927   1
   0  -4  -4 22524.7 1687.47  -3
  -4   0  -4 22524.7 1687.47  -2
   4   4   0 22524.7 1687.47   1
   0  -4  -1 1824.18 443.884  -3
  -4   0  -1 1824.18 443.884  -2
   4   4   3 1824.18 443.884   1
   0  -4   0 367314. 2560.67  -3
  -4   0   0 367314. 2560.67  -2
   4   4   4 367314. 2560.67   1
   0  -4   1-128.032 462.679  -3
  -4   0   1-128.032 462.679  -2
   4   4   5-128.032 462.679   1
   0  -4   2 9869.57 1132.52  -3
  -4   0   2 9869.57 1132.52  -2
   4   4   6 9869.57 1132.52   1
   1  -4  -1 404846. 5697.38  -3
  -5  -1  -2 404846. 5697.38  -2
   4   5   3 404846. 5697.38   1
   1  -4   0 27234.8 1137.37  -3
  -5  -1  -1 27234.8 1137.37  -2
   4   5   4 27234.8 1137.37   1
   1  -4   1 90086.6 2345.82  -3
  -5  -1   0 90086.6 2345.82  -2
   4   5   5 90086.6 2345.82   1
   1  -4   2 18015.8 1248.15  -3
  -5  -1   1 18015.8 1248.15  -2
   4   5   6 18015.8 1248.15   1
   1  -4   3 32461.0 1557.49  -3
  -5  -1   2 32461.0 1557.49  -2
   4   5   7 32461.0 1557.49   1
   2  -4   1 6037.15 1068.22  -3
  -6  -2  -1 6037.15 1068.22  -2
   4   6   5 6037.15 1068.22   1
   2  -4   2 88288.7 2246.62  -3
  -6  -2   0 88288.7 2246.62  -2
   4   6   6 88288.7 2246.62   1
   2  -4   3 4430.44 988.380  -3
  -6  -2   1 4430.44 988.380  -2
   4   6   7 4430.44 988.380   1
   3  -4   2 15402.2 1208.67  -3
  -7  -3  -1 15402.2 1208.67  -2
   4   7   6 15402.2 1208.67   1
   3  -4   3 141042. 2453.96  -3
  -7  -3   0 141042. 2453.96  -2
   4   7   7 141042. 2453.96   1
   4  -4   2 65347.2 1993.80  -3
  -8  -4  -2 65347.2 1993.80  -2
   4   8   6 65347.2 1993.80   1
  -9  -5  -1 192.895 1233.87  -3
   4   9   8 192.895 1233.87  -2
   5  -4   4 192.895 1233.87   1
  -9  -5   0 17646.8 1915.62  -3
   4   9   9 17646.8 1915.62  -2
   5  -4   5 17646.8 1915.62   1
  -9  -5   1-187.117 1785.62  -3
   4   9  10-187.117 1785.62  -2
   5  -4   6-187.117 1785.62   1
  -8  -5  -3 63680.5 1513.94  -3
   3   8   5 63680.5 1513.94  -2
   5  -3   2 63680.5 1513.94   1
  -8  -5  -2 13630.9 1196.89  -3
   3   8   6 13630.9 1196.89  -2
   5  -3   3 13630.9 1196.89   1
  -8  -5  -1 65550.9 2192.21  -3
   3   8   7 65550.9 2192.21  -2
   5  -3   4 65550.9 2192.21   1
  -8  -5   0 1705.28 1341.74  -3
   3   8   8 1705.28 1341.74  -2
   5  -3   5 1705.28 1341.74   1
  -8  -5   1 15543.6 1908.66  -3
   3   8   9 15543.6 1908.66  -2
   5  -3   6 15543.6 1908.66   1
  -8  -5   2 1122.54 1760.07  -3
   3   8  10 1122.54 1760.07  -2
   5  -3   7 1122.54 1760.07   1
  -7  -5  -8 123512. 3183.10  -3
   2   7  -1 123512. 3183.10  -2
   5  -2  -3 123512. 3183.10   1
  -7  -5  -7 5943.21 1397.58  -3
   2   7   0 5943.21 1397.58  -2
   5  -2  -2 5943.21 1397.58   1
  -7  -5  -2 97356.1 2084.17  -3
   2   7   5 97356.1 2084.17  -2
   5  -2   3 97356.1 2084.17   1
  -7  -5  -1 1995.80 954.850  -3
   2   7   6 1995.80 954.850  -2
   5  -2   4 1995.80 954.850   1
  -7  -5   0 57521.6 2233.79  -3
   2   7   7 57521.6 2233.79  -2
   5  -2   5 57521.6 2233.79   1
  -7  -5   1 4228.53 1398.33  -3
   2   7   8 4228.53 1398.33  -2
   5  -2   6 4228.53 1398.33   1
  -7  -5   2 8614.05 1873.04  -3
   2   7   9 8614.05 1873.04  -2
   5  -2   7 8614.05 1873.04   1
  -7  -5   3 424.637 1726.32  -3
   2   7  10 424.637 1726.32  -2
   5  -2   8 424.637 1726.32   1
  -6  -5  -9 72789.3 2528.51  -3
   1   6  -3 72789.3 2528.51  -2
   5  -1  -4 72789.3 2528.51   1
  -6  -5  -8 7593.45 1287.78  -3
   1   6  -2 7593.45 1287.78  -2
   5  -1  -3 7593.45 1287.78   1
  -6  -5  -7 100453. 2880.48  -3
   1   6  -1 100453. 2880.48  -2
   5  -1  -2 100453. 2880.48   1
  -6  -5  -6 15116.1 1489.83  -3
   1   6   0 15116.1 1489.83  -2
   5  -1  -1 15116.1 1489.83   1
  -6  -5  -5 77457.7 2841.88  -3
   1   6   1 77457.7 2841.88  -2
   5  -1   0 77457.7 2841.88   1
  -6  -5  -4 12815.1 1697.91  -3
   1   6   2 12815.1 1697.91  -2
   5  -1   1 12815.1 1697.91   1
  -6  -5  -1 17894.0 1286.67  -3
   1   6   5 17894.0 1286.67  -2
   5  -1   4 17894.0 1286.67   1
  -6  -5   0 1691.18 1029.63  -3
   1   6   6 1691.18 1029.63  -2
   5  -1   5 1691.18 1029.63   1
  -6  -5   1 65665.1 2578.03  -3
   1   6   7 65665.1 2578.03  -2
   5  -1   6 65665.1 2578.03   1
  -6  -5   2 2783.57 1449.62  -3
   1   6   8 2783.57 1449.62  -2
   5  -1   7 2783.57 1449.62   1
  -6  -5   3 39662.6 2690.44  -3
   1   6   9 39662.6 2690.44  -2
   5  -1   8 39662.6 2690.44   1
  -5  -5  -9 1946.29 1233.48  -3
   0   5  -4 1946.29 1233.48  -2
   5   0  -4 1946.29 1233.48   1
  -5  -5  -8 65063.8 2360.67  -3
   0   5  -3 65063.8 2360.67  -2
   5   0  -3 65063.8 2360.67   1
  -5  -5  -7 572.842 1076.01  -3
   0   5  -2 572.842 1076.01  -2
   5   0  -2 572.842 1076.01   1
  -5  -5  -6 8365.42 1244.15  -3
   0   5  -1 8365.42 1244.15  -2
   5   0  -1 8365.42 1244.15   1
  -5  -5  -5 3410.82 1183.03  -3
   0   5   0 3410.82 1183.03  -2
   5   0   0 3410.82 1183.03   1
  -5  -5  -4 277134. 4611.08  -3
   0   5   1 277134. 4611.08  -2
   5   0   1 277134. 4611.08   1
  -5  -5  -3 872.893 1057.67  -3
   0   5   2 872.893 1057.67  -2
   5   0   2 872.893 1057.67   1
  -5  -5  -2 210638. 4831.63  -3
   0   5   3 210638. 4831.63  -2
   5   0   3 210638. 4831.63   1
  -5  -5   2 131627. 3654.65  -3
   0   5   7 131627. 3654.65  -2
   5   0   7 131627. 3654.65   1
  -4  -5 -10 1134.70 1349.41  -3
  -1   4  -6 1134.70 1349.41  -2
   5   1  -5 1134.70 1349.41   1
  -4  -5  -9 109436. 3294.46  -3
  -1   4  -5 109436. 3294.46  -2
   5   1  -4 109436. 3294.46   1
  -4  -5  -8 2951.12 748.771  -3
  -1   4  -4 2951.12 748.771  -2
   5   1  -3 2951.12 748.771   1
  -4  -5  -7 31757.0 1112.83  -3
  -1   4  -3 31757.0 1112.83  -2
   5   1  -2 31757.0 1112.83   1
  -4  -5  -6 19362.6 1611.34  -3
  -1   4  -2 19362.6 1611.34  -2
   5   1  -1 19362.6 1611.34   1
  -4  -5  -5 95259.1 2825.30  -3
  -1   4  -1 95259.1 2825.30  -2
   5   1   0 95259.1 2825.30   1
  -4  -5  -4 28265.8 1729.79  -3
  -1   4   0 28265.8 1729.79  -2
   5   1   1 28265.8 1729.79   1
  -4  -5  -3 424559. 5769.49  -3
  -1   4   1 424559. 5769.49  -2
   5   1   2 424559. 5769.49   1
  -4  -5  -2 13241.3 1492.13  -3
  -1   4   2 13241.3 1492.13  -2
   5   1   3 13241.3 1492.13   1
  -4  -5  -1 145006. 3793.20  -3
  -1   4   3 145006. 3793.20  -2
   5   1   4 145006. 3793.20   1
  -3  -5  -8 86922.3 2788.52  -3
  -2   3  -5 86922.3 2788.52  -2
   5   2  -3 86922.3 2788.52   1
  -3  -5  -7 15598.7 1048.60  -3
  -2   3  -4 15598.7 1048.60  -2
   5   2  -2 15598.7 1048.60   1
  -3  -5  -6 203405. 4335.37  -3
  -2   3  -3 203405. 4335.37  -2
   5   2  -1 203405. 4335.37   1
  -3  -5  -5 9633.96 1357.77  -3
  -2   3  -2 9633.96 1357.77  -2
   5   2   0 9633.96 1357.77   1
  -3  -5  -4 117934. 3093.46  -3
  -2   3  -1 117934. 3093.46  -2
   5   2   1 117934. 3093.46   1
  -3  -5  -3 2137.93 1046.74  -3
  -2   3   0 2137.93 1046.74  -2
   5   2   2 2137.93 1046.74   1
  -3  -5  -2 71927.6 2482.52  -3
  -2   3   1 71927.6 2482.52  -2
   5   2   3 71927.6 2482.52   1
  -3  -5  -1 5680.84 1215.52  -3
  -2   3   2 5680.84 1215.52  -2
   5   2   4 5680.84 1215.52   1
  -3  -5   0 152524. 3907.72  -3
  -2   3   3 152524. 3907.72  -2
   5   2   5 152524. 3907.72   1
  -3  -5   3 14684.6 1334.58  -3
  -2   3   6 14684.6 1334.58  -2
   5   2   8 14684.6 1334.58   1
  -2  -5  -6 5673.15 1296.84  -3
  -3   2  -4 5673.15 1296.84  -2
   5   3  -1 5673.15 1296.84   1
  -2  -5  -5 138600. 3612.76  -3
  -3   2  -3 138600. 3612.76  -2
   5   3   0 138600. 3612.76   1
  -2  -5  -4 6149.69 1269.29  -3
  -3   2  -2 6149.69 1269.29  -2
   5   3   1 6149.69 1269.29   1
  -2  -5  -3 76440.1 1404.62  -3
  -3   2  -1 76440.1 1404.62  -2
   5   3   2 76440.1 1404.62   1
  -2  -5  -2 3026.55 635.992  -3
  -3   2   0 3026.55 635.992  -2
   5   3   3 3026.55 635.992   1
  -2  -5  -1 121177. 2109.65  -3
  -3   2   1 121177. 2109.65  -2
   5   3   4 121177. 2109.65   1
  -2  -5   0 10145.2 1397.60  -3
  -3   2   2 10145.2 1397.60  -2
   5   3   5 10145.2 1397.60   1
  -2  -5   1 207300. 3001.67  -3
  -3   2   3 207300. 3001.67  -2
   5   3   6 207300. 3001.67   1
  -2  -5   2 18361.4 1580.62  -3
  -3   2   4 18361.4 1580.62  -2
   5   3   7 18361.4 1580.62   1
  -1  -5  -6 17759.7 494.171  -3
  -4   1  -5 17759.7 494.171  -2
   5   4  -1 17759.7 494.171   1
  -1  -5  -5 2661.20 481.195  -3
  -4   1  -4 2661.20 481.195  -2
   5   4   0 2661.20 481.195   1
  -1  -5  -4 130231. 2153.00  -3
  -4   1  -3 130231. 2153.00  -2
   5   4   1 130231. 2153.00   1
  -1  -5  -3 14127.7 849.974  -3
  -4   1  -2 14127.7 849.974  -2
   5   4   2 14127.7 849.974   1
  -1  -5  -2 391856. 3521.26  -3
  -4   1  -1 391856. 3521.26  -2
   5   4   3 391856. 3521.26   1
  -1  -5  -1 30151.1 1216.12  -3
  -4   1   0 30151.1 1216.12  -2
   5   4   4 30151.1 1216.12   1
  -1  -5   0 91399.3 2722.96  -3
  -4   1   1 91399.3 2722.96  -2
   5   4   5 91399.3 2722.96   1
  -1  -5   1 19114.4 1553.84  -3
  -4   1   2 19114.4 1553.84  -2
   5   4   6 19114.4 1553.84   1
  -1  -5   2 35533.8 2093.48  -3
  -4   1   3 35533.8 2093.48  -2
   5   4   7 35533.8 2093.48   1
   0  -5  -3 144150. 2570.03  -3
  -5   0  -3 144150. 2570.03  -2
   5   5   2 144150. 2570.03   1
   0  -5  -2 84.5718 575.361  -3
  -5   0  -2 84.5718 575.361  -2
   5   5   3 84.5718 575.361   1
   0  -5  -1 171286. 2851.90  -3
  -5   0  -1 171286. 2851.90  -2
   5   5   4 171286. 2851.90   1
   0  -5   0 3034.36 951.084  -3
  -5   0   0 3034.36 951.084  -2
   5   5   5 3034.36 951.084   1
   0  -5   1 4011.93 1011.44  -3
  -5   0   1 4011.93 1011.44  -2
   5   5   6 4011.93 1011.44   1
   0  -5   2 669.644 1104.07  -3
  -5   0   2 669.644 1104.07  -2
   5   5   7 669.644 1104.07   1
   0  -5   3 66262.1 2584.93  -3
  -5   0   3 66262.1 2584.93  -2
   5   5   8 66262.1 2584.93   1
   1  -5  -1 8330.93 1433.76  -3
  -6  -1  -2 8330.93 1433.76  -2
   5   6   4 8330.93 1433.76   1
   1  -5   0 65247.8 2333.73  -3
  -6  -1  -1 65247.8 2333.73  -2
   5   6   5 65247.8 2333.73   1
   1  -5   1 13810.3 1416.25  -3
  -6  -1   0 13810.3 1416.25  -2
   5   6   6 13810.3 1416.25   1
   1  -5   2 100708. 2730.61  -3
  -6  -1   1 100708. 2730.61  -2
   5   6   7 100708. 2730.61   1
   1  -5   3 6657.73 1316.46  -3
  -6  -1   2 6657.73 1316.46  -2
   5   6   8 6657.73 1316.46   1
   2  -5   0 1769.93 1232.32  -3
  -7  -2  -2 1769.93 1232.32  -2
   5   7   5 1769.93 1232.32   1
   2  -5   1 56898.2 2199.78  -3
  -7  -2  -1 56898.2 2199.78  -2
   5   7   6 56898.2 2199.78   1
   2  -5   2 3987.89 1192.73  -3
  -7  -2   0 3987.89 1192.73  -2
   5   7   7 3987.89 1192.73   1
   2  -5   3 119063. 2843.05  -3
  -7  -2   1 119063. 2843.05  -2
   5   7   8 119063. 2843.05   1
   3  -5   1 770.245 1179.42  -3
  -8  -3  -2 770.245 1179.42  -2
   5   8   6 770.245 1179.42   1
   3  -5   2 20268.6 1535.71  -3
  -8  -3  -1 20268.6 1535.71  -2
   5   8   7 20268.6 1535.71   1
   4  -5   1 71733.1 2483.98  -3
  -9  -4  -3 71733.1 2483.98  -2
   5   9   6 71733.1 2483.98   1
  -8  -6  -1 5664.96 1242.46  -3
   2   8   7 5664.96 1242.46  -2
   6  -2   5 5664.96 1242.46   1
  -8  -6   0 28269.7 1949.06  -3
   2   8   8 28269.7 1949.06  -2
   6  -2   6 28269.7 1949.06   1
  -8  -6   1 3299.86 1534.09  -3
   2   8   9 3299.86 1534.09  -2
   6  -2   7 3299.86 1534.09   1
  -7  -6  -9 53826.5 2380.86  -3
   1   7  -2 53826.5 2380.86  -2
   6  -1  -3 53826.5 2380.86   1
  -7  -6  -8 5396.30 1521.32  -3
   1   7  -1 5396.30 1521.32  -2
   6  -1  -2 5396.30 1521.32   1
  -7  -6  -7 84315.5 2966.68  -3
   1   7   0 84315.5 2966.68  -2
   6  -1  -1 84315.5 2966.68   1
  -7  -6  -6 37668.1 2470.15  -3
   1   7   1 37668.1 2470.15  -2
   6  -1   0 37668.1 2470.15   1
  -7  -6  -5 62951.5 3050.34  -3
   1   7   2 62951.5 3050.34  -2
   6  -1   1 62951.5 3050.34   1
  -6  -6  -9 339.588 1289.67  -3
   0   6  -3 339.588 1289.67  -2
   6   0  -3 339.588 1289.67   1
  -6  -6  -8 37424.3 2182.35  -3
   0   6  -2 37424.3 2182.35  -2
   6   0  -2 37424.3 2182.35   1
  -6  -6  -7 7366.20 1200.99  -3
   0   6  -1 7366.20 1200.99  -2
   6   0  -1 7366.20 1200.99   1
  -6  -6  -6 126412. 3430.73  -3
   0   6   0 126412. 3430.73  -2
   6   0   0 126412. 3430.73   1
  -6  -6  -5 427.445 1035.13  -3
   0   6   1 427.445 1035.13  -2
   6   0   1 427.445 1035.13   1
  -6  -6  -4 134207. 3817.39  -3
   0   6   2 134207. 3817.39  -2
   6   0   2 134207. 3817.39   1
  -6  -6  -3 6023.40 1749.86  -3
   0   6   3 6023.40 1749.86  -2
   6   0   3 6023.40 1749.86   1
  -5  -6 -10 252.989 1271.55  -3
  -1   5  -5 252.989 1271.55  -2
   6   1  -4 252.989 1271.55   1
  -5  -6  -9 73368.5 2943.51  -3
  -1   5  -4 73368.5 2943.51  -2
   6   1  -3 73368.5 2943.51   1
  -5  -6  -8 8337.18 1569.96  -3
  -1   5  -3 8337.18 1569.96  -2
   6   1  -2 8337.18 1569.96   1
  -5  -6  -7 108386. 3273.65  -3
  -1   5  -2 108386. 3273.65  -2
   6   1  -1 108386. 3273.65   1
  -5  -6  -6 15644.4 1594.30  -3
  -1   5  -1 15644.4 1594.30  -2
   6   1   0 15644.4 1594.30   1
  -5  -6  -5 74434.1 2701.15  -3
  -1   5   0 74434.1 2701.15  -2
   6   1   1 74434.1 2701.15   1
  -5  -6  -4 8054.52 1496.06  -3
  -1   5   1 8054.52 1496.06  -2
   6   1   2 8054.52 1496.06   1
  -5  -6  -3 182039. 4173.66  -3
  -1   5   2 182039. 4173.66  -2
   6   1   3 182039. 4173.66   1
  -5  -6  -2 1377.82 1444.77  -3
  -1   5   3 1377.82 1444.77  -2
   6   1   4 1377.82 1444.77   1
  -4  -6 -10 41087.7 2567.57  -3
  -2   4  -6 41087.7 2567.57  -2
   6   2  -4 41087.7 2567.57   1
  -4  -6  -9 2741.40 1538.82  -3
  -2   4  -5 2741.40 1538.82  -2
   6   2  -3 2741.40 1538.82   1
  -4  -6  -8 92839.9 3240.61  -3
  -2   4  -4 92839.9 3240.61  -2
   6   2  -2 92839.9 3240.61   1
  -4  -6  -7 3110.82 1396.93  -3
  -2   4  -3 3110.82 1396.93  -2
   6   2  -1 3110.82 1396.93   1
  -4  -6  -6 87170.5 3037.75  -3
  -2   4  -2 87170.5 3037.75  -2
   6   2   0 87170.5 3037.75   1
  -4  -6  -5 7343.23 1339.66  -3
  -2   4  -1 7343.23 1339.66  -2
   6   2   1 7343.23 1339.66   1
  -4  -6  -4 36878.3 2054.53  -3
  -2   4   0 36878.3 2054.53  -2
   6   2   2 36878.3 2054.53   1
  -4  -6  -3 4706.56 1406.37  -3
  -2   4   1 4706.56 1406.37  -2
   6   2   3 4706.56 1406.37   1
  -4  -6  -2 164312. 4190.21  -3
  -2   4   2 164312. 4190.21  -2
   6   2   4 164312. 4190.21   1
  -4  -6  -1 29502.7 2194.09  -3
  -2   4   3 29502.7 2194.09  -2
   6   2   5 29502.7 2194.09   1
  -4  -6   0 137272. 4261.56  -3
  -2   4   4 137272. 4261.56  -2
   6   2   6 137272. 4261.56   1
  -3  -6 -11 17209.3 2509.23  -3
  -3   3  -8 17209.3 2509.23  -2
   6   3  -5 17209.3 2509.23   1
  -3  -6 -10 10039.6 2101.98  -3
  -3   3  -7 10039.6 2101.98  -2
   6   3  -4 10039.6 2101.98   1
  -3  -6  -9 27085.1 2380.16  -3
  -3   3  -6 27085.1 2380.16  -2
   6   3  -3 27085.1 2380.16   1
  -3  -6  -8 38365.1 2457.02  -3
  -3   3  -5 38365.1 2457.02  -2
   6   3  -2 38365.1 2457.02   1
  -3  -6  -7 83467.8 3198.28  -3
  -3   3  -4 83467.8 3198.28  -2
   6   3  -1 83467.8 3198.28   1
  -3  -6  -6 9014.39 1532.17  -3
  -3   3  -3 9014.39 1532.17  -2
   6   3   0 9014.39 1532.17   1
  -3  -6  -5 211542. 4501.64  -3
  -3   3  -2 211542. 4501.64  -2
   6   3   1 211542. 4501.64   1
  -3  -6  -4 31009.3 1985.55  -3
  -3   3  -1 31009.3 1985.55  -2
   6   3   2 31009.3 1985.55   1
  -3  -6  -3 26223.0 1861.84  -3
  -3   3   0 26223.0 1861.84  -2
   6   3   3 26223.0 1861.84   1
  -3  -6  -2 29908.3 1931.33  -3
  -3   3   1 29908.3 1931.33  -2
   6   3   4 29908.3 1931.33   1
  -3  -6  -1 215162. 4638.96  -3
  -3   3   2 215162. 4638.96  -2
   6   3   5 215162. 4638.96   1
  -3  -6   0 9433.21 1590.32  -3
  -3   3   3 9433.21 1590.32  -2
   6   3   6 9433.21 1590.32   1
  -3  -6   1 96315.5 3657.33  -3
  -3   3   4 96315.5 3657.33  -2
   6   3   7 96315.5 3657.33   1
  -2  -6  -6 117709. 3633.85  -3
  -4   2  -4 117709. 3633.85  -2
   6   4   0 117709. 3633.85   1
  -2  -6  -5 29865.2 2124.80  -3
  -4   2  -3 29865.2 2124.80  -2
   6   4   1 29865.2 2124.80   1
  -2  -6  -4 161862. 2060.98  -3
  -4   2  -2 161862. 2060.98  -2
   6   4   2 161862. 2060.98   1
  -2  -6  -3 4899.43 751.683  -3
  -4   2  -1 4899.43 751.683  -2
   6   4   3 4899.43 751.683   1
  -2  -6  -2 40307.4 1342.94  -3
  -4   2   0 40307.4 1342.94  -2
   6   4   4 40307.4 1342.94   1
  -2  -6  -1 6651.89 1349.97  -3
  -4   2   1 6651.89 1349.97  -2
   6   4   5 6651.89 1349.97   1
  -2  -6   0 83078.4 2971.55  -3
  -4   2   2 83078.4 2971.55  -2
   6   4   6 83078.4 2971.55   1
  -2  -6   1 4394.88 1537.66  -3
  -4   2   3 4394.88 1537.66  -2
   6   4   7 4394.88 1537.66   1
  -1  -6  -5 23677.8 1115.48  -3
  -5   1  -4 23677.8 1115.48  -2
   6   5   1 23677.8 1115.48   1
  -1  -6  -4 1668.11 597.231  -3
  -5   1  -3 1668.11 597.231  -2
   6   5   2 1668.11 597.231   1
  -1  -6  -3 166714. 2430.68  -3
  -5   1  -2 166714. 2430.68  -2
   6   5   3 166714. 2430.68   1
  -1  -6  -2 9588.33 972.624  -3
  -5   1  -1 9588.33 972.624  -2
   6   5   4 9588.33 972.624   1
  -1  -6  -1 67286.7 2649.46  -3
  -5   1   0 67286.7 2649.46  -2
   6   5   5 67286.7 2649.46   1
  -1  -6   0 14150.3 1599.93  -3
  -5   1   1 14150.3 1599.93  -2
   6   5   6 14150.3 1599.93   1
  -1  -6   1 103683. 3221.97  -3
  -5   1   2 103683. 3221.97  -2
   6   5   7 103683. 3221.97   1
  -1  -6   2 7542.18 1640.78  -3
  -5   1   3 7542.18 1640.78  -2
   6   5   8 7542.18 1640.78   1
   0  -6  -5 306.521 670.582  -3
  -6   0  -5 306.521 670.582  -2
   6   6   1 306.521 670.582   1
   0  -6  -4 55100.5 1904.68  -3
  -6   0  -4 55100.5 1904.68  -2
   6   6   2 55100.5 1904.68   1
   0  -6  -3 3756.98 751.212  -3
  -6   0  -3 3756.98 751.212  -2
   6   6   3 3756.98 751.212   1
   0  -6  -2 84730.9 2902.47  -3
  -6   0  -2 84730.9 2902.47  -2
   6   6   4 84730.9 2902.47   1
   0  -6  -1-29.6218 1054.20  -3
  -6   0  -1-29.6218 1054.20  -2
   6   6   5-29.6218 1054.20   1
   0  -6   0 114677. 3280.52  -3
  -6   0   0 114677. 3280.52  -2
   6   6   6 114677. 3280.52   1
   0  -6   1 6471.84 1479.08  -3
  -6   0   1 6471.84 1479.08  -2
   6   6   7 6471.84 1479.08   1
   0  -6   2 36065.8 2250.65  -3
  -6   0   2 36065.8 2250.65  -2
   6   6   8 36065.8 2250.65   1
   0  -6   3 572.501 1306.34  -3
  -6   0   3 572.501 1306.34  -2
   6   6   9 572.501 1306.34   1
   1  -6  -2 11906.1 1756.82  -3
  -7  -1  -3 11906.1 1756.82  -2
   6   7   4 11906.1 1756.82   1
   1  -6  -1 48341.5 2411.50  -3
  -7  -1  -2 48341.5 2411.50  -2
   6   7   5 48341.5 2411.50   1
   1  -6   0 32462.3 2048.70  -3
  -7  -1  -1 32462.3 2048.70  -2
   6   7   6 32462.3 2048.70   1
   1  -6   1 75789.3 2805.64  -3
  -7  -1   0 75789.3 2805.64  -2
   6   7   7 75789.3 2805.64   1
   1  -6   2 7569.76 1522.11  -3
  -7  -1   1 7569.76 1522.11  -2
   6   7   8 7569.76 1522.11   1
   2  -6  -1 12115.9 1803.20  -3
  -8  -2  -3 12115.9 1803.20  -2
   6   8   5 12115.9 1803.20   1
   2  -6   0 31278.7 2099.91  -3
  -8  -2  -2 31278.7 2099.91  -2
   6   8   6 31278.7 2099.91   1
   2  -6   1 3304.74 1382.27  -3
  -8  -2  -1 3304.74 1382.27  -2
   6   8   7 3304.74 1382.27   1
   2  -6   2 105474. 3047.85  -3
  -8  -2   0 105474. 3047.85  -2
   6   8   8 105474. 3047.85   1
   3  -6   0 2383.16 1512.52  -3
  -9  -3  -3 2383.16 1512.52  -2
   6   9   6 2383.16 1512.52   1
   3  -6   1 35881.6 2136.20  -3
  -9  -3  -2 35881.6 2136.20  -2
   6   9   7 35881.6 2136.20   1
   4  -6   0 63907.9 2935.05  -3
 -10  -4  -4 63907.9 2935.05  -2
   6  10   6 63907.9 2935.05   1
  -8  -7  -9 31474.1 2496.55  -3
   1   8  -1 31474.1 2496.55  -2
   7  -1  -2 31474.1 2496.55   1
  -8  -7  -8 2452.27 1702.07  -3
   1   8   0 2452.27 1702.07  -2
   7  -1  -1 2452.27 1702.07   1
  -8  -7  -7 107098. 4196.20  -3
   1   8   1 107098. 4196.20  -2
   7  -1   0 107098. 4196.20   1
  -8  -7  -6 12620.5 2237.63  -3
   1   8   2 12620.5 2237.63  -2
   7  -1   1 12620.5 2237.63   1
   0   7  -3 25884.7 2089.94  -2
   7   0  -3 25884.7 2089.94   1
  -7  -7  -9 3147.33 1606.23  -3
   0   7  -2 3147.33 1606.23  -2
   7   0  -2 3147.33 1606.23   1
  -7  -7  -8 72230.8 2946.12  -3
   0   7  -1 72230.8 2946.12  -2
   7   0  -1 72230.8 2946.12   1
  -7  -7  -7 1661.89 1494.28  -3
   0   7   0 1661.89 1494.28  -2
   7   0   0 1661.89 1494.28   1
  -7  -7  -6 143488. 4116.10  -3
   0   7   1 143488. 4116.10  -2
   7   0   1 143488. 4116.10   1
  -7  -7  -5 1070.81 1373.91  -3
   0   7   2 1070.81 1373.91  -2
   7   0   2 1070.81 1373.91   1
  -7  -7  -4 8045.25 1990.21  -3
   0   7   3 8045.25 1990.21  -2
   7   0   3 8045.25 1990.21   1
  -6  -7 -10 2002.75 1664.97  -3
  -1   6  -4 2002.75 1664.97  -2
   7   1  -3 2002.75 1664.97   1
  -6  -7  -9 53648.4 2746.90  -3
  -1   6  -3 53648.4 2746.90  -2
   7   1  -2 53648.4 2746.90   1
  -6  -7  -8 6771.55 1607.46  -3
  -1   6  -2 6771.55 1607.46  -2
   7   1  -1 6771.55 1607.46   1
  -6  -7  -7 82675.5 3135.21  -3
  -1   6  -1 82675.5 3135.21  -2
   7   1   0 82675.5 3135.21   1
  -6  -7  -6 34883.3 2345.98  -3
  -1   6   0 34883.3 2345.98  -2
   7   1   1 34883.3 2345.98   1
  -6  -7  -5 56377.9 2795.26  -3
  -1   6   1 56377.9 2795.26  -2
   7   1   2 56377.9 2795.26   1
  -6  -7  -4 13511.1 1888.13  -3
  -1   6   2 13511.1 1888.13  -2
   7   1   3 13511.1 1888.13   1
  -6  -7  -3 42482.9 2796.67  -3
  -1   6   3 42482.9 2796.67  -2
   7   1   4 42482.9 2796.67   1
  -5  -7 -10 16677.6 2170.67  -3
  -2   5  -5 16677.6 2170.67  -2
   7   2  -3 16677.6 2170.67   1
  -5  -7  -9 7218.91 1828.42  -3
  -2   5  -4 7218.91 1828.42  -2
   7   2  -2 7218.91 1828.42   1
  -5  -7  -8 106778. 3584.13  -3
  -2   5  -3 106778. 3584.13  -2
   7   2  -1 106778. 3584.13   1
  -5  -7  -7 4927.58 1603.56  -3
  -2   5  -2 4927.58 1603.56  -2
   7   2   0 4927.58 1603.56   1
  -5  -7  -6 59876.5 2715.28  -3
  -2   5  -1 59876.5 2715.28  -2
   7   2   1 59876.5 2715.28   1
  -5  -7  -5 1376.53 1293.15  -3
  -2   5   0 1376.53 1293.15  -2
   7   2   2 1376.53 1293.15   1
  -5  -7  -4 76877.0 3115.18  -3
  -2   5   1 76877.0 3115.18  -2
   7   2   3 76877.0 3115.18   1
  -5  -7  -3 3338.60 1532.16  -3
  -2   5   2 3338.60 1532.16  -2
   7   2   4 3338.60 1532.16   1
  -5  -7  -2 128145. 4096.00  -3
  -2   5   3 128145. 4096.00  -2
   7   2   5 128145. 4096.00   1
  -5  -7  -1 3044.93 1823.10  -3
  -2   5   4 3044.93 1823.10  -2
   7   2   6 3044.93 1823.10   1
  -4  -7 -11 20039.3 2480.27  -3
  -3   4  -7 20039.3 2480.27  -2
   7   3  -4 20039.3 2480.27   1
  -4  -7 -10 4564.06 2106.32  -3
  -3   4  -6 4564.06 2106.32  -2
   7   3  -3 4564.06 2106.32   1
  -4  -7  -9 54492.3 2986.81  -3
  -3   4  -5 54492.3 2986.81  -2
   7   3  -2 54492.3 2986.81   1
  -4  -7  -8 16145.2 2012.46  -3
  -3   4  -4 16145.2 2012.46  -2
   7   3  -1 16145.2 2012.46   1
  -4  -7  -7 140615. 4055.23  -3
  -3   4  -3 140615. 4055.23  -2
   7   3   0 140615. 4055.23   1
  -4  -7  -6 14737.3 1711.01  -3
  -3   4  -2 14737.3 1711.01  -2
   7   3   1 14737.3 1711.01   1
  -4  -7  -5 55520.1 2588.59  -3
  -3   4  -1 55520.1 2588.59  -2
   7   3   2 55520.1 2588.59   1
  -4  -7  -4 2529.50 1346.74  -3
  -3   4   0 2529.50 1346.74  -2
   7   3   3 2529.50 1346.74   1
  -4  -7  -3 56446.5 2642.03  -3
  -3   4   1 56446.5 2642.03  -2
   7   3   4 56446.5 2642.03   1
  -4  -7  -2 4169.95 1479.89  -3
  -3   4   2 4169.95 1479.89  -2
   7   3   5 4169.95 1479.89   1
  -4  -7  -1 107549. 3696.36  -3
  -3   4   3 107549. 3696.36  -2
   7   3   6 107549. 3696.36   1
  -4  -7   0 1948.30 1749.69  -3
  -3   4   4 1948.30 1749.69  -2
   7   3   7 1948.30 1749.69   1
  -3  -7 -11 6095.83 2279.20  -3
  -4   3  -8 6095.83 2279.20  -2
   7   4  -4 6095.83 2279.20   1
  -3  -7 -10 31186.9 2781.06  -3
  -4   3  -7 31186.9 2781.06  -2
   7   4  -3 31186.9 2781.06   1
  -3  -7  -9 7738.78 2074.78  -3
  -4   3  -6 7738.78 2074.78  -2
   7   4  -2 7738.78 2074.78   1
  -3  -7  -8 35414.6 2594.01  -3
  -4   3  -5 35414.6 2594.01  -2
   7   4  -1 35414.6 2594.01   1
  -3  -7  -7 1546.50 1538.75  -3
  -4   3  -4 1546.50 1538.75  -2
   7   4   0 1546.50 1538.75   1
  -3  -7  -6 106341. 3567.03  -3
  -4   3  -3 106341. 3567.03  -2
   7   4   1 106341. 3567.03   1
  -3  -7  -5 3807.17 1441.28  -3
  -4   3  -2 3807.17 1441.28  -2
   7   4   2 3807.17 1441.28   1
  -3  -7  -4 52366.6 2564.89  -3
  -4   3  -1 52366.6 2564.89  -2
   7   4   3 52366.6 2564.89   1
  -3  -7  -3 1339.12 1345.59  -3
  -4   3   0 1339.12 1345.59  -2
   7   4   4 1339.12 1345.59   1
  -3  -7  -2 53395.5 2557.45  -3
  -4   3   1 53395.5 2557.45  -2
   7   4   5 53395.5 2557.45   1
  -3  -7  -1 14186.9 1765.83  -3
  -4   3   2 14186.9 1765.83  -2
   7   4   6 14186.9 1765.83   1
  -3  -7   0 135241. 4075.23  -3
  -4   3   3 135241. 4075.23  -2
   7   4   7 135241. 4075.23   1
  -3  -7   1 15541.5 2260.59  -3
  -4   3   4 15541.5 2260.59  -2
   7   4   8 15541.5 2260.59   1
  -2  -7  -7 70018.1 3196.30  -3
  -5   2  -5 70018.1 3196.30  -2
   7   5   0 70018.1 3196.30   1
  -2  -7  -6 2548.30 1571.41  -3
  -5   2  -4 2548.30 1571.41  -2
   7   5   1 2548.30 1571.41   1
  -2  -7  -5 114770. 3656.62  -3
  -5   2  -3 114770. 3656.62  -2
   7   5   2 114770. 3656.62   1
  -2  -7  -4 2107.36 702.367  -3
  -5   2  -2 2107.36 702.367  -2
   7   5   3 2107.36 702.367   1
  -2  -7  -3 72734.7 1793.27  -3
  -5   2  -1 72734.7 1793.27  -2
   7   5   4 72734.7 1793.27   1
  -2  -7  -2 730.186 1406.51  -3
  -5   2   0 730.186 1406.51  -2
   7   5   5 730.186 1406.51   1
  -2  -7  -1 57250.8 2675.04  -3
  -5   2   1 57250.8 2675.04  -2
   7   5   6 57250.8 2675.04   1
  -2  -7   0 4760.40 1602.66  -3
  -5   2   2 4760.40 1602.66  -2
   7   5   7 4760.40 1602.66   1
  -2  -7   1 119479. 3866.46  -3
  -5   2   3 119479. 3866.46  -2
   7   5   8 119479. 3866.46   1
  -1  -7  -5 5007.64 1737.60  -3
  -6   1  -4 5007.64 1737.60  -2
   7   6   2 5007.64 1737.60   1
  -1  -7  -4 35529.6 1408.67  -3
  -6   1  -3 35529.6 1408.67  -2
   7   6   3 35529.6 1408.67   1
  -1  -7  -3 12877.8 1732.81  -3
  -6   1  -2 12877.8 1732.81  -2
   7   6   4 12877.8 1732.81   1
  -1  -7  -2 53780.9 2660.22  -3
  -6   1  -1 53780.9 2660.22  -2
   7   6   5 53780.9 2660.22   1
  -1  -7  -1 33495.2 2429.39  -3
  -6   1   0 33495.2 2429.39  -2
   7   6   6 33495.2 2429.39   1
  -1  -7   0 73769.1 3016.79  -3
  -6   1   1 73769.1 3016.79  -2
   7   6   7 73769.1 3016.79   1
  -1  -7   1 6743.01 1673.44  -3
  -6   1   2 6743.01 1673.44  -2
   7   6   8 6743.01 1673.44   1
  -1  -7   2 54302.6 2938.33  -3
  -6   1   3 54302.6 2938.33  -2
   7   6   9 54302.6 2938.33   1
   0  -7  -4 1317.26 1737.58  -3
  -7   0  -4 1317.26 1737.58  -2
   7   7   3 1317.26 1737.58   1
   0  -7  -3 4507.89 1515.43  -3
  -7   0  -3 4507.89 1515.43  -2
   7   7   4 4507.89 1515.43   1
   0  -7  -2 716.399 1435.14  -3
  -7   0  -2 716.399 1435.14  -2
   7   7   5 716.399 1435.14   1
   0  -7  -1 88389.4 3267.82  -3
  -7   0  -1 88389.4 3267.82  -2
   7   7   6 88389.4 3267.82   1
   0  -7   0 294.076 1487.17  -3
  -7   0   0 294.076 1487.17  -2
   7   7   7 294.076 1487.17   1
   0  -7   1 68755.2 3097.76  -3
  -7   0   1 68755.2 3097.76  -2
   7   7   8 68755.2 3097.76   1
   0  -7   2 2735.16 1715.91  -3
  -7   0   2 2735.16 1715.91  -2
   7   7   9 2735.16 1715.91   1
   1  -7  -3 19304.9 2373.19  -3
  -8  -1  -4 19304.9 2373.19  -2
   7   8   4 19304.9 2373.19   1
   1  -7  -2 27620.4 2400.60  -3
  -8  -1  -3 27620.4 2400.60  -2
   7   8   5 27620.4 2400.60   1
   1  -7  -1 10087.0 1865.93  -3
  -8  -1  -2 10087.0 1865.93  -2
   7   8   6 10087.0 1865.93   1
   1  -7   0 100950. 3488.73  -3
  -8  -1  -1 100950. 3488.73  -2
   7   8   7 100950. 3488.73   1
   1  -7   1 1714.69 1515.26  -3
  -8  -1   0 1714.69 1515.26  -2
   7   8   8 1714.69 1515.26   1
   2  -7  -2 2602.58 1952.50  -3
  -9  -2  -4 2602.58 1952.50  -2
   7   9   5 2602.58 1952.50   1
   2  -7  -1 11919.6 2010.94  -3
  -9  -2  -3 11919.6 2010.94  -2
   7   9   6 11919.6 2010.94   1
   2  -7   0 1211.42 1683.71  -3
  -9  -2  -2 1211.42 1683.71  -2
   7   9   7 1211.42 1683.71   1
   3  -7  -2 33001.2 2773.88  -3
 -10  -3  -5 33001.2 2773.88  -2
   7  10   5 33001.2 2773.88   1
   3  -7  -1 357.416 1967.63  -3
 -10  -3  -4 357.416 1967.63  -2
   7  10   6 357.416 1967.63   1
   3  -7   0 23070.9 2281.80  -3
 -10  -3  -3 23070.9 2281.80  -2
   7  10   7 23070.9 2281.80   1
  -8  -8  -9 809.930 1847.73  -3
   0   8  -1 809.930 1847.73  -2
   8   0  -1 809.930 1847.73   1
  -8  -8  -8 31902.6 2759.01  -3
   0   8   0 31902.6 2759.01  -2
   8   0   0 31902.6 2759.01   1
  -8  -8  -7 3753.67 1988.62  -3
   0   8   1 3753.67 1988.62  -2
   8   0   1 3753.67 1988.62   1
  -8  -8  -6 82275.2 4069.35  -3
   0   8   2 82275.2 4069.35  -2
   8   0   2 82275.2 4069.35   1
  -8  -8  -5 1262.75 2002.57  -3
   0   8   3 1262.75 2002.57  -2
   8   0   3 1262.75 2002.57   1
  -7  -8 -10 2685.27 1894.97  -3
  -1   7  -3 2685.27 1894.97  -2
   8   1  -2 2685.27 1894.97   1
  -7  -8  -9 31409.3 2682.35  -3
  -1   7  -2 31409.3 2682.35  -2
   8   1  -1 31409.3 2682.35   1
  -7  -8  -8 757.046 1603.40  -3
  -1   7  -1 757.046 1603.40  -2
   8   1   0 757.046 1603.40   1
  -7  -8  -7 104130. 3899.12  -3
  -1   7   0 104130. 3899.12  -2
   8   1   1 104130. 3899.12   1
  -7  -8  -6 16241.7 2259.95  -3
  -1   7   1 16241.7 2259.95  -2
   8   1   2 16241.7 2259.95   1
  -7  -8  -5 34356.6 2797.46  -3
  -1   7   2 34356.6 2797.46  -2
   8   1   3 34356.6 2797.46   1
  -7  -8  -4 22077.6 2576.30  -3
  -1   7   3 22077.6 2576.30  -2
   8   1   4 22077.6 2576.30   1
  -2   6  -5 340.386 1682.31  -2
   8   2  -3 340.386 1682.31   1
  -6  -8 -10 32582.3 2853.14  -3
  -2   6  -4 32582.3 2853.14  -2
   8   2  -2 32582.3 2853.14   1
  -6  -8  -9 10550.1 2135.65  -3
  -2   6  -3 10550.1 2135.65  -2
   8   2  -1 10550.1 2135.65   1
  -6  -8  -8 104544. 3752.99  -3
  -2   6  -2 104544. 3752.99  -2
   8   2   0 104544. 3752.99   1
  -6  -8  -7 3353.08 1755.38  -3
  -2   6  -1 3353.08 1755.38  -2
   8   2   1 3353.08 1755.38   1
  -6  -8  -6 34325.9 2545.31  -3
  -2   6   0 34325.9 2545.31  -2
   8   2   2 34325.9 2545.31   1
  -6  -8  -5 13136.3 2002.07  -3
  -2   6   1 13136.3 2002.07  -2
   8   2   3 13136.3 2002.07   1
  -6  -8  -4 49485.9 2929.06  -3
  -2   6   2 49485.9 2929.06  -2
   8   2   4 49485.9 2929.06   1
  -6  -8  -3 34097.8 2785.02  -3
  -2   6   3 34097.8 2785.02  -2
   8   2   5 34097.8 2785.02   1
  -6  -8  -2 81384.1 4015.63  -3
  -2   6   4 81384.1 4015.63  -2
   8   2   6 81384.1 4015.63   1
  -5  -8 -11 24393.1 2706.43  -3
  -3   5  -6 24393.1 2706.43  -2
   8   3  -3 24393.1 2706.43   1
  -5  -8 -10 289.650 2111.71  -3
  -3   5  -5 289.650 2111.71  -2
   8   3  -2 289.650 2111.71   1
  -5  -8  -9 73531.3 3490.34  -3
  -3   5  -4 73531.3 3490.34  -2
   8   3  -1 73531.3 3490.34   1
  -5  -8  -8 2053.90 1728.78  -3
  -3   5  -3 2053.90 1728.78  -2
   8   3   0 2053.90 1728.78   1
  -5  -8  -7 22036.4 2164.12  -3
  -3   5  -2 22036.4 2164.12  -2
   8   3   1 22036.4 2164.12   1
  -5  -8  -6 4.89172 1405.00  -3
  -3   5  -1 4.89172 1405.00  -2
   8   3   2 4.89172 1405.00   1
  -5  -8  -5 66246.5 3019.02  -3
  -3   5   0 66246.5 3019.02  -2
   8   3   3 66246.5 3019.02   1
  -5  -8  -4 3826.20 1740.14  -3
  -3   5   1 3826.20 1740.14  -2
   8   3   4 3826.20 1740.14   1
  -5  -8  -3 73360.5 3383.08  -3
  -3   5   2 73360.5 3383.08  -2
   8   3   5 73360.5 3383.08   1
  -5  -8  -2 14772.6 2292.41  -3
  -3   5   3 14772.6 2292.41  -2
   8   3   6 14772.6 2292.41   1
  -5  -8  -1 84825.7 3899.05  -3
  -3   5   4 84825.7 3899.05  -2
   8   3   7 84825.7 3899.05   1
  -4  -8 -10 49590.0 3144.16  -3
  -4   4  -6 49590.0 3144.16  -2
   8   4  -2 49590.0 3144.16   1
  -4  -8  -9 1950.09 1852.01  -3
  -4   4  -5 1950.09 1852.01  -2
   8   4  -1 1950.09 1852.01   1
  -4  -8  -8 21403.0 2300.41  -3
  -4   4  -4 21403.0 2300.41  -2
   8   4   0 21403.0 2300.41   1
  -4  -8  -7 2147.04 1682.05  -3
  -4   4  -3 2147.04 1682.05  -2
   8   4   1 2147.04 1682.05   1
  -4  -8  -6 67612.2 3022.07  -3
  -4   4  -2 67612.2 3022.07  -2
   8   4   2 67612.2 3022.07   1
  -4  -8  -5 7877.46 1781.72  -3
  -4   4  -1 7877.46 1781.72  -2
   8   4   3 7877.46 1781.72   1
  -4  -8  -4 109493. 3651.72  -3
  -4   4   0 109493. 3651.72  -2
   8   4   4 109493. 3651.72   1
  -4  -8  -3 8986.20 1790.97  -3
  -4   4   1 8986.20 1790.97  -2
   8   4   5 8986.20 1790.97   1
  -4  -8  -2 66611.1 3046.40  -3
  -4   4   2 66611.1 3046.40  -2
   8   4   6 66611.1 3046.40   1
  -4  -8  -1 1278.64 1796.68  -3
  -4   4   3 1278.64 1796.68  -2
   8   4   7 1278.64 1796.68   1
  -4  -8   0 20937.4 2604.20  -3
  -4   4   4 20937.4 2604.20  -2
   8   4   8 20937.4 2604.20   1
  -3  -8  -9 20777.8 2395.18  -3
  -5   3  -6 20777.8 2395.18  -2
   8   5  -1 20777.8 2395.18   1
  -3  -8  -8 5143.79 1996.53  -3
  -5   3  -5 5143.79 1996.53  -2
   8   5   0 5143.79 1996.53   1
  -3  -8  -7 72499.4 3351.29  -3
  -5   3  -4 72499.4 3351.29  -2
   8   5   1 72499.4 3351.29   1
  -3  -8  -6 13322.3 2040.18  -3
  -5   3  -3 13322.3 2040.18  -2
   8   5   2 13322.3 2040.18   1
  -3  -8  -5 67591.0 3123.67  -3
  -5   3  -2 67591.0 3123.67  -2
   8   5   3 67591.0 3123.67   1
  -3  -8  -4 5247.16 1709.11  -3
  -5   3  -1 5247.16 1709.11  -2
   8   5   4 5247.16 1709.11   1
  -3  -8  -3 66205.4 3057.25  -3
  -5   3   0 66205.4 3057.25  -2
   8   5   5 66205.4 3057.25   1
  -3  -8  -2 670.592 1545.77  -3
  -5   3   1 670.592 1545.77  -2
   8   5   6 670.592 1545.77   1
  -3  -8  -1 19940.5 2118.16  -3
  -5   3   2 19940.5 2118.16  -2
   8   5   7 19940.5 2118.16   1
  -3  -8   0 1312.32 1808.95  -3
  -5   3   3 1312.32 1808.95  -2
   8   5   8 1312.32 1808.95   1
  -3  -8   1 86224.3 3886.95  -3
  -5   3   4 86224.3 3886.95  -2
   8   5   9 86224.3 3886.95   1
   8   6  -1 794.646 1395.91   1
  -2  -8  -8 33716.1 2849.91  -3
  -6   2  -6 33716.1 2849.91  -2
   8   6   0 33716.1 2849.91   1
  -2  -8  -7 5212.02 1942.40  -3
  -6   2  -5 5212.02 1942.40  -2
   8   6   1 5212.02 1942.40   1
  -2  -8  -6 70267.6 3386.84  -3
  -6   2  -4 70267.6 3386.84  -2
   8   6   2 70267.6 3386.84   1
  -2  -8  -5 32899.6 2544.71  -3
  -6   2  -3 32899.6 2544.71  -2
   8   6   3 32899.6 2544.71   1
  -2  -8  -4 40492.7 2641.28  -3
  -6   2  -2 40492.7 2641.28  -2
   8   6   4 40492.7 2641.28   1
  -2  -8  -3 11146.5 1917.83  -3
  -6   2  -1 11146.5 1917.83  -2
   8   6   5 11146.5 1917.83   1
  -2  -8  -2 31637.7 2474.95  -3
  -6   2   0 31637.7 2474.95  -2
   8   6   6 31637.7 2474.95   1
  -2  -8  -1 3707.38 1773.29  -3
  -6   2   1 3707.38 1773.29  -2
   8   6   7 3707.38 1773.29   1
  -2  -8   0 103707. 3770.21  -3
  -6   2   2 103707. 3770.21  -2
   8   6   8 103707. 3770.21   1
  -2  -8   1 8782.60 2143.30  -3
  -6   2   3 8782.60 2143.30  -2
   8   6   9 8782.60 2143.30   1
  -1  -8  -7 40948.1 3144.42  -3
  -7   1  -6 40948.1 3144.42  -2
   8   7   1 40948.1 3144.42   1
  -1  -8  -6 2084.06 2010.21  -3
  -7   1  -5 2084.06 2010.21  -2
   8   7   2 2084.06 2010.21   1
  -1  -8  -5 72131.7 3432.13  -3
  -7   1  -4 72131.7 3432.13  -2
   8   7   3 72131.7 3432.13   1
  -1  -8  -4 17780.9 2312.45  -3
  -7   1  -3 17780.9 2312.45  -2
   8   7   4 17780.9 2312.45   1
  -1  -8  -3 26717.8 2492.13  -3
  -7   1  -2 26717.8 2492.13  -2
   8   7   5 26717.8 2492.13   1
  -1  -8  -2 11043.1 1986.02  -3
  -7   1  -1 11043.1 1986.02  -2
   8   7   6 11043.1 1986.02   1
  -1  -8  -1 94677.6 3757.15  -3
  -7   1   0 94677.6 3757.15  -2
   8   7   7 94677.6 3757.15   1
  -1  -8   0 307.670 1472.91  -3
  -7   1   1 307.670 1472.91  -2
   8   7   8 307.670 1472.91   1
  -1  -8   1 27036.6 2505.59  -3
  -7   1   2 27036.6 2505.59  -2
   8   7   9 27036.6 2505.59   1
  -1  -8   2 1716.43 1968.95  -3
  -7   1   3 1716.43 1968.95  -2
   8   7  10 1716.43 1968.95   1
   0  -8  -6 41395.6 3244.97  -3
  -8   0  -6 41395.6 3244.97  -2
   8   8   2 41395.6 3244.97   1
   0  -8  -5 2255.31 1984.34  -3
  -8   0  -5 2255.31 1984.34  -2
   8   8   3 2255.31 1984.34   1
   0  -8  -4 20627.1 2154.14  -3
  -8   0  -4 20627.1 2154.14  -2
   8   8   4 20627.1 2154.14   1
   0  -8  -3-515.237 1755.67  -3
  -8   0  -3-515.237 1755.67  -2
   8   8   5-515.237 1755.67   1
   0  -8  -2 70310.0 3437.25  -3
  -8   0  -2 70310.0 3437.25  -2
   8   8   6 70310.0 3437.25   1
   0  -8  -1 1830.05 1782.13  -3
  -8   0  -1 1830.05 1782.13  -2
   8   8   7 1830.05 1782.13   1
   0  -8   0 24681.3 2416.37  -3
  -8   0   0 24681.3 2416.37  -2
   8   8   8 24681.3 2416.37   1
   0  -8   1 591.981 1470.38  -3
  -8   0   1 591.981 1470.38  -2
   8   8   9 591.981 1470.38   1
   8   9   3 3697.49 1416.48   1
   1  -8  -4 1869.82 2220.48  -3
  -9  -1  -5 1869.82 2220.48  -2
   8   9   4 1869.82 2220.48   1
   1  -8  -3 54869.2 3333.65  -3
  -9  -1  -4 54869.2 3333.65  -2
   8   9   5 54869.2 3333.65   1
   1  -8  -2 1568.06 1840.52  -3
  -9  -1  -3 1568.06 1840.52  -2
   8   9   6 1568.06 1840.52   1
   1  -8  -1 39936.3 2843.00  -3
  -9  -1  -2 39936.3 2843.00  -2
   8   9   7 39936.3 2843.00   1
   1  -8   0 467.916 1865.30  -3
  -9  -1  -1 467.916 1865.30  -2
   8   9   8 467.916 1865.30   1
   2  -8  -2 26424.3 2783.10  -3
 -10  -2  -4 26424.3 2783.10  -2
   8  10   6 26424.3 2783.10   1
   2  -8  -1 10871.8 2271.16  -3
 -10  -2  -3 10871.8 2271.16  -2
   8  10   7 10871.8 2271.16   1
  -9  -9  -9-412.066 2384.59  -3
   0   9   0-412.066 2384.59  -2
   9   0   0-412.066 2384.59   1
  -9  -9  -8 8719.42 2669.41  -3
   0   9   1 8719.42 2669.41  -2
   9   0   1 8719.42 2669.41   1
  -9  -9  -7 2833.21 2477.67  -3
   0   9   2 2833.21 2477.67  -2
   9   0   2 2833.21 2477.67   1
  -8  -9 -10 3215.53 2172.39  -3
  -1   8  -2 3215.53 2172.39  -2
   9   1  -1 3215.53 2172.39   1
  -8  -9  -9 28721.0 2808.24  -3
  -1   8  -1 28721.0 2808.24  -2
   9   1   0 28721.0 2808.24   1
  -8  -9  -8 465.101 1939.69  -3
  -1   8   0 465.101 1939.69  -2
   9   1   1 465.101 1939.69   1
  -8  -9  -7 46846.9 3257.39  -3
  -1   8   1 46846.9 3257.39  -2
   9   1   2 46846.9 3257.39   1
  -8  -9  -6 3609.15 2196.81  -3
  -1   8   2 3609.15 2196.81  -2
   9   1   3 3609.15 2196.81   1
  -8  -9  -5 67239.9 4007.96  -3
  -1   8   3 67239.9 4007.96  -2
   9   1   4 67239.9 4007.96   1
  -7  -9 -10 25985.5 2691.26  -3
  -2   7  -3 25985.5 2691.26  -2
   9   2  -1 25985.5 2691.26   1
  -7  -9  -9 952.420 2026.40  -3
  -2   7  -2 952.420 2026.40  -2
   9   2   0 952.420 2026.40   1
  -7  -9  -8 60836.3 3376.61  -3
  -2   7  -1 60836.3 3376.61  -2
   9   2   1 60836.3 3376.61   1
  -7  -9  -7 2210.74 1995.19  -3
  -2   7   0 2210.74 1995.19  -2
   9   2   2 2210.74 1995.19   1
  -7  -9  -6 13958.4 2272.46  -3
  -2   7   1 13958.4 2272.46  -2
   9   2   3 13958.4 2272.46   1
  -7  -9  -5 664.128 1845.59  -3
  -2   7   2 664.128 1845.59  -2
   9   2   4 664.128 1845.59   1
  -7  -9  -4 83680.5 4175.16  -3
  -2   7   3 83680.5 4175.16  -2
   9   2   5 83680.5 4175.16   1
  -7  -9  -3 1039.61 2382.78  -3
  -2   7   4 1039.61 2382.78  -2
   9   2   6 1039.61 2382.78   1
  -6  -9 -10 3158.87 2073.73  -3
  -3   6  -4 3158.87 2073.73  -2
   9   3  -1 3158.87 2073.73   1
  -6  -9  -9 37707.9 2890.03  -3
  -3   6  -3 37707.9 2890.03  -2
   9   3   0 37707.9 2890.03   1
  -6  -9  -8 4346.34 1951.98  -3
  -3   6  -2 4346.34 1951.98  -2
   9   3   1 4346.34 1951.98   1
  -6  -9  -7 37984.6 2729.89  -3
  -3   6  -1 37984.6 2729.89  -2
   9   3   2 37984.6 2729.89   1
  -6  -9  -6 150.547 1801.98  -3
  -3   6   0 150.547 1801.98  -2
   9   3   3 150.547 1801.98   1
  -6  -9  -5 61145.1 3242.76  -3
  -3   6   1 61145.1 3242.76  -2
   9   3   4 61145.1 3242.76   1
  -6  -9  -4 2263.39 1925.07  -3
  -3   6   2 2263.39 1925.07  -2
   9   3   5 2263.39 1925.07   1
  -6  -9  -3 63696.2 3513.50  -3
  -3   6   3 63696.2 3513.50  -2
   9   3   6 63696.2 3513.50   1
  -6  -9  -2 7270.35 2523.89  -3
  -3   6   4 7270.35 2523.89  -2
   9   3   7 7270.35 2523.89   1
  -5  -9  -9 1532.16 1962.86  -3
  -4   5  -4 1532.16 1962.86  -2
   9   4   0 1532.16 1962.86   1
  -5  -9  -8 9979.60 2103.98  -3
  -4   5  -3 9979.60 2103.98  -2
   9   4   1 9979.60 2103.98   1
  -5  -9  -7 3463.43 1862.21  -3
  -4   5  -2 3463.43 1862.21  -2
   9   4   2 3463.43 1862.21   1
  -5  -9  -6 67829.9 3158.09  -3
  -4   5  -1 67829.9 3158.09  -2
   9   4   3 67829.9 3158.09   1
  -5  -9  -5 7148.49 1914.26  -3
  -4   5   0 7148.49 1914.26  -2
   9   4   4 7148.49 1914.26   1
  -5  -9  -4 88627.6 3716.85  -3
  -4   5   1 88627.6 3716.85  -2
   9   4   5 88627.6 3716.85   1
  -5  -9  -3 2802.13 1870.58  -3
  -4   5   2 2802.13 1870.58  -2
   9   4   6 2802.13 1870.58   1
  -5  -9  -2 11744.6 2256.83  -3
  -4   5   3 11744.6 2256.83  -2
   9   4   7 11744.6 2256.83   1
  -5  -9  -1-126.589 2184.27  -3
  -4   5   4-126.589 2184.27  -2
   9   4   8-126.589 2184.27   1
  -4  -9  -8 1528.39 1932.43  -3
  -5   4  -4 1528.39 1932.43  -2
   9   5   1 1528.39 1932.43   1
  -4  -9  -7 12332.1 2122.02  -3
  -5   4  -3 12332.1 2122.02  -2
   9   5   2 12332.1 2122.02   1
  -4  -9  -6 4538.83 1897.42  -3
  -5   4  -2 4538.83 1897.42  -2
   9   5   3 4538.83 1897.42   1
  -4  -9  -5 86071.1 3539.93  -3
  -5   4  -1 86071.1 3539.93  -2
   9   5   4 86071.1 3539.93   1
  -4  -9  -4 6935.23 1859.16  -3
  -5   4   0 6935.23 1859.16  -2
   9   5   5 6935.23 1859.16   1
  -4  -9  -3 67757.9 3297.04  -3
  -5   4   1 67757.9 3297.04  -2
   9   5   6 67757.9 3297.04   1
  -4  -9  -2 2032.64 1941.08  -3
  -5   4   2 2032.64 1941.08  -2
   9   5   7 2032.64 1941.08   1
  -4  -9  -1 8183.33 2260.46  -3
  -5   4   3 8183.33 2260.46  -2
   9   5   8 8183.33 2260.46   1
  -4  -9   0 2501.07 2302.76  -3
  -5   4   4 2501.07 2302.76  -2
   9   5   9 2501.07 2302.76   1
  -3  -9  -7 6862.17 2203.79  -3
  -6   3  -4 6862.17 2203.79  -2
   9   6   2 6862.17 2203.79   1
  -3  -9  -6 55965.6 3148.53  -3
  -6   3  -3 55965.6 3148.53  -2
   9   6   3 55965.6 3148.53   1
  -3  -9  -5 3284.26 1900.72  -3
  -6   3  -2 3284.26 1900.72  -2
   9   6   4 3284.26 1900.72   1
  -3  -9  -4 58995.5 3213.49  -3
  -6   3  -1 58995.5 3213.49  -2
   9   6   5 58995.5 3213.49   1
  -3  -9  -3 1572.07 1735.55  -3
  -6   3   0 1572.07 1735.55  -2
   9   6   6 1572.07 1735.55   1
  -3  -9  -2 37553.1 2825.39  -3
  -6   3   1 37553.1 2825.39  -2
   9   6   7 37553.1 2825.39   1
  -3  -9  -1 1808.41 1976.31  -3
  -6   3   2 1808.41 1976.31  -2
   9   6   8 1808.41 1976.31   1
  -3  -9   0 42964.6 3202.79  -3
  -6   3   3 42964.6 3202.79  -2
   9   6   9 42964.6 3202.79   1
  -2  -9  -6 1993.28 1977.45  -3
  -7   2  -4 1993.28 1977.45  -2
   9   7   3 1993.28 1977.45   1
  -2  -9  -5 66354.2 3607.43  -3
  -7   2  -3 66354.2 3607.43  -2
   9   7   4 66354.2 3607.43   1
  -2  -9  -4 2601.91 1825.83  -3
  -7   2  -2 2601.91 1825.83  -2
   9   7   5 2601.91 1825.83   1
  -2  -9  -3 10655.2 2234.76  -3
  -7   2  -1 10655.2 2234.76  -2
   9   7   6 10655.2 2234.76   1
  -2  -9  -2 372.046 1762.77  -3
  -7   2   0 372.046 1762.77  -2
   9   7   7 372.046 1762.77   1
  -2  -9  -1 55648.7 3301.45  -3
  -7   2   1 55648.7 3301.45  -2
   9   7   8 55648.7 3301.45   1
  -2  -9   0 1982.97 2012.91  -3
  -7   2   2 1982.97 2012.91  -2
   9   7   9 1982.97 2012.91   1
  -2  -9   1 22902.8 2864.86  -3
  -7   2   3 22902.8 2864.86  -2
   9   7  10 22902.8 2864.86   1
  -1  -9  -5 6.75291 1711.39  -3
  -8   1  -4 6.75291 1711.39  -2
   9   8   4 6.75291 1711.39   1
  -1  -9  -4 49709.0 3308.52  -3
  -8   1  -3 49709.0 3308.52  -2
   9   8   5 49709.0 3308.52   1
  -1  -9  -3 814.691 1865.82  -3
  -8   1  -2 814.691 1865.82  -2
   9   8   6 814.691 1865.82   1
  -1  -9  -2 41155.4 3187.79  -3
  -8   1  -1 41155.4 3187.79  -2
   9   8   7 41155.4 3187.79   1
  -1  -9  -1 569.974 1894.03  -3
  -8   1   0 569.974 1894.03  -2
   9   8   8 569.974 1894.03   1
  -1  -9   0 21234.0 2680.77  -3
  -8   1   1 21234.0 2680.77  -2
   9   8   9 21234.0 2680.77   1
   0  -9  -3 126857. 4828.23  -3
  -9   0  -3 126857. 4828.23  -2
   9   9   6 126857. 4828.23   1
   0  -9  -2 1410.76 1781.19  -3
  -9   0  -2 1410.76 1781.19  -2
   9   9   7 1410.76 1781.19   1
   0  -9  -1 7003.55 2212.02  -3
  -9   0  -1 7003.55 2212.02  -2
   9   9   8 7003.55 2212.02   1
   0  -9   0 34.5434 1839.13  -3
  -9   0   0 34.5434 1839.13  -2
   9   9   9 34.5434 1839.13   1
  -6 -10  -6 62049.3 3418.78  -3
  -4   6   0 62049.3 3418.78  -2
  10   4   4 62049.3 3418.78   1
  -5 -10  -6 1052.69 1978.28  -3
  -5   5  -1 1052.69 1978.28  -2
  10   5   4 1052.69 1978.28   1
  -5 -10  -5 71487.4 3459.59  -3
  -5   5   0 71487.4 3459.59  -2
  10   5   5 71487.4 3459.59   1
  -5 -10  -4 985.179 2066.05  -3
  -5   5   1 985.179 2066.05  -2
  10   5   6 985.179 2066.05   1
  -4 -10  -5 468.937 2060.73  -3
  -6   4  -1 468.937 2060.73  -2
  10   6   5 468.937 2060.73   1
  -4 -10  -4 59532.3 3364.80  -3
  -6   4   0 59532.3 3364.80  -2
  10   6   6 59532.3 3364.80   1
  -8  -4  -1 202.786 618.664   2
   1  -7   2 21873.2 2011.21  -3
  -8  -1   1 21873.2 2011.21   2
  -1  -9   1 2854.50 1768.27  -3
  -8   1   2 2854.50 1768.27   2
  -7  -5  -1 418.092 415.711   2
  -6  -7  -5 13377.0 933.165   2
  -6  -4   0 39237.6 776.353   2
  -6  -3   1 33070.7 913.675   2
  -5  -6  -1 5632.32 449.880   2
  -5  -4   0 462.271 136.334   2
  -5  -3   0 45191.1 976.735   2
  -5  -3   1 91.3461 206.956   2
  -4  -6  -6 17260.1 496.073   2
  -4  -5   0 428.520 180.348   2
  -4  -3   0 7950.60 353.595   2
  -3  -4   0 7544.68 360.140   2
  -3  -3   0 87766.5 813.396   2
  -3  -3   3 212.130 704.221   2
  -3  -2   1 84717.9 741.697   2
  -2  -5  -5 38171.0 520.680   2
   1   5  -6 12833.7 1525.64  -3
   4  -1  -7 12833.7 1525.64   2
   5  10   1 4977.81 1493.49  -3
   5  -5  -4 4977.81 1493.49   2
   2   7  -4-46.1043 1461.33  -3
   5  -2  -6-46.1043 1461.33   2
   7   7  -1-89.4453 1231.09   2
   8   8   1-1303.74 1158.60   2
  10   9   5 7079.16 1014.13   2
  -6  -5   4 565.820 1168.05   3
  -3  -3  -4 105206. 967.290   3
   3   2   2 11426.2 289.950   3
   3   4   3 80478.0 1158.46   3
   4   3  -1 67436.3 656.136   3
   4   4  -1 129.703 550.148   3
   4   4   6 6150.20 351.304   3
   4   5   4 8006.97 441.196   3
   4   5   5 28382.0 629.800   3
   5   4  -1 6742.34 253.879   3
   5   4   3 114070. 1089.05   3
   5   6   4 2777.54 372.635   3
   5   6   5 24679.1 480.859   3
   5   7  -1 388.742 645.949   3
   5   7   2 44063.8 1590.67   3
   5   7   5 466.110 380.731   3
   5   7   6 15124.3 646.550   3
   5   8   6-169.085 561.345   3
   6   3   0 812.328 130.207   3
   6   4   0 28431.2 362.473   3
   6   5   0 640.161 332.421   3
   6   7  -2 689.887 1202.03   3
   6   7   5 16683.3 471.738   3
   6   8  -1 690.114 1223.93   3
   6  10   2 6227.60 1310.21   3
   7   4   1 30506.9 1383.34   3
   7   8   2 343.884 757.164   3
   7  10   2 1690.22 1434.59   3
   8   9   4 402.106 936.773   3
   9   8   2 169.767 1220.02   3
   9  10   6 695.488 1318.46   3
;
_shelx_hkl_checksum              95435
loop_
_space_group_symop_operation_xyz
'x, y, z'
loop_
_atom_site_label
_atom_site_type_symbol
_atom_site_fract_x
_atom_site_fract_y
_atom_site_fract_z
_atom_site_U_iso_or_equiv
_atom_site_adp_type
_atom_site_occupancy
_atom_site_site_symmetry_order
_atom_site_calc_flag
_atom_site_refinement_flags_posn
_atom_site_refinement_flags_adp
Zn1 Zn 0.72833(16) 0.76739(16) 0.09959(19) 0.00797(11) Uani 1 1 d . .
Zn2 Zn 1.23266(16) 0.26259(16) 0.59959(19) 0.00791(11) Uani 1 1 d . .
O1 O 1.1872(7) -0.0107(8) 0.7698(6) 0.0187(16) Uani 1 1 d . U
O2 O 0.6920(7) 0.9056(7) 0.2727(6) 0.0146(15) Uani 1 1 d . U
O3 O 0.4534(7) 0.7252(7) 0.2592(7) 0.0167(16) Uani 1 1 d . U
O4 O 1.3651(7) 0.2313(7) 0.7701(6) 0.0107(14) Uani 1 1 d . U
O5 O 0.7662(7) 0.6151(7) -0.0652(6) 0.0121(14) Uani 1 1 d . U
O6 O 1.0013(7) 0.8094(7) -0.0567(6) 0.0131(15) Uani 1 1 d . U
O7 O 0.9529(7) 0.4291(7) 0.7473(6) 0.0126(14) Uani 1 1 d . U
O8 O 1.0771(6) 0.2976(7) 0.4395(6) 0.0077(13) Uani 1 1 d . U
O9 O 0.8932(7) 0.4883(7) 0.2481(6) 0.0111(14) Uani 1 1 d . U
O10 O 1.2755(7) 0.5367(7) 0.4428(6) 0.0088(13) Uani 1 1 d . U
O11 O 1.5121(7) 0.0915(7) 0.4565(6) 0.0126(14) Uani 1 1 d . U
O12 O 0.5668(7) 1.0475(7) -0.0482(6) 0.0136(14) Uani 1 1 d . U
C13 C 0.9668(11) 0.4652(10) 0.3561(9) 0.0086(16) Uani 1 1 d . U
H13 H 0.9397 0.5800 0.3790 0.010 Uiso 1 1 calc R U
C14 C 0.4421(11) 0.5498(11) 0.3448(11) 0.016(2) Uani 1 1 d . U
H14 H 0.5566 0.4341 0.3337 0.019 Uiso 1 1 calc R U
C15 C 1.0186(10) -0.0297(10) 0.8420(10) 0.0098(18) Uani 1 1 d . U
H15 H 0.9049 0.0817 0.8171 0.012 Uiso 1 1 calc R U
C16 C 0.9280(10) 0.5075(11) -0.1508(9) 0.0100(8) Uani 1 1 d . U
H16 H 1.0441 0.4854 -0.1329 0.012 Uiso 1 1 calc R U
C17 C 0.5330(11) 1.0265(11) 0.3415(9) 0.0149(18) Uani 1 1 d . U
H17 H 0.4215 1.0718 0.3046 0.018 Uiso 1 1 calc R U
C18 C 1.4789(12) 0.0686(11) 0.8551(11) 0.019(2) Uani 1 1 d . U
H18 H 1.4983 -0.0495 0.8427 0.023 Uiso 1 1 calc R U
N3 N 0.3910(8) 0.4619(10) 0.0142(7) 0.0120(19) Uani 1 1 d . U
H3A H 0.4874 0.3430 0.0357 0.018 Uiso 1 1 d R U
H3C H 0.2942 0.4474 0.0047 0.018 Uiso 1 1 d R U
C2 C 0.5369(19) 0.5646(19) -0.3145(10) 0.029(2) Uani 1 1 d . U
H2D H 0.4270 0.5612 -0.3287 0.044 Uiso 1 1 calc R U
H2E H 0.6476 0.4378 -0.3155 0.044 Uiso 1 1 calc R U
H2F H 0.5777 0.6708 -0.4116 0.044 Uiso 1 1 calc R U
N4 N 0.4752(8) 0.6000(8) -0.1474(9) 0.0124(15) Uani 1 1 d . U
H4A H 0.3840 0.7246 -0.1546 0.015 Uiso 1 1 calc R U
H4B H 0.5810 0.5954 -0.1336 0.015 Uiso 1 1 calc R U
N1 N 1.0670(9) 1.0096(9) 0.3524(10) 0.0184(16) Uani 1 1 d . U
H1A H 1.1911 0.9173 0.3424 0.022 Uiso 1 1 calc R U
H1B H 1.0658 1.1135 0.3662 0.022 Uiso 1 1 calc R U
C1 C 1.0197(19) 1.079(2) 0.1829(11) 0.037(3) Uani 1 1 d . U
H1C H 0.8888 1.1842 0.1891 0.056 Uiso 1 1 calc R U
H1D H 1.0217 0.9685 0.1654 0.056 Uiso 1 1 calc R U
H1E H 1.1179 1.1305 0.0841 0.056 Uiso 1 1 calc R U
N2 N 0.9308(11) 0.9233(8) 0.5150(8) 0.019(2) Uani 1 1 d . U
H2A H 0.9933 0.8420 0.6000 0.022 Uiso 1 1 d R U
H2B H 0.8990 0.8500 0.4885 0.022 Uiso 1 1 d R U
loop_
_atom_site_aniso_label
_atom_site_aniso_U_11
_atom_site_aniso_U_22
_atom_site_aniso_U_33
_atom_site_aniso_U_23
_atom_site_aniso_U_13
_atom_site_aniso_U_12
Zn1 0.00743(18) 0.00804(18) 0.00864(18) -0.00243(19) -0.00231(19) -0.00307(16)
Zn2 0.00773(18) 0.00787(18) 0.00832(18) -0.00268(19) -0.00265(19) -0.00250(16)
O1 0.0115(19) 0.018(2) 0.022(2) -0.0016(16) -0.0020(16) -0.0094(14)
O2 0.0134(19) 0.0171(18) 0.016(2) -0.0107(14) -0.0019(14) -0.0050(13)
O3 0.0137(19) 0.0102(19) 0.022(2) -0.0010(15) -0.0019(16) -0.0080(13)
O4 0.0097(17) 0.0094(18) 0.0123(19) -0.0020(14) -0.0068(13) -0.0011(13)
O5 0.0102(18) 0.0144(18) 0.0146(19) -0.0064(14) -0.0028(14) -0.0053(13)
O6 0.0090(19) 0.0114(19) 0.014(2) -0.0030(14) -0.0021(14) -0.0025(13)
O7 0.0131(19) 0.0113(18) 0.0143(19) -0.0044(14) -0.0039(14) -0.0047(13)
O8 0.0080(16) 0.0080(16) 0.0111(18) -0.0041(12) -0.0070(12) -0.0009(12)
O9 0.0085(17) 0.0087(18) 0.015(2) -0.0022(14) -0.0013(14) -0.0055(12)
O10 0.0091(17) 0.0045(17) 0.0120(18) 0.0002(13) -0.0038(13) -0.0037(12)
O11 0.0152(18) 0.0132(18) 0.0117(18) -0.0058(13) -0.0069(14) -0.0024(13)
O12 0.0149(19) 0.0156(19) 0.0134(19) -0.0064(14) -0.0065(14) -0.0037(13)
C13 0.013(2) 0.007(2) 0.010(2) -0.0050(16) -0.0076(16) -0.0010(15)
C14 0.017(3) 0.014(2) 0.015(3) -0.0044(18) -0.0034(19) -0.0066(17)
C15 0.007(2) 0.009(2) 0.013(3) 0.0010(18) -0.0027(17) -0.0073(15)
C16 0.0100(9) 0.0101(9) 0.0104(9) -0.0033(6) -0.0031(6) -0.0038(6)
C17 0.014(2) 0.017(2) 0.020(3) -0.0041(18) -0.0085(18) -0.0074(16)
C18 0.023(3) 0.011(2) 0.024(3) -0.0063(19) -0.004(2) -0.0083(17)
N3 0.008(3) 0.012(2) 0.011(2) -0.006(2) 0.0019(18) -0.0020(19)
C2 0.029(3) 0.029(3) 0.016(3) 0.000(3) -0.007(3) -0.007(3)
N4 0.012(2) 0.0116(19) 0.017(2) -0.0070(15) -0.0041(15) -0.0047(15)
N1 0.019(2) 0.018(2) 0.022(2) -0.0085(16) -0.0064(16) -0.0065(16)
C1 0.042(4) 0.040(3) 0.029(3) -0.012(3) -0.016(3) -0.007(3)
N2 0.023(2) 0.014(3) 0.013(2) 0.003(2) -0.013(2) -0.002(2)
loop_
_atom_type_symbol
_atom_type_description
_atom_type_scat_dispersion_real
_atom_type_scat_dispersion_imag
_atom_type_scat_source
C C 0.0033 0.0016 'International Tables Vol C Tables 4.2.6.8 and 6.1.1.4'
H H 0.0000 0.0000 'International Tables Vol C Tables 4.2.6.8 and 6.1.1.4'
N N 0.0061 0.0033 'International Tables Vol C Tables 4.2.6.8 and 6.1.1.4'
O O 0.0106 0.0060 'International Tables Vol C Tables 4.2.6.8 and 6.1.1.4'
Zn Zn 0.2839 1.4301 'International Tables Vol C Tables 4.2.6.8 and 6.1.1.4'
loop_
_geom_angle_atom_site_label_1
_geom_angle_atom_site_label_2
_geom_angle_atom_site_label_3
_geom_angle
_geom_angle_site_symmetry_1
_geom_angle_site_symmetry_3
O12 Zn1 O9 179.0(3) . .
O12 Zn1 O2 89.1(2) . .
O9 Zn1 O2 90.2(2) . .
O12 Zn1 O6 92.0(2) . .
O9 Zn1 O6 87.28(19) . .
O2 Zn1 O6 89.3(2) . .
O12 Zn1 O5 93.2(2) . .
O9 Zn1 O5 87.5(2) . .
O2 Zn1 O5 177.33(19) . .
O6 Zn1 O5 91.8(2) . .
O12 Zn1 O3 88.2(2) . .
O9 Zn1 O3 92.52(19) . .
O2 Zn1 O3 90.2(2) . .
O6 Zn1 O3 179.5(3) . .
O5 Zn1 O3 88.7(2) . .
O4 Zn2 O11 90.3(2) . .
O4 Zn2 O10 88.2(2) . .
O11 Zn2 O10 93.65(19) . .
O4 Zn2 O8 175.88(18) . .
O11 Zn2 O8 93.4(2) . .
O10 Zn2 O8 93.3(2) . .
O4 Zn2 O7 89.2(2) . .
O11 Zn2 O7 178.92(19) . .
O10 Zn2 O7 87.31(19) . .
O8 Zn2 O7 87.0(2) . .
O4 Zn2 O1 89.3(2) . .
O11 Zn2 O1 88.0(2) . .
O10 Zn2 O1 177.0(3) . .
O8 Zn2 O1 89.1(2) . .
O7 Zn2 O1 91.00(19) . .
C15 O1 Zn2 124.9(4) . .
C17 O2 Zn1 126.1(6) . .
C14 O3 Zn1 122.9(4) . .
C18 O4 Zn2 127.3(6) . .
C16 O5 Zn1 127.9(6) . .
C15 O6 Zn1 125.4(4) 1_564 .
C16 O7 Zn2 125.9(5) 1_556 .
C13 O8 Zn2 125.3(6) . .
C13 O9 Zn1 124.9(5) . .
C14 O10 Zn2 124.1(4) 1_655 .
C17 O11 Zn2 123.9(5) 1_645 .
C18 O12 Zn1 123.4(5) 1_464 .
O9 C13 O8 125.6(8) . .
O9 C13 H13 117.2 . .
O8 C13 H13 117.2 . .
O10 C14 O3 119.2(6) 1_455 .
O10 C14 H14 120.4 1_455 .
O3 C14 H14 120.4 . .
O6 C15 O1 121.8(6) 1_546 .
O6 C15 H15 119.1 1_546 .
O1 C15 H15 119.1 . .
O7 C16 O5 128.8(8) 1_554 .
O7 C16 H16 115.6 1_554 .
O5 C16 H16 115.6 . .
O2 C17 O11 124.6(8) . 1_465
O2 C17 H17 117.7 . .
O11 C17 H17 117.7 1_465 .
O12 C18 O4 128.3(9) 1_646 .
O12 C18 H18 115.9 1_646 .
O4 C18 H18 115.8 . .
N4 N3 H3A 109.0 . .
N4 N3 H3C 113.1 . .
H3A N3 H3C 108.6 . .
N4 C2 H2D 109.4 . .
N4 C2 H2E 109.6 . .
H2D C2 H2E 109.5 . .
N4 C2 H2F 109.5 . .
H2D C2 H2F 109.5 . .
H2E C2 H2F 109.5 . .
C2 N4 N3 116.7(9) . .
C2 N4 H4A 108.2 . .
N3 N4 H4A 108.1 . .
C2 N4 H4B 108.0 . .
N3 N4 H4B 108.1 . .
H4A N4 H4B 107.3 . .
N2 N1 C1 115.4(9) . .
N2 N1 H1A 108.5 . .
C1 N1 H1A 108.5 . .
N2 N1 H1B 108.4 . .
C1 N1 H1B 108.5 . .
H1A N1 H1B 107.5 . .
N1 C1 H1C 109.5 . .
N1 C1 H1D 109.5 . .
H1C C1 H1D 109.5 . .
N1 C1 H1E 109.4 . .
H1C C1 H1E 109.5 . .
H1D C1 H1E 109.5 . .
N1 N2 H2A 109.5 . .
N1 N2 H2B 108.4 . .
H2A N2 H2B 108.2 . .
loop_
_geom_bond_atom_site_label_1
_geom_bond_atom_site_label_2
_geom_bond_distance
_geom_bond_site_symmetry_2
Zn1 O12 2.083(5) .
Zn1 O9 2.092(4) .
Zn1 O2 2.099(7) .
Zn1 O6 2.098(5) .
Zn1 O5 2.119(7) .
Zn1 O3 2.115(6) .
Zn2 O4 2.055(6) .
Zn2 O11 2.107(5) .
Zn2 O10 2.101(5) .
Zn2 O8 2.109(6) .
Zn2 O7 2.111(5) .
Zn2 O1 2.119(6) .
O1 C15 1.266(9) .
O2 C17 1.238(8) .
O3 C14 1.287(10) .
O4 C18 1.273(8) .
O5 C16 1.259(8) .
O6 C15 1.222(8) 1_564
O7 C16 1.205(11) 1_556
O8 C13 1.272(7) .
O9 C13 1.226(11) .
O10 C14 1.249(9) 1_655
O11 C17 1.243(11) 1_645
O12 C18 1.236(12) 1_464
C13 H13 0.9300 .
C14 O10 1.249(9) 1_455
C14 H14 0.9300 .
C15 O6 1.222(8) 1_546
C15 H15 0.9300 .
C16 O7 1.205(11) 1_554
C16 H16 0.9300 .
C17 O11 1.243(11) 1_465
C17 H17 0.9300 .
C18 O12 1.236(12) 1_646
C18 H18 0.9300 .
N3 N4 1.462(8) .
N3 H3A 0.8794 .
N3 H3C 0.8845 .
C2 N4 1.428(14) .
C2 H2D 0.9600 .
C2 H2E 0.9600 .
C2 H2F 0.9600 .
N4 H4A 0.8900 .
N4 H4B 0.8900 .
N1 N2 1.466(9) .
N1 C1 1.476(14) .
N1 H1A 0.8900 .
N1 H1B 0.8900 .
C1 H1C 0.9600 .
C1 H1D 0.9600 .
C1 H1E 0.9600 .
N2 H2A 0.8902 .
N2 H2B 0.8902 .
loop_
_geom_hbond_atom_site_label_D
_geom_hbond_atom_site_label_H
_geom_hbond_atom_site_label_A
_geom_hbond_distance_DH
_geom_hbond_distance_HA
_geom_hbond_distance_DA
_geom_hbond_angle_DHA
_geom_hbond_site_symmetry_A
N3 H3A O12 0.88 2.49 3.101(9) 126.8 1_545
N3 H3C O6 0.88 2.67 3.064(7) 108.1 1_455
N4 H4A O1 0.89 1.94 2.801(7) 163.7 1_464
N4 H4B O5 0.89 1.93 2.803(10) 167.3 .
N1 H1A O3 0.89 1.93 2.799(7) 164.0 1_655
N1 H1B O8 0.89 1.91 2.789(10) 168.4 1_565
N2 H2A O6 0.89 2.91 3.658(10) 142.4 1_556
N2 H2B O2 0.89 2.79 3.515(12) 139.0 .
