#------------------------------------------------------------------------------
#$Date: 2019-11-24 11:22:03 +0200 (Sun, 24 Nov 2019) $
#$Revision: 237781 $
#$URL: file:///home/coder/svn-repositories/cod/cif/7/23/75/7237571.cif $
#------------------------------------------------------------------------------
#
# This file is available in the Crystallography Open Database (COD),
# http://www.crystallography.net/
#
# All data on this site have been placed in the public domain by the
# contributors.
#
data_7237571
loop_
_publ_author_name
'Sun, Tiancheng'
'Wang, Ping'
'Fan, Ruiqing'
'Chen, Wei'
'Hao, Sue'
'Yang, Yulin'
_publ_section_title
;
 Functional microscale single-phase white emission lanthanide MOF for
 tunable fluorescent sensing and water quality monitoring
;
_journal_issue                   12
_journal_name_full               'Journal of Materials Chemistry C'
_journal_page_first              3598
_journal_paper_doi               10.1039/C8TC05968C
_journal_volume                  7
_journal_year                    2019
_chemical_formula_sum            'C14 H12 N O10 Sm'
_chemical_formula_weight         504.60
_space_group_crystal_system      triclinic
_space_group_IT_number           2
_space_group_name_Hall           '-P 1'
_space_group_name_H-M_alt        'P -1'
_atom_sites_solution_hydrogens   mixed
_audit_creation_method           SHELXL-2014/7
_audit_update_record
;
2018-10-12 deposited with the CCDC.	2019-02-19 downloaded from the CCDC.
;
_cell_angle_alpha                110.141(6)
_cell_angle_beta                 94.201(7)
_cell_angle_gamma                102.980(6)
_cell_formula_units_Z            2
_cell_length_a                   6.006(3)
_cell_length_b                   11.758(7)
_cell_length_c                   12.603(7)
_cell_measurement_reflns_used    2807
_cell_measurement_temperature    293(2)
_cell_measurement_theta_max      24.997
_cell_measurement_theta_min      2.983
_cell_volume                     803.1(8)
_computing_structure_refinement  'SHELXL-2014/7 (Sheldrick, 2014)'
_diffrn_ambient_temperature      293(2)
_diffrn_measured_fraction_theta_full 0.996
_diffrn_measured_fraction_theta_max 0.996
_diffrn_measurement_device_type  'Bruker Smart APEX CCD area detector'
_diffrn_measurement_method       'phi and omega scans'
_diffrn_radiation_type           MoK\a
_diffrn_radiation_wavelength     0.71073
_diffrn_reflns_av_R_equivalents  0.0246
_diffrn_reflns_av_unetI/netI     0.0388
_diffrn_reflns_Laue_measured_fraction_full 0.996
_diffrn_reflns_Laue_measured_fraction_max 0.996
_diffrn_reflns_limit_h_max       6
_diffrn_reflns_limit_h_min       -7
_diffrn_reflns_limit_k_max       13
_diffrn_reflns_limit_k_min       -13
_diffrn_reflns_limit_l_max       14
_diffrn_reflns_limit_l_min       -14
_diffrn_reflns_number            5566
_diffrn_reflns_point_group_measured_fraction_full 0.996
_diffrn_reflns_point_group_measured_fraction_max 0.996
_diffrn_reflns_theta_full        25.000
_diffrn_reflns_theta_max         25.000
_diffrn_reflns_theta_min         1.745
_diffrn_source                   'fine-focus sealed tube'
_exptl_absorpt_coefficient_mu    3.714
_exptl_absorpt_correction_T_max  0.414
_exptl_absorpt_correction_T_min  0.397
_exptl_absorpt_correction_type   multi-scan
_exptl_absorpt_process_details   '(SADABS; Sheldrick, 2003)'
_exptl_crystal_colour            colorless
_exptl_crystal_density_diffrn    2.087
_exptl_crystal_description       flake
_exptl_crystal_F_000             490
_exptl_crystal_size_max          0.320
_exptl_crystal_size_mid          0.300
_exptl_crystal_size_min          0.280
_refine_diff_density_max         0.929
_refine_diff_density_min         -1.081
_refine_diff_density_rms         0.312
_refine_ls_extinction_method     none
_refine_ls_goodness_of_fit_ref   1.295
_refine_ls_hydrogen_treatment    constr
_refine_ls_matrix_type           full
_refine_ls_number_parameters     276
_refine_ls_number_reflns         2807
_refine_ls_number_restraints     0
_refine_ls_restrained_S_all      1.295
_refine_ls_R_factor_all          0.0358
_refine_ls_R_factor_gt           0.0297
_refine_ls_shift/su_max          0.054
_refine_ls_shift/su_mean         0.002
_refine_ls_structure_factor_coef Fsqd
_refine_ls_weighting_details
'w=1/[\s^2^(Fo^2^)+(0.0618P)^2^+0.2065P] where P=(Fo^2^+2Fc^2^)/3'
_refine_ls_weighting_scheme      calc
_refine_ls_wR_factor_gt          0.0820
_refine_ls_wR_factor_ref         0.1088
_reflns_Friedel_coverage         0.000
_reflns_number_gt                2606
_reflns_number_total             2807
_reflns_threshold_expression     'I > 2\s(I)'
_cod_data_source_file            c8tc05968c2.cif
_cod_data_source_block           S
_cod_database_code               7237571
_shelx_shelxl_version_number     2014/7
_shelx_space_group_comment
;
The symmetry employed for this shelxl refinement is uniquely defined
by the following loop, which should always be used as a source of
symmetry information in preference to the above space-group names.
They are only intended as comments.
;
_shelx_estimated_absorpt_t_min   0.383
_shelx_estimated_absorpt_t_max   0.423
_shelx_res_file
;

    S.res created by SHELXL-2014/7


TITL S in P-1
CELL 0.71073 6.006 11.758 12.603 110.141 94.201 102.98
ZERR 2 0.003 0.007 0.007 0.006 0.007 0.006
LATT 1
SFAC C H N O Sm
UNIT 28 24 2 20 2

L.S. 5
PLAN  -20
BOND $H
CONF
fmap 2
acta
OMIT 0 50
size 0.32 0.30 0.28

WGHT    0.061800    0.206500
FVAR       0.14214   0.39914
SM1   5    1.877229    0.886377    0.596085    11.00000    0.02313    0.02427 =
         0.02584    0.01171    0.00752    0.00261
O1W   4    2.089681    0.734730    0.601808    11.00000    0.04380    0.03884 =
         0.08262    0.02235    0.00102    0.01254
AFIX   3
H1WA  2    1.989121    0.651310    0.564968    11.00000   -1.50000
H1WB  2    2.219161    0.744200    0.562268    11.00000   -1.50000
AFIX   0
O2    4    0.110024    0.094325    0.197260    11.00000    0.03134    0.06100 =
         0.03972    0.02737    0.00617   -0.00607
O2W   4    2.255389    1.012170    0.692590    11.00000    0.02667    0.05374 =
         0.03230    0.01744    0.00767   -0.00175
AFIX   7
H2WA  2    2.355971    0.986150    0.653183    11.00000   -1.50000
H2WB  2    2.279152    1.006815    0.757987    11.00000   -1.50000
AFIX   0
O3    4    0.435335    0.206228    0.316582    11.00000    0.03166    0.05498 =
         0.03759    0.02379    0.00439   -0.00620
O4    4    1.643030    0.682455    0.445353    11.00000    0.04588    0.02799 =
         0.06816    0.01283   -0.00141    0.01320
O5    4    1.538703    0.851605    0.457888    11.00000    0.03129    0.02450 =
         0.03788    0.00878    0.00301    0.00626
O6    4    1.066401    0.895964    0.437493    11.00000    0.03008    0.03309 =
         0.02948    0.00871    0.01531    0.00841
O7    4    1.248360    0.925081    0.300591    11.00000    0.04140    0.03204 =
         0.03524    0.01520    0.01829    0.00609
N1    3    0.416080    0.132772   -0.077420    11.00000    0.12950    0.06294 =
         0.03213   -0.00772    0.03099   -0.05720
PART   1
O1    4    1.020515    0.343914    0.093774    21.00000    0.05381    0.01752 =
         0.05002   -0.00779    0.01616   -0.00998
C1    1    0.691411    0.195999   -0.038117    21.00000    0.06394    0.03257 =
         0.02977   -0.00274    0.01995   -0.00403
AFIX  43
H1    2    0.787207    0.183176   -0.093420    21.00000   -1.20000
AFIX   0
C2    1    0.790531    0.268648    0.074857    21.00000    0.03000    0.03042 =
         0.04200    0.00011    0.00212   -0.01087
C3    1    0.669124    0.263827    0.158180    21.00000    0.04780    0.02862 =
         0.02820    0.01221   -0.00089   -0.01268
AFIX  43
H3    2    0.734989    0.305399    0.235052    21.00000   -1.20000
AFIX   0
PART   2
O1A   4    0.768946    0.446807    0.059245   -21.00000    0.04100    0.03562 =
         0.02042    0.01268   -0.01188   -0.01657
C1A   1    0.541912    0.249405   -0.059743   -21.00000    0.03255    0.04136 =
         0.02039    0.00913    0.00056   -0.01757
AFIX  43
H1A   2    0.567043    0.273813   -0.121606   -21.00000   -1.20000
AFIX   0
C2A   1    0.633469    0.332619    0.049918   -21.00000    0.02066    0.02456 =
         0.02393    0.00495   -0.00236   -0.01037
C3A   1    0.565666    0.300319    0.139809   -21.00000    0.02560    0.03142 =
         0.01678    0.01384   -0.00042    0.00265
AFIX  43
H3A   2    0.622622    0.356826    0.214519   -21.00000   -1.20000
AFIX   0
PART   0
C4    1    0.415898    0.186506    0.121194    11.00000    0.05502    0.03585 =
         0.03396    0.01031    0.01683   -0.00969
C5    1    0.329297    0.112677    0.009494    11.00000    0.05586    0.03790 =
         0.04065    0.01257    0.01204   -0.01331
AFIX  43
H5    2    0.201710    0.044225   -0.006294    11.00000   -1.20000
AFIX   0
C6    1    1.088625    0.460677    0.178888    11.00000    0.06966    0.02480 =
         0.05827   -0.01419    0.02307   -0.01175
AFIX  43
PART   2
H6    2    1.072478    0.375516    0.139663   -21.00000   -1.20000
AFIX   0
PART   0
C7    1    1.270200    0.531993    0.265452    11.00000    0.04474    0.03025 =
         0.07300    0.00834    0.01621    0.00076
AFIX  43
H7    2    1.376204    0.493574    0.286306    11.00000   -1.20000
AFIX   0
C8    1    1.301356    0.659196    0.322932    11.00000    0.03236    0.02506 =
         0.03730    0.00562    0.01401    0.00353
C9    1    1.137221    0.716320    0.293777    11.00000    0.02593    0.02780 =
         0.02347    0.00441    0.00991   -0.00434
C10   1    0.953227    0.645326    0.208283    11.00000    0.04116    0.04142 =
         0.03061    0.00977    0.00448   -0.00802
AFIX  43
H10   2    0.843749    0.682454    0.188507    11.00000   -1.20000
AFIX   0
C11   1    0.929598    0.519060    0.151409    11.00000    0.06430    0.04619 =
         0.02967   -0.00146    0.01417   -0.03162
AFIX  43
PART   1
H11   2    0.803970    0.471998    0.093247    21.00000   -1.20000
AFIX   0
PART   0
C12   1    0.311795    0.158706    0.216281    11.00000    0.03350    0.03318 =
         0.03548    0.01834    0.00949    0.00380
C13   1    1.505263    0.736358    0.414031    11.00000    0.02886    0.02245 =
         0.03666    0.01122    0.01278    0.00467
C14   1    1.158534    0.854995    0.350305    11.00000    0.02076    0.02397 =
         0.03072    0.00867    0.00351    0.00028
AFIX   6
O3W   4    0.757509    0.483384    0.461976    11.00000    0.20046    0.08987 =
         0.23230    0.07085    0.01267    0.04436
H3WA  2    0.836211    0.488169    0.409549    11.00000   -1.50000
H3WB  2    0.684776    0.539800    0.477135    11.00000   -1.50000

AFIX   0
HKLF 4

REM  S in P-1
REM R1 =  0.0297 for    2606 Fo > 4sig(Fo)  and  0.0358 for all    2807 data
REM    276 parameters refined using      0 restraints

END

WGHT      0.0624      0.3490

REM Highest difference peak  0.929,  deepest hole -1.081,  1-sigma level  0.312
Q1    1   1.0275  0.4843  0.1549  11.00000  0.05    0.93
Q2    1   0.8829  0.4266  0.0583  11.00000  0.05    0.79
Q3    1   1.1861  0.5334  0.2350  11.00000  0.05    0.72
Q4    1   0.5862  0.3563  0.0441  11.00000  0.05    0.71
Q5    1   0.3915  0.2977  0.1770  11.00000  0.05    0.70
Q6    1   0.5565  0.3404  0.1105  11.00000  0.05    0.68
Q7    1   0.3745  0.4346 -0.0208  11.00000  0.05    0.65
Q8    1   0.6808  0.2791  0.0118  11.00000  0.05    0.64
Q9    1   1.0322  0.4070  0.1162  11.00000  0.05    0.61
Q10   1   0.6069  0.4264 -0.0243  11.00000  0.05    0.61
Q11   1   1.0266  0.4433  0.0401  11.00000  0.05    0.59
Q12   1   1.2104  0.3475  0.0769  11.00000  0.05    0.58
Q13   1   1.3159  0.3410  0.1347  11.00000  0.05    0.58
Q14   1   1.9578  0.8438  0.6155  11.00000  0.05    0.57
Q15   1   1.2173  0.4589  0.0989  11.00000  0.05    0.57
Q16   1   1.3601  0.4531  0.1633  11.00000  0.05    0.56
Q17   1   1.3301  0.4021  0.0743  11.00000  0.05    0.55
Q18   1   0.3659  0.4152  0.2120  11.00000  0.05    0.55
Q19   1   0.9486  0.5757  0.1416  11.00000  0.05    0.55
Q20   1   0.9769  0.3570  0.1814  11.00000  0.05    0.54
;
_shelx_res_checksum              27755
_shelx_hkl_file
;
  -1   0   0   99.74    3.45
  -1   0   0   96.41    3.41
  -1   0   0  101.02    3.35
  -2   0   0    0.67    0.23
  -2   0   0    0.38    0.16
  -2   0   0    0.30    0.07
  -3   0   0   56.92    2.16
  -3   0   0   55.14    1.94
  -4   0   0   88.19    3.35
  -5   0   0   60.23    2.54
  -6   0   0    3.09    0.66
  -7   0   0    8.12    1.04
  -7   1   0    0.30    0.47
  -6   1   0   20.28    1.26
  -5   1   0   58.65    2.45
  -4   1   0   55.83    2.27
  -4   1   0   58.56    2.48
  -3   1   0    0.24    0.19
  -3   1   0    0.71    0.30
  -2   1   0   13.64    0.62
  -2   1   0   14.09    0.70
  -2   1   0   13.45    0.53
   1  -1   0  120.13    4.11
  -1   1   0  123.53    4.19
  -1   1   0  119.83    4.13
   0  -1   0    0.00    0.01
   0   1   0   -0.02    0.02
  -1  -1   0    0.07    0.10
  -1  -1   0   -0.01    0.06
  -2  -1   0   14.22    0.69
  -2  -1   0   15.05    0.56
  -3  -1   0  231.94    7.69
  -3  -1   0  221.56    7.90
  -4  -1   0   44.49    1.90
  -5  -1   0    3.72    0.62
  -6  -1   0    8.99    0.99
  -7  -1   0   17.70    1.42
  -7   2   0   11.00    1.13
  -6   2   0   76.67    3.16
  -5   2   0   33.23    1.57
  -5   2   0   32.68    1.79
   4  -2   0   -0.32    0.12
  -4   2   0    0.61    0.27
   3  -2   0   85.63    2.97
  -3   2   0   85.77    3.24
  -3   2   0   83.53    3.09
   2  -2   0    2.58    0.21
  -2   2   0    2.46    0.32
  -2   2   0    2.68    0.24
   1  -2   0  603.07   19.74
  -1   2   0  582.91   19.93
  -1   2   0  573.97   19.71
   0  -2   0    2.56    0.18
   0  -2   0    2.19    0.13
   0   2   0    2.11    0.23
  -1  -2   0   42.32    1.48
  -1  -2   0   40.90    1.53
  -2  -2   0  184.40    6.30
  -2  -2   0  177.65    6.14
  -3  -2   0   78.81    2.74
  -3  -2   0   78.59    2.96
  -4  -2   0    2.21    0.45
  -5  -2   0   14.63    1.05
  -6  -2   0   30.80    1.72
  -7   3   0   23.85    1.46
  -6   3   0   26.18    1.79
  -6   3   0   26.92    1.45
  -5   3   0    3.29    0.68
  -5   3   0    4.53    0.57
   4  -3   0   38.68    1.54
  -4   3   0   41.92    1.69
  -4   3   0   42.11    1.91
   3  -3   0  293.32    9.94
  -3   3   0  286.25    9.99
  -3   3   0  296.20   10.20
   2  -3   0  136.72    4.54
  -2   3   0  130.53    4.69
  -2   3   0  126.38    4.51
   1  -3   0   36.25    1.35
  -1   3   0   36.36    1.43
   0  -3   0  157.95    5.33
   0  -3   0  153.66    5.39
   0   3   0  160.42    5.53
  -1  -3   0  167.43    5.44
  -1  -3   0  163.16    5.41
   1   3   0  141.38    5.68
  -2  -3   0  185.36    6.41
  -2  -3   0  190.78    6.55
  -3  -3   0   12.24    0.73
  -4  -3   0   12.70    0.86
  -5  -3   0   54.09    2.40
  -6  -3   0   31.35    1.76
  -7   4   0   14.99    1.13
  -7   4   0   14.50    1.62
  -6   4   0    1.22    0.68
  -6   4   0    1.13    0.44
  -5   4   0    6.90    0.66
  -5   4   0    7.16    0.92
   4  -4   0  112.00    3.87
  -4   4   0  109.95    4.22
  -4   4   0  104.93    3.94
   3  -4   0   22.81    0.98
  -3   4   0   24.58    1.21
  -3   4   0   23.08    0.97
   2  -4   0    8.14    0.45
  -2   4   0    7.23    0.54
  -2   4   0    7.48    0.36
   1  -4   0   67.94    2.45
  -1   4   0   67.77    2.56
   0  -4   0  184.07    6.43
   0  -4   0  188.44    6.34
   0   4   0  188.30    6.61
  -1  -4   0  106.87    3.62
  -1  -4   0  104.97    3.62
   1   4   0   95.95    3.91
  -2  -4   0   34.35    1.42
  -2  -4   0   35.00    1.32
  -3  -4   0   26.63    1.26
  -4  -4   0   61.01    2.54
  -5  -4   0   38.93    1.92
  -6  -4   0    0.29    0.49
  -7   5   0    0.44    0.63
  -7   5   0    0.32    0.78
  -6   5   0    8.48    1.11
  -6   5   0    7.62    0.77
  -5   5   0   43.64    2.18
  -5   5   0   43.96    1.85
   4  -5   0   78.70    2.79
  -4   5   0   75.58    3.12
  -4   5   0   71.99    2.79
   3  -5   0    6.71    0.46
  -3   5   0    6.80    0.40
  -3   5   0    7.02    0.62
   2  -5   0   15.61    0.73
  -2   5   0   14.10    0.84
   1  -5   0  362.50   12.36
  -1   5   0  362.31   12.52
   0  -5   0  382.15   12.92
   0  -5   0  376.19   13.04
   0   5   0  390.73   13.27
  -1  -5   0   14.01    0.67
  -1  -5   0   13.60    0.65
   1   5   0   13.80    0.96
  -2  -5   0    4.99    0.44
  -2  -5   0    5.72    0.40
   2   5   0    5.02    0.83
  -3  -5   0   64.67    2.57
  -4  -5   0   53.37    2.30
  -5  -5   0   19.13    1.24
  -6  -5   0    1.73    0.65
  -7   6   0    3.70    0.96
  -6   6   0   31.19    1.92
   5  -6   0   58.47    2.27
  -5   6   0   55.71    2.65
   4  -6   0    5.48    0.52
  -4   6   0    5.47    0.76
   3  -6   0    2.22    0.33
  -3   6   0    2.47    0.27
  -3   6   0    1.92    0.44
   2  -6   0   75.79    2.84
  -2   6   0   77.58    3.03
   1  -6   0  130.80    4.66
  -1   6   0  131.55    4.86
   0  -6   0    4.82    0.28
   0  -6   0    4.34    0.41
   0   6   0    5.12    0.63
  -1  -6   0    0.80    0.23
  -1  -6   0    0.70    0.20
   1   6   0    1.01    0.43
  -2  -6   0   41.94    1.68
  -2  -6   0   39.82    1.61
   2   6   0   40.01    2.13
  -3  -6   0   85.60    3.33
   3   6   0   88.32    3.95
  -4  -6   0   15.93    1.05
   4   6   0   14.86    1.75
  -5  -6   0    1.47    0.54
   5   6   0    1.74    1.07
  -7   7   0   15.12    1.56
  -6   7   0   33.51    2.06
   5  -7   0    5.86    0.63
  -5   7   0    8.68    1.03
   4  -7   0    6.23    0.59
  -4   7   0    6.30    0.84
   3  -7   0   48.54    1.97
  -3   7   0   49.13    2.21
   2  -7   0   65.45    2.51
  -2   7   0   65.47    2.73
   1  -7   0   27.46    1.25
  -1   7   0   29.23    1.47
   0  -7   0   14.61    0.79
   0   7   0   13.68    0.98
  -1  -7   0   40.18    1.54
  -1  -7   0   39.98    1.61
   1   7   0   35.23    1.94
  -2  -7   0   47.55    1.89
  -2  -7   0   49.13    1.93
   2   7   0   43.96    2.39
  -3  -7   0    0.16    0.30
   3   7   0    0.99    0.71
  -4  -7   0    3.96    0.67
   4   7   0    3.06    1.03
  -5  -7   0   22.52    1.42
   5   7   0   19.34    2.04
  -7   8   0   10.41    1.41
  -6   8   0    3.54    0.85
   5  -8   0    1.66    0.45
  -5   8   0    2.24    0.64
   4  -8   0   23.84    1.24
  -4   8   0   26.22    1.54
   3  -8   0  116.05    4.25
  -3   8   0  114.38    4.54
   2  -8   0   29.40    1.38
  -2   8   0   31.56    1.63
   1  -8   0   15.91    0.90
  -1   8   0   16.90    1.13
   0  -8   0   63.81    2.53
   0   8   0   65.85    2.87
  -1  -8   0   65.04    2.48
   1   8   0   61.42    2.90
  -2  -8   0   53.17    2.13
   2   8   0   52.27    2.69
  -3  -8   0    0.04    0.36
   3   8   0    1.32    0.80
  -4  -8   0   14.22    1.09
   4   8   0   16.22    1.88
  -5  -8   0   26.75    1.66
  -6   9   0    1.86    0.77
   5  -9   0    9.80    0.87
  -5   9   0   10.39    1.26
   4  -9   0   35.23    1.67
  -4   9   0   35.36    1.95
   3  -9   0    4.65    0.57
  -3   9   0    5.19    0.79
   2  -9   0    2.07    0.41
  -2   9   0    2.26    0.54
   1  -9   0   35.52    1.63
  -1   9   0   37.62    1.95
   0  -9   0   68.80    2.69
   0   9   0   66.07    3.06
  -1  -9   0   20.76    1.12
   1   9   0   21.72    1.53
   2   9   0    3.05    0.85
   3   9   0   10.55    1.47
   4   9   0   26.45    2.14
  -6  10   0   13.72    1.46
   5 -10   0   15.88    1.12
  -5  10   0   16.31    1.41
   4 -10   0   15.76    1.10
  -4  10   0   17.71    1.37
   3 -10   0    0.42    0.37
  -3  10   0    0.46    0.48
   2 -10   0   22.50    1.23
  -2  10   0   22.94    1.52
   1 -10   0   64.05    2.67
  -1  10   0   67.17    3.06
   0 -10   0   11.72    0.87
   0  10   0   13.01    1.28
  -1 -10   0    2.64    0.51
   1  10   0    2.68    0.80
   2  10   0   14.25    1.49
   3  10   0   12.59    1.60
   5 -11   0   13.23    1.09
  -5  11   0   14.65    1.38
   4 -11   0    1.41    0.51
  -4  11   0    0.77    0.61
   3 -11   0   12.37    0.99
  -3  11   0   12.49    1.23
   2 -11   0   31.64    1.65
  -2  11   0   34.35    2.02
   1 -11   0   32.81    1.69
  -1  11   0   36.70    2.11
   0 -11   0    2.06    0.48
   0  11   0    1.88    0.72
  -1 -11   0   10.07    0.88
   1  11   0   10.47    1.32
   2  11   0   20.90    1.76
   5 -12   0    0.48    0.57
  -5  12   0    0.32    0.63
   4 -12   0    6.57    0.87
  -4  12   0    7.07    1.16
   3 -12   0   19.23    1.29
  -3  12   0   19.70    1.64
   2 -12   0   10.84    1.03
  -2  12   0   14.20    1.40
   1 -12   0    0.21    0.42
  -1  12   0    0.65    0.59
   0 -12   0    7.12    0.87
   0  12   0    9.26    1.34
  -1 -12   0   20.35    1.31
   1  12   0   21.28    1.81
   4 -13   0   10.24    1.11
  -4  13   0   11.57    1.53
   3 -13   0    9.61    1.05
  -3  13   0    8.45    1.31
   2 -13   0   -0.21    0.49
  -2  13   0   -0.28    0.54
   1 -13   0    5.79    0.83
  -1  13   0    7.88    1.26
   0 -13   0   15.40    1.23
   0  13   0   16.34    1.58
   0 -14   1    0.65    0.65
  -1  14  -1   10.13    1.78
   1 -14   1    8.59    1.07
  -2  14  -1   12.21    1.58
   2 -14   1    8.23    1.12
   1  13  -1    5.65    1.14
  -1 -13   1    3.97    0.70
   0  13  -1   14.38    1.43
   0 -13   1   12.71    1.09
  -1  13  -1   23.33    1.76
   1 -13   1   21.41    1.41
  -2  13  -1    4.49    0.96
   2 -13   1    3.81    0.74
  -3  13  -1    2.53    0.81
   3 -13   1    2.54    0.67
  -4  13  -1   16.60    1.53
   4 -13   1   13.93    1.23
   5 -13   1    7.67    0.97
   2  12  -1    2.49    0.86
   1  12  -1   19.50    1.68
  -1 -12   1   16.76    1.19
   0  12  -1   25.29    1.81
   0 -12   1   25.08    1.45
  -1  12  -1   10.62    1.33
   1 -12   1    8.62    0.89
  -2  12  -1    2.44    0.71
   2 -12   1    1.59    0.56
  -3  12  -1    8.89    1.24
   3 -12   1    7.86    0.91
  -4  12  -1   18.74    1.56
   4 -12   1   19.15    1.31
  -5  12  -1    2.40    0.82
   5 -12   1    1.75    0.64
   3  11  -1    1.87    0.87
   2  11  -1   17.62    1.57
   1  11  -1   21.98    1.65
  -1 -11   1   23.32    1.30
   0  11  -1   15.28    1.34
   0 -11   1   16.10    1.07
  -1  11  -1    5.99    0.91
   1 -11   1    4.90    0.67
  -2  11  -1   24.91    1.61
   2 -11   1   22.58    1.33
  -3  11  -1   36.12    2.05
   3 -11   1   33.85    1.73
  -4  11  -1   10.08    1.27
   4 -11   1    8.60    0.90
  -5  11  -1    1.89    0.71
   5 -11   1    2.42    0.60
  -6  11  -1   10.71    1.90
   4  10  -1    1.52    1.07
   3  10  -1   20.09    1.73
   2  10  -1   39.82    2.31
   1  10  -1   15.64    1.30
  -1 -10   1   13.67    0.95
   0  10  -1    1.40    0.58
   0 -10   1    2.06    0.43
  -1  10  -1   45.75    2.30
   1 -10   1   46.57    2.02
  -2  10  -1   44.46    2.26
   2 -10   1   46.31    2.01
  -3  10  -1   45.72    2.34
   3 -10   1   45.77    2.04
  -4  10  -1    1.62    0.59
   4 -10   1    1.23    0.46
  -5  10  -1    8.16    1.14
   5 -10   1    8.80    0.86
  -6  10  -1   15.47    1.52
   4   9  -1   15.95    1.69
   3   9  -1   39.22    2.40
   2   9  -1   16.60    1.45
  -2  -9   1   16.18    0.96
   1   9  -1    0.98    0.55
  -1  -9   1    0.91    0.32
   0   9  -1   41.37    2.07
   0  -9   1   37.14    1.70
  -1   9  -1   42.03    2.02
   1  -9   1   38.12    1.75
  -2   9  -1   39.24    1.93
   2  -9   1   36.97    1.69
  -3   9  -1    1.08    0.47
   3  -9   1    1.35    0.39
  -4   9  -1   21.42    1.43
   4  -9   1   21.45    1.18
  -5   9  -1   16.56    1.32
   5  -9   1   15.55    1.03
  -6   9  -1   12.50    1.29
   5   8  -1    7.98    1.47
  -5  -8   1    8.41    0.95
   4   8  -1   35.07    2.38
  -4  -8   1   37.62    1.80
   3   8  -1   48.94    2.67
  -3  -8   1   47.19    2.05
   2   8  -1    0.50    0.56
  -2  -8   1    0.72    0.29
  -2  -8   1   -0.12    0.23
   1   8  -1   52.02    2.46
  -1  -8   1   52.93    2.11
   0   8  -1  105.61    4.05
   0  -8   1   95.56    3.69
  -1   8  -1   48.78    2.15
   1  -8   1   45.01    1.92
  -2   8  -1    6.33    0.68
   2  -8   1    7.07    0.57
  -3   8  -1   57.87    2.55
   3  -8   1   56.80    2.29
  -4   8  -1   45.35    2.26
   4  -8   1   48.92    1.99
  -5   8  -1   17.28    1.33
   5  -8   1   18.14    1.03
  -6   8  -1    0.89    0.59
  -7   8  -1    8.61    1.40
   5   7  -1   17.02    2.01
  -5  -7   1   19.81    1.28
   4   7  -1   28.77    2.16
  -4  -7   1   31.70    1.57
   3   7  -1    3.47    0.89
  -3  -7   1    3.13    0.48
   2   7  -1   20.79    1.45
  -2  -7   1   21.39    1.02
  -2  -7   1   21.53    1.03
   1   7  -1  126.64    4.90
  -1  -7   1  128.37    4.56
  -1  -7   1  126.12    4.48
   0   7  -1   91.91    3.56
   0  -7   1   93.64    3.32
   0  -7   1   85.06    3.13
  -1   7  -1    6.44    0.62
   1  -7   1    6.50    0.50
  -2   7  -1   21.21    1.15
   2  -7   1   19.50    0.98
  -3   7  -1   49.86    2.23
   3  -7   1   50.79    2.01
  -4   7  -1   26.21    1.51
   4  -7   1   27.66    1.26
  -5   7  -1   11.71    1.08
   5  -7   1   10.67    0.84
  -6   7  -1   13.04    1.27
  -7   7  -1   15.41    1.61
  -5  -6   1   12.07    1.02
   4   6  -1   -0.27    0.74
  -4  -6   1    0.63    0.39
   3   6  -1   21.90    1.65
  -3  -6   1   23.74    1.18
   2   6  -1   47.79    2.37
  -2  -6   1   50.13    1.96
  -2  -6   1   49.86    1.91
   1   6  -1   69.79    2.91
  -1  -6   1   72.09    2.62
  -1  -6   1   69.22    2.56
   0   6  -1    3.15    0.46
   0  -6   1    2.60    0.21
   0  -6   1    3.40    0.36
  -1   6  -1   55.07    2.23
   1  -6   1   53.46    2.07
  -2   6  -1  160.68    5.59
  -2   6  -1  168.43    5.98
   2  -6   1  166.03    5.79
  -3   6  -1   45.70    2.02
  -3   6  -1   44.67    1.68
   3  -6   1   45.65    1.79
  -4   6  -1    0.30    0.21
  -4   6  -1    0.23    0.33
   4  -6   1    0.01    0.22
  -5   6  -1    6.51    0.92
  -5   6  -1    6.63    0.65
  -6   6  -1   22.36    1.65
  -7   6  -1   15.62    1.64
  -6  -5   1   17.47    1.30
  -5  -5   1    0.98    0.49
  -4  -5   1   37.75    1.76
  -3  -5   1   70.52    2.75
   2   5  -1  104.97    4.46
  -2  -5   1  118.95    4.11
  -2  -5   1  117.01    4.03
   1   5  -1    4.28    0.58
  -1  -5   1    3.17    0.29
  -1  -5   1    4.24    0.37
   0   5  -1   91.08    3.27
   0  -5   1   87.33    3.11
   0  -5   1   81.85    2.99
  -1   5  -1  304.88   10.55
   1  -5   1  304.61   10.42
  -2   5  -1  229.16    8.01
  -2   5  -1  221.63    7.72
   2  -5   1  231.74    7.84
  -3   5  -1    6.55    0.41
  -3   5  -1    6.17    0.59
   3  -5   1    6.36    0.45
  -4   5  -1   15.73    0.82
  -4   5  -1   14.94    1.05
   4  -5   1   16.16    0.78
  -5   5  -1   43.82    1.88
  -5   5  -1   43.78    2.19
  -6   5  -1   26.16    1.40
  -6   5  -1   27.03    1.77
  -7   5  -1    5.60    1.10
  -7   5  -1    6.95    0.86
  -6  -4   1    3.04    0.70
  -5  -4   1   14.49    1.07
  -4  -4   1   87.40    3.41
  -3  -4   1   68.51    2.51
  -3  -4   1   70.55    2.70
  -2  -4   1   27.64    1.17
  -2  -4   1   26.82    1.08
   1   4  -1   25.46    1.24
  -1  -4   1   25.09    1.00
  -1  -4   1   24.29    1.00
   0   4  -1   59.45    2.21
   0  -4   1   58.11    2.10
   0  -4   1   55.40    2.01
  -1   4  -1  331.77   11.58
  -1   4  -1  343.43   11.79
   1  -4   1  357.67   11.70
  -2   4  -1  123.55    4.37
  -2   4  -1  128.51    4.59
   2  -4   1  128.53    4.42
  -3   4  -1   54.38    2.23
  -3   4  -1   52.29    2.01
   3  -4   1   54.26    1.98
  -4   4  -1   52.14    2.34
  -4   4  -1   55.61    2.13
   4  -4   1   52.75    1.99
  -5   4  -1   26.14    1.29
  -5   4  -1   25.15    1.54
  -6   4  -1    7.56    1.09
  -6   4  -1    9.22    0.92
  -7   4  -1    3.14    0.66
  -7   4  -1    2.76    1.00
  -6  -3   1    2.41    0.63
  -5  -3   1   53.89    2.37
  -4  -3   1   77.94    3.06
  -3  -3   1   67.51    2.44
  -3  -3   1   69.00    2.63
  -2  -3   1  104.96    3.72
  -2  -3   1  109.52    3.84
   1   3  -1   64.80    2.63
  -1  -3   1   69.35    2.43
  -1  -3   1   69.49    2.40
   0   3  -1   85.73    3.09
   0  -3   1   86.26    2.97
   0  -3   1   87.87    3.02
  -1   3  -1  250.68    8.92
  -1   3  -1  268.81    9.07
   1  -3   1  274.18    8.98
  -2   3  -1   17.00    0.71
  -2   3  -1   16.48    0.84
   2  -3   1   16.93    0.70
  -3   3  -1  128.43    4.69
  -3   3  -1  128.48    4.50
   3  -3   1  124.88    4.40
  -4   3  -1   70.01    2.65
  -4   3  -1   67.72    2.85
   4  -3   1   68.38    2.45
  -5   3  -1    6.59    0.69
  -5   3  -1    7.99    0.99
  -6   3  -1    7.77    0.87
  -6   3  -1    6.40    1.10
  -7   3  -1   19.57    1.34
  -6  -2   1   26.39    1.55
  -5  -2   1   59.29    2.54
  -4  -2   1   21.05    1.12
  -3  -2   1   11.36    0.69
  -3  -2   1   12.07    0.55
  -2  -2   1  303.73   10.34
  -2  -2   1  307.15   10.45
  -1  -2   1  119.68    4.12
  -1  -2   1  120.50    4.16
   0   2  -1  126.77    4.34
   0   2  -1  132.14    4.41
   0  -2   1  130.08    4.37
   0  -2   1  123.42    4.34
  -1   2  -1    3.66    0.28
  -1   2  -1    3.48    0.22
   1  -2   1    3.96    0.23
  -2   2  -1  152.66    5.40
  -2   2  -1  153.32    5.28
   2  -2   1  152.51    5.21
  -3   2  -1  115.20    4.11
  -3   2  -1  116.37    4.26
   3  -2   1  112.79    3.94
  -4   2  -1   45.42    2.04
  -4   2  -1   42.27    1.82
  -5   2  -1    0.50    0.36
  -5   2  -1    0.18    0.49
  -6   2  -1   34.89    1.77
  -7   2  -1   14.80    1.17
  -7  -1   1   13.44    1.20
  -6  -1   1   34.08    1.78
  -5  -1   1    8.80    0.81
  -4  -1   1    0.76    0.30
  -3  -1   1  169.80    6.11
  -3  -1   1  186.81    6.27
  -2  -1   1  115.91    4.14
  -2  -1   1  119.32    4.05
  -1  -1   1   12.92    0.49
  -1  -1   1   12.10    0.53
   0   1  -1   -0.42    0.02
  -1   1  -1  381.15   12.96
  -1   1  -1  374.28   12.91
   1  -1   1  392.03   12.86
  -2   1  -1  121.49    4.34
  -2   1  -1  120.65    4.24
   2  -1   1  121.03    4.10
  -3   1  -1   36.00    1.51
  -3   1  -1   37.58    1.65
  -4   1  -1    4.24    0.53
  -4   1  -1    3.31    0.63
  -5   1  -1   34.67    1.66
  -6   1  -1   29.50    1.61
  -7   1  -1    5.02    0.84
  -7   0   1   19.33    1.36
  -6   0   1   18.40    1.20
  -5   0   1    7.30    0.79
  -4   0   1   52.62    2.14
  -3   0   1  200.98    7.03
  -3   0   1  200.80    7.15
  -3   0   1  202.96    6.89
  -2   0   1   68.86    2.36
  -2   0   1   66.93    2.49
  -2   0   1   65.18    2.42
  -1   0   1    0.98    0.13
  -1   0   1    0.83    0.13
  -1   0   1    1.42    0.14
   0   0  -1   -0.05    0.03
   0   0   1    0.00    0.02
  -1   0  -1  477.67   16.13
  -2   0  -1  105.72    3.75
  -3   0  -1    5.03    0.44
  -4   0  -1   49.46    2.07
  -5   0  -1   77.80    3.13
  -6   0  -1   24.81    1.45
  -7   0  -1   -0.16    0.48
  -7   1   1    6.19    0.90
  -6   1   1    7.95    0.89
  -5   1   1   30.47    1.70
  -5   1   1   27.53    1.42
  -4   1   1  120.69    4.39
  -4   1   1  129.75    4.79
  -4   1   1  130.79    4.62
  -3   1   1  113.99    4.09
  -3   1   1  111.52    3.96
  -3   1   1  106.89    3.84
  -2   1   1    4.27    0.35
  -2   1   1    3.95    0.29
  -2   1   1    3.91    0.26
  -1   1   1  159.45    5.45
  -1   1   1  159.75    5.51
  -1   1   1  162.83    5.47
   0  -1  -1  346.68   11.22
   0   1   1  333.14   11.20
   0   1   1  314.19   11.31
  -1  -1  -1  198.52    6.82
  -1  -1  -1  200.67    6.73
  -2  -1  -1   74.38    2.72
  -3  -1  -1   35.68    1.51
  -4  -1  -1   44.76    1.93
  -5  -1  -1   22.06    1.27
  -6  -1  -1    0.33    0.44
  -7   2   1   -0.34    0.44
  -6   2   1   36.93    2.18
  -6   2   1   38.07    1.84
  -5   2   1   45.05    1.98
  -5   2   1   47.32    2.26
  -4   2   1   68.25    2.70
  -4   2   1   60.71    2.47
  -3   2   1    3.27    0.34
  -3   2   1    2.70    0.26
  -3   2   1    4.34    0.52
  -2   2   1   74.46    2.76
  -2   2   1   74.17    2.63
  -2   2   1   74.91    2.63
  -1   2   1   94.36    3.36
  -1   2   1  100.89    3.31
  -1   2   1   95.38    3.43
   0  -2  -1  109.96    3.73
   0  -2  -1  109.85    3.70
   0   2   1  105.15    3.86
  -1  -2  -1    2.18    0.18
  -1  -2  -1    1.80    0.22
  -2  -2  -1  106.84    3.74
  -2  -2  -1  101.90    3.56
  -3  -2  -1   56.21    2.23
  -4  -2  -1   24.98    1.27
  -5  -2  -1    1.74    0.51
  -6  -2  -1   20.31    1.38
  -7   3   1   16.57    1.66
  -7   3   1   17.06    1.22
  -6   3   1   27.41    1.46
  -6   3   1   28.39    1.83
  -5   3   1   32.23    1.51
  -5   3   1   34.41    1.81
   4  -3  -1    6.01    0.44
  -4   3   1    6.78    0.52
  -4   3   1    6.82    0.68
   3  -3  -1   78.27    2.83
  -3   3   1   81.98    3.06
  -3   3   1   76.75    2.85
   2  -3  -1  145.37    5.06
  -2   3   1  145.57    5.01
  -2   3   1  147.41    5.20
   1  -3  -1  163.56    5.73
   1  -3  -1  168.14    5.64
  -1   3   1  168.79    5.84
   0  -3  -1    2.16    0.18
   0  -3  -1    2.34    0.23
   0   3   1    3.22    0.41
  -1  -3  -1   97.38    3.38
  -1  -3  -1   97.80    3.34
   1   3   1   91.62    3.69
  -2  -3  -1  162.91    5.67
  -2  -3  -1  159.97    5.52
  -3  -3  -1   43.54    1.82
  -4  -3  -1    2.94    0.48
  -5  -3  -1    7.06    0.86
  -6  -3  -1   29.73    1.72
  -7   4   1   25.32    1.90
  -7   4   1   27.03    1.52
  -6   4   1   14.09    0.96
  -6   4   1   12.61    1.27
  -5   4   1    1.60    0.57
  -5   4   1    2.22    0.41
   4  -4  -1   39.27    1.52
  -4   4   1   35.28    1.52
  -4   4   1   37.70    1.80
   3  -4  -1  102.47    3.68
  -3   4   1  101.74    3.64
  -3   4   1  105.32    3.90
   2  -4  -1   82.86    2.98
  -2   4   1   83.72    2.87
  -2   4   1   81.85    3.13
   1  -4  -1   28.76    1.15
  -1   4   1   28.83    1.28
   0  -4  -1  137.44    4.64
   0  -4  -1  135.70    4.72
   0   4   1  133.80    4.94
  -1  -4  -1  187.05    6.27
  -1  -4  -1  187.26    6.29
   1   4   1  170.72    6.62
  -2  -4  -1   58.50    2.23
  -2  -4  -1   57.77    2.11
  -3  -4  -1    0.38    0.27
  -4  -4  -1    8.07    0.80
  -5  -4  -1   40.95    2.00
  -6  -4  -1   16.60    1.29
  -7   5   1   12.13    1.55
  -6   5   1    0.07    0.32
  -6   5   1    0.13    0.55
   5  -5  -1   20.97    1.03
  -5   5   1   22.14    1.42
  -5   5   1   20.58    1.07
   4  -5  -1   65.76    2.42
  -4   5   1   60.95    2.37
  -4   5   1   63.45    2.71
   3  -5  -1   18.91    0.89
  -3   5   1   18.71    0.79
  -3   5   1   18.86    1.07
   2  -5  -1   30.14    1.10
   2  -5  -1   31.17    1.28
  -2   5   1   31.69    1.44
   1  -5  -1   19.46    0.90
  -1   5   1   21.70    1.09
   0  -5  -1  163.65    5.55
   0  -5  -1  155.22    5.43
   0   5   1  158.18    5.81
  -1  -5  -1  110.08    3.84
  -1  -5  -1  112.40    3.85
   1   5   1  102.18    4.22
  -2  -5  -1    7.98    0.55
  -2  -5  -1    7.63    0.49
   2   5   1    8.79    1.07
  -3  -5  -1   38.43    1.67
   3   5   1   35.45    2.17
  -4  -5  -1   27.21    1.44
  -5  -5  -1   23.04    1.41
  -7   6   1    0.78    0.76
  -6   6   1   18.95    1.50
   5  -6  -1   55.48    2.20
  -5   6   1   54.70    2.59
   4  -6  -1   49.71    1.99
  -4   6   1   48.99    2.27
   3  -6  -1    2.38    0.35
  -3   6   1    2.81    0.53
   2  -6  -1   14.01    0.75
  -2   6   1   15.34    0.94
   1  -6  -1  145.54    5.32
  -1   6   1  156.30    5.59
   0  -6  -1   63.52    2.29
   0  -6  -1   66.66    2.44
   0   6   1   63.92    2.72
  -1  -6  -1   42.85    1.65
  -1  -6  -1   41.04    1.60
   1   6   1   38.94    2.02
  -2  -6  -1    4.27    0.43
  -2  -6  -1    3.91    0.46
   2   6   1    3.59    0.80
  -3  -6  -1   22.54    1.16
   3   6   1   19.27    1.67
  -4  -6  -1   19.01    1.18
   4   6   1   19.59    1.84
  -5  -6  -1    2.25    0.58
   5   6   1    0.64    1.04
  -7   7   1    2.59    0.88
  -6   7   1   29.05    1.85
   5  -7  -1   39.25    1.73
  -5   7   1   39.25    2.09
   4  -7  -1    5.81    0.59
  -4   7   1    6.49    0.84
   3  -7  -1   21.08    1.05
  -3   7   1   20.83    1.27
   2  -7  -1   49.05    2.04
  -2   7   1   54.21    2.32
   1  -7  -1   37.87    1.63
  -1   7   1   40.88    1.92
   0  -7  -1    5.44    0.51
   0   7   1    4.89    0.73
  -1  -7  -1    1.77    0.28
  -1  -7  -1    0.97    0.28
   1   7   1    1.25    0.60
  -2  -7  -1  124.82    4.65
  -2  -7  -1  129.50    4.62
   2   7   1  126.89    5.20
  -3  -7  -1   27.93    1.41
   3   7   1   29.96    2.03
  -4  -7  -1    3.04    0.60
   4   7   1    3.09    1.05
  -5  -7  -1    4.81    0.81
   5   7   1    4.69    1.33
  -7   8   1   11.54    1.48
  -6   8   1    9.97    1.31
   5  -8  -1    8.35    0.79
  -5   8   1    8.25    1.12
   4  -8  -1    1.19    0.40
  -4   8   1    2.09    0.56
   3  -8  -1   42.44    1.83
   2  -8  -1   60.93    2.43
   1  -8  -1    1.60    0.34
  -1   8   1    0.97    0.47
   0  -8  -1   14.86    0.84
   0   8   1   12.87    1.10
  -1  -8  -1   34.12    1.45
   1   8   1   28.51    1.83
   2   8   1   28.62    1.90
   3   8   1    7.90    1.32
   4   8   1    2.64    1.08
  -6   9   1    0.96    0.66
   5  -9  -1    2.14    0.54
  -5   9   1    3.33    0.78
   4  -9  -1   43.38    1.98
  -4   9   1   45.27    2.32
   3  -9  -1   32.63    1.54
  -3   9   1   31.32    1.82
   2  -9  -1   16.52    1.02
  -2   9   1   18.82    1.32
   1  -9  -1    9.88    0.75
  -1   9   1    9.76    1.12
   0  -9  -1   20.51    1.13
   0   9   1   21.94    1.51
  -1  -9  -1   51.26    2.08
   1   9   1   47.39    2.55
   2   9   1    6.34    1.13
   3   9   1    0.42    0.79
  -6  10   1    3.08    0.91
   5 -10  -1   12.91    1.06
  -5  10   1   12.91    1.29
   4 -10  -1   16.95    1.14
  -4  10   1   17.87    1.43
   3 -10  -1    7.00    0.78
  -3  10   1    8.22    1.07
   2 -10  -1    1.36    0.41
  -2  10   1    1.21    0.54
   1 -10  -1   56.39    2.38
  -1  10   1   56.09    2.79
   0 -10  -1   34.24    1.65
   0  10   1   34.61    2.10
  -1 -10  -1    8.18    0.77
   1  10   1    8.41    1.24
   2  10   1    1.89    0.85
   3  10   1   10.99    1.53
   6 -11  -1   10.13    1.06
   5 -11  -1   19.49    1.35
  -5  11   1   21.54    1.74
   4 -11  -1    3.11    0.62
  -4  11   1    3.41    0.85
   3 -11  -1    0.22    0.43
  -3  11   1    0.18    0.52
   2 -11  -1   27.09    1.50
  -2  11   1   28.69    1.89
   1 -11  -1   21.27    1.28
  -1  11   1   21.96    1.65
   0 -11  -1    6.67    0.76
   0  11   1    7.16    1.20
  -1 -11  -1    0.22    0.40
   1  11   1    1.02    0.70
   2  11   1   10.04    1.48
   5 -12  -1    3.50    0.77
  -5  12   1    4.02    1.20
   4 -12  -1   -0.12    0.50
  -4  12   1    1.74    0.77
   3 -12  -1    6.14    0.84
  -3  12   1    8.13    1.19
   2 -12  -1   23.55    1.47
  -2  12   1   26.16    1.90
   1 -12  -1    6.41    0.84
  -1  12   1    8.66    1.27
   0 -12  -1   -0.19    0.39
   0  12   1    0.82    0.69
   1  12   1   10.90    1.53
   3 -13  -1   13.00    1.23
  -3  13   1   16.82    1.64
   2 -13  -1    2.74    0.70
  -2  13   1    4.25    1.09
   1 -13  -1    0.33    0.47
  -1  13   1    1.25    0.79
   0 -13  -1    4.94    0.77
   0  14  -2    1.42    0.67
   0 -14   2   -0.27    0.45
  -1  14  -2    3.62    0.91
   1 -14   2    2.18    0.68
  -2  14  -2   13.94    1.46
   2 -14   2   12.12    1.18
  -3  14  -2   10.99    1.49
   3 -14   2    9.71    1.09
   1  13  -2    2.27    0.83
  -1 -13   2    0.72    0.50
   0  13  -2    9.55    1.29
   0 -13   2    6.68    0.84
  -1  13  -2   32.06    2.03
   1 -13   2   30.35    1.71
  -2  13  -2   14.69    1.37
   2 -13   2   13.57    1.15
  -3  13  -2    1.62    0.68
   3 -13   2    0.38    0.54
  -4  13  -2    3.20    0.85
   4 -13   2    1.90    0.64
   5 -13   2    8.64    1.01
   2  12  -2    6.80    1.13
   1  12  -2    4.19    0.95
  -1 -12   2    2.20    0.54
   0  12  -2   24.56    1.70
   0 -12   2   24.00    1.40
  -1  12  -2   33.81    2.02
   1 -12   2   32.90    1.72
  -2  12  -2    2.29    0.67
   2 -12   2    1.93    0.54
  -3  12  -2   -0.04    0.43
   3 -12   2   -0.01    0.44
  -4  12  -2   22.55    1.64
   4 -12   2   22.46    1.40
  -5  12  -2   12.24    1.30
   5 -12   2    9.34    0.99
   3  11  -2    5.84    1.14
   2  11  -2    3.41    0.88
   1  11  -2   23.68    1.65
  -1 -11   2   21.16    1.25
   0  11  -2   57.40    2.77
   0 -11   2   57.31    2.44
  -1  11  -2    6.13    0.92
   1 -11   2    4.41    0.69
  -2  11  -2    3.81    0.73
   2 -11   2    3.52    0.58
  -3  11  -2   21.54    1.48
   3 -11   2   19.20    1.23
  -4  11  -2   21.73    1.52
   4 -11   2   20.43    1.28
  -5  11  -2    1.43    0.67
   5 -11   2    2.69    0.59
  -6  11  -2    1.54    0.85
   4  10  -2    2.10    0.96
   3  10  -2    2.57    0.90
   2  10  -2   38.95    2.23
  -2 -10   2   38.32    1.74
   1  10  -2   20.97    1.44
  -1 -10   2   20.26    1.14
   0  10  -2   11.78    1.04
   0 -10   2   11.12    0.85
  -1  10  -2    9.39    0.91
   1 -10   2    8.45    0.79
  -2  10  -2   25.21    1.52
   2 -10   2   25.74    1.34
  -3  10  -2   97.92    4.06
   3 -10   2   97.62    3.76
  -4  10  -2    5.51    0.91
   4 -10   2    6.00    0.71
  -5  10  -2    1.76    0.62
   5 -10   2    0.55    0.45
  -6  10  -2    7.98    1.20
   4   9  -2    0.69    0.80
   3   9  -2   30.90    2.00
   2   9  -2   49.48    2.45
  -2  -9   2   44.00    1.94
   1   9  -2   18.10    1.24
  -1  -9   2   14.93    0.93
   0   9  -2    5.90    0.80
   0  -9   2    3.71    0.52
  -1   9  -2   40.73    1.95
   1  -9   2   38.72    1.73
  -2   9  -2   44.71    2.14
   2  -9   2   47.25    1.97
  -3   9  -2   30.17    1.66
   3  -9   2   31.52    1.48
  -4   9  -2    0.97    0.49
   4  -9   2    0.92    0.40
  -5   9  -2   12.58    1.19
   5  -9   2   13.70    0.95
  -6   9  -2   13.45    1.38
   5   8  -2   -0.04    0.84
  -5  -8   2    0.63    0.49
   4   8  -2   15.96    1.61
  -4  -8   2   17.92    1.14
   3   8  -2  128.24    5.28
  -3  -8   2  128.08    4.75
   2   8  -2   23.03    1.52
  -2  -8   2   21.75    1.10
  -2  -8   2   22.58    1.09
   1   8  -2    0.10    0.37
  -1  -8   2    0.69    0.23
  -1  -8   2    0.75    0.29
   0   8  -2   77.82    3.13
   0  -8   2   73.12    2.87
  -1   8  -2   44.83    2.01
   1  -8   2   44.00    1.83
  -2   8  -2   54.76    2.44
   2  -8   2   59.40    2.29
  -3   8  -2    0.12    0.31
   3  -8   2    0.50    0.30
  -4   8  -2   22.79    1.42
   4  -8   2   21.87    1.15
  -5   8  -2   41.91    2.23
  -6   8  -2    5.42    1.01
   5   7  -2   10.31    1.64
  -5  -7   2   10.52    1.07
   4   7  -2   22.18    1.83
  -4  -7   2   21.23    1.24
   3   7  -2   25.54    1.78
  -3  -7   2   27.91    1.32
   2   7  -2    0.40    0.48
  -2  -7   2    0.33    0.23
  -2  -7   2   -0.21    0.18
   1   7  -2   36.62    1.80
  -1  -7   2   38.42    1.57
  -1  -7   2   38.03    1.50
   0   7  -2  205.43    7.16
   0   7  -2  223.26    7.56
   0  -7   2  197.37    7.15
   0  -7   2  213.45    7.33
  -1   7  -2   14.42    0.61
  -1   7  -2   13.33    0.84
   1  -7   2   13.30    0.75
  -2   7  -2    4.13    0.57
   2  -7   2    4.25    0.44
  -3   7  -2   24.93    1.36
   3  -7   2   26.19    1.19
  -4   7  -2   59.38    2.65
   4  -7   2   59.87    2.33
  -5   7  -2   26.28    1.62
  -6   7  -2    0.17    0.55
  -7   7  -2    5.80    1.19
  -6  -6   2   13.68    1.72
  -5  -6   2   21.15    1.31
   4   6  -2   30.67    2.17
  -4  -6   2   37.01    1.68
   3   6  -2    0.23    0.61
  -3  -6   2   -0.07    0.23
   2   6  -2   14.88    1.09
  -2  -6   2   13.61    0.72
  -2  -6   2   13.84    0.76
   1   6  -2  157.66    5.73
  -1  -6   2  157.03    5.48
  -1  -6   2  153.58    5.44
   0   6  -2   26.92    1.06
   0   6  -2   30.24    1.34
   0  -6   2   26.76    1.06
   0  -6   2   28.51    1.19
  -1   6  -2    5.24    0.31
  -1   6  -2    4.69    0.45
   1  -6   2    4.51    0.43
  -2   6  -2   19.21    0.78
  -2   6  -2   19.83    1.05
   2  -6   2   20.38    0.93
  -3   6  -2   62.71    2.37
  -3   6  -2   66.52    2.69
   3  -6   2   65.84    2.44
  -4   6  -2   30.86    1.31
  -4   6  -2   29.48    1.58
   4  -6   2   28.53    1.27
  -5   6  -2    0.93    0.32
  -5   6  -2   -0.09    0.45
  -6   6  -2   11.26    0.91
  -6   6  -2   10.90    1.30
  -7   6  -2   10.42    1.44
  -6  -5   2   31.75    1.78
  -5  -5   2   12.92    1.01
  -4  -5   2   -0.02    0.30
  -3  -5   2   29.60    1.32
  -3  -5   2   26.97    1.17
   2   5  -2   68.72    2.97
  -2  -5   2   72.58    2.66
  -2  -5   2   71.01    2.59
   1   5  -2  220.99    7.59
  -1  -5   2  212.88    7.35
  -1  -5   2  207.06    7.36
   0   5  -2   12.80    0.69
   0   5  -2   12.21    0.51
   0  -5   2   10.72    0.59
   0  -5   2   10.73    0.50
  -1   5  -2   77.76    2.99
  -1   5  -2   85.52    2.83
   1  -5   2   78.49    2.91
  -2   5  -2  168.55    5.84
  -2   5  -2  168.52    6.07
   2  -5   2  173.01    5.91
  -3   5  -2   99.20    3.56
  -3   5  -2   99.30    3.81
   3  -5   2  100.15    3.55
  -4   5  -2    0.91    0.27
  -4   5  -2    0.78    0.38
   4  -5   2    0.40    0.22
  -5   5  -2   10.23    0.75
  -5   5  -2    9.46    1.01
  -6   5  -2   27.88    1.89
  -6   5  -2   28.29    1.49
  -7   5  -2   11.60    1.01
  -7   5  -2   12.75    1.58
  -6  -4   2   10.63    1.11
  -5  -4   2   -0.29    0.33
  -4  -4   2   34.48    1.62
  -3  -4   2  127.58    4.63
  -3  -4   2  127.48    4.48
  -2  -4   2  116.38    4.16
  -2  -4   2  121.65    4.25
   1   4  -2    2.07    0.37
  -1  -4   2    2.67    0.28
  -1  -4   2    2.66    0.27
   0   4  -2   51.90    1.90
   0   4  -2   48.80    1.76
   0  -4   2   49.88    1.82
   0  -4   2   46.72    1.75
  -1   4  -2  158.60    5.77
  -1   4  -2  172.77    5.64
   1  -4   2  162.88    5.68
  -2   4  -2  232.20    8.15
  -2   4  -2  229.78    7.96
   2  -4   2  237.24    7.98
  -3   4  -2    7.88    0.64
  -3   4  -2    6.79    0.47
   3  -4   2    7.04    0.43
  -4   4  -2   15.81    0.85
  -4   4  -2   15.80    1.04
   4  -4   2   14.39    0.70
  -5   4  -2   33.29    1.58
  -5   4  -2   33.60    1.85
  -6   4  -2   19.73    1.58
  -6   4  -2   20.53    1.25
  -7   4  -2    1.44    0.54
  -6  -3   2    0.76    0.46
  -5  -3   2   13.36    0.97
  -4  -3   2   66.97    2.69
  -3  -3   2  121.22    4.39
  -3  -3   2  120.91    4.24
  -2  -3   2   55.16    2.01
  -2  -3   2   55.79    2.10
   1   3  -2   15.37    0.82
  -1  -3   2   16.67    0.70
  -1  -3   2   16.65    0.69
   0   3  -2  156.47    5.37
   0   3  -2  158.50    5.42
   0  -3   2  156.28    5.39
  -1   3  -2   89.31    3.24
  -1   3  -2   92.08    3.16
   1  -3   2   90.36    3.16
  -2   3  -2   60.37    2.18
  -2   3  -2   58.42    2.30
   2  -3   2   60.42    2.13
  -3   3  -2   25.55    1.25
  -3   3  -2   26.56    1.11
   3  -3   2   23.47    0.96
  -4   3  -2   34.21    1.68
  -4   3  -2   30.96    1.44
  -5   3  -2   39.34    2.11
  -5   3  -2   42.88    1.88
  -6   3  -2    0.11    0.37
  -6   3  -2   -0.82    0.65
  -7   3  -2    2.41    0.65
  -6  -2   2    6.32    0.81
  -5  -2   2   41.15    1.90
  -4  -2   2   52.06    2.16
  -3  -2   2    0.53    0.22
  -3  -2   2    0.57    0.16
  -2  -2   2   36.38    1.42
  -2  -2   2   35.26    1.34
  -1  -2   2   82.68    2.95
  -1  -2   2   86.99    2.99
   0   2  -2  287.72    9.47
   0   2  -2  278.12    9.52
   0  -2   2  273.73    9.46
  -1   2  -2    0.19    0.13
  -1   2  -2    0.23    0.13
   1  -2   2    0.27    0.11
  -2   2  -2   50.86    1.93
  -2   2  -2   51.70    2.03
   2  -2   2   52.89    1.82
  -3   2  -2   79.42    2.95
  -3   2  -2   82.23    3.12
   3  -2   2   78.19    2.75
  -4   2  -2   47.34    1.95
  -4   2  -2   45.30    2.12
  -5   2  -2    9.24    0.79
  -6   2  -2    3.33    0.64
  -7   2  -2   12.23    1.23
  -7  -1   2    4.50    0.75
  -6  -1   2   42.86    2.06
  -5  -1   2   49.12    2.16
  -4  -1   2    9.49    0.67
  -3  -1   2   14.87    0.70
  -3  -1   2   15.27    0.78
  -2  -1   2   80.90    2.89
  -2  -1   2   79.64    2.84
  -1  -1   2  244.42    8.36
  -1  -1   2  248.29    8.38
   0   1  -2    0.91    0.15
   0   1  -2    0.84    0.08
   0  -1   2    0.77    0.11
  -1   1  -2   17.22    0.76
  -1   1  -2   16.51    0.72
   1  -1   2   18.84    0.65
  -2   1  -2  196.63    6.81
  -2   1  -2  191.15    6.70
  -3   1  -2  101.20    3.79
  -3   1  -2  107.20    3.96
  -4   1  -2    4.50    0.53
  -5   1  -2   18.70    1.13
  -6   1  -2   16.28    1.17
  -7   1  -2   14.10    1.21
  -7   0   2    9.53    1.05
  -6   0   2   35.46    1.79
  -5   0   2    9.24    0.78
  -4   0   2   11.61    0.58
  -4   0   2   11.21    0.89
  -4   0   2   11.03    0.72
  -3   0   2  107.87    3.94
  -3   0   2  106.03    3.85
  -3   0   2  106.55    3.77
  -2   0   2   96.33    3.36
  -2   0   2   94.20    3.34
  -2   0   2   94.17    3.39
  -1   0   2  181.19    6.39
  -1   0   2  190.04    6.36
  -1   0   2  188.32    6.37
   0   0  -2   17.29    0.74
   0   0   2   19.38    0.72
   1   0   2  116.12    3.95
  -2   0  -2  264.08    9.08
  -3   0  -2   19.97    0.98
  -4   0  -2   11.48    0.80
  -5   0  -2   28.76    1.49
  -6   0  -2   16.04    1.19
  -7   1   2   17.09    1.25
  -6   1   2    2.19    0.57
  -5   1   2    9.95    0.79
  -5   1   2   11.84    1.03
  -4   1   2  100.26    3.77
  -4   1   2  101.75    3.63
  -4   1   2  104.71    3.96
  -3   1   2  164.84    5.84
  -3   1   2  158.94    5.73
  -3   1   2  167.45    5.68
  -2   1   2   11.77    0.57
  -2   1   2   12.38    0.63
  -2   1   2   12.89    0.58
   1  -1  -2   75.57    2.68
  -1   1   2   77.41    2.72
  -1   1   2   76.43    2.68
  -1   1   2   78.31    2.72
   0  -1  -2   47.66    1.65
   0   1   2   48.87    1.63
   0   1   2   38.96    1.71
  -1  -1  -2  200.48    6.88
  -2  -1  -2  187.60    6.53
  -3  -1  -2    0.17    0.22
  -4  -1  -2   47.26    2.03
  -5  -1  -2   41.96    1.97
  -6  -1  -2    7.07    0.90
  -7   2   2    7.33    0.92
  -6   2   2    1.28    0.70
  -6   2   2    1.18    0.46
  -5   2   2   29.80    1.44
  -5   2   2   31.22    1.70
  -4   2   2  156.89    5.64
  -4   2   2  148.29    5.33
  -4   2   2  152.50    5.43
  -3   2   2   39.03    1.57
  -3   2   2   41.00    1.55
  -3   2   2   41.37    1.73
  -2   2   2    4.67    0.31
  -2   2   2    4.33    0.38
  -2   2   2    5.04    0.33
   1  -2  -2   94.20    3.29
  -1   2   2   97.89    3.41
  -1   2   2   94.49    3.34
   0  -2  -2  106.77    3.47
   0   2   2   86.00    3.61
   0   2   2  106.17    3.47
  -1  -2  -2   22.11    0.92
  -1  -2  -2   22.30    0.85
  -2  -2  -2    2.34    0.19
  -2  -2  -2    2.39    0.32
  -3  -2  -2   37.25    1.60
  -4  -2  -2   45.43    1.99
  -5  -2  -2    9.12    0.96
  -6  -2  -2    0.14    0.46
  -7   3   2    2.23    0.57
  -7   3   2    1.22    0.88
  -6   3   2   13.57    1.42
  -6   3   2   10.79    0.89
  -5   3   2   36.63    1.85
  -5   3   2   34.20    1.57
  -4   3   2   55.29    2.19
  -4   3   2   58.61    2.44
  -3   3   2    3.02    0.31
  -3   3   2    2.63    0.42
  -3   3   2    2.76    0.30
  -2   3   2   85.23    3.07
  -2   3   2   85.81    3.20
  -2   3   2   86.72    3.01
   1  -3  -2  114.16    3.95
   1  -3  -2  114.16    4.01
  -1   3   2  115.31    4.13
   0  -3  -2    4.19    0.28
   0  -3  -2    4.38    0.30
   0   3   2    4.70    0.55
  -1  -3  -2   30.69    1.22
  -1  -3  -2   30.50    1.17
   1   3   2   31.10    1.57
  -2  -3  -2   36.15    1.36
  -2  -3  -2   37.33    1.51
  -3  -3  -2   50.04    2.06
  -4  -3  -2   26.61    1.37
  -5  -3  -2    0.83    0.45
  -6  -3  -2   18.06    1.33
  -7   4   2   14.35    1.06
  -7   4   2   13.62    1.45
  -6   4   2   26.24    1.36
  -6   4   2   26.69    1.74
   5  -4  -2   16.41    0.89
  -5   4   2   18.62    1.27
  -5   4   2   16.24    0.93
   4  -4  -2    4.46    0.45
  -4   4   2    4.94    0.68
  -4   4   2    4.20    0.43
   3  -4  -2   30.11    1.29
  -3   4   2   31.79    1.47
  -3   4   2   31.29    1.23
   2  -4  -2  116.47    4.15
   2  -4  -2  115.90    4.03
  -2   4   2  119.68    4.04
  -2   4   2  116.31    4.30
   1  -4  -2  236.69    8.04
   1  -4  -2  234.50    8.17
  -1   4   2  241.43    8.35
   0  -4  -2   37.74    1.38
   0  -4  -2   37.78    1.44
   0   4   2   35.37    1.67
  -1  -4  -2  101.77    3.65
  -1  -4  -2  106.27    3.69
   1   4   2  102.98    4.07
  -2  -4  -2   89.59    3.14
  -2  -4  -2   89.23    3.28
   2   4   2   86.68    3.73
  -3  -4  -2   36.76    1.65
  -4  -4  -2   -0.36    0.29
  -5  -4  -2   14.00    1.09
  -6  -4  -2   22.37    1.54
  -7   5   2   11.45    1.44
  -6   5   2    8.27    1.11
   5  -5  -2    1.04    0.33
  -5   5   2    0.61    0.30
  -5   5   2    1.04    0.51
   4  -5  -2   34.89    1.48
  -4   5   2   33.51    1.71
  -4   5   2   33.73    1.40
   3  -5  -2   53.37    2.10
  -3   5   2   54.56    2.31
  -3   5   2   54.20    1.98
   2  -5  -2   62.34    2.41
   2  -5  -2   64.41    2.24
  -2   5   2   64.93    2.60
   1  -5  -2    5.81    0.43
  -1   5   2    6.07    0.59
   0  -5  -2   64.19    2.24
   0  -5  -2   65.40    2.34
   0   5   2   58.16    2.61
  -1  -5  -2   84.30    3.06
  -1  -5  -2   85.73    3.05
   1   5   2   82.75    3.49
  -2  -5  -2   40.43    1.67
  -2  -5  -2   38.01    1.55
   2   5   2   43.00    2.20
  -3  -5  -2    0.02    0.28
   3   5   2    0.45    0.67
  -4  -5  -2    8.14    0.88
  -5  -5  -2   20.53    1.33
  -7   6   2   12.91    1.53
  -6   6   2    1.86    0.69
   5  -6  -2   32.55    1.50
  -5   6   2   32.68    1.85
   4  -6  -2   54.08    2.16
  -4   6   2   52.32    2.41
   3  -6  -2   12.10    0.75
  -3   6   2   13.31    0.95
   2  -6  -2    2.46    0.34
  -2   6   2    3.08    0.52
   1  -6  -2   60.97    2.41
  -1   6   2   66.56    2.73
   0  -6  -2   66.08    2.32
   0  -6  -2   69.41    2.46
   0   6   2   57.77    2.74
  -1  -6  -2   51.46    1.95
  -1  -6  -2   51.60    1.97
   1   6   2   48.26    2.41
  -2  -6  -2    1.26    0.31
   2   6   2    1.02    0.69
  -3  -6  -2   20.54    1.15
   3   6   2   22.44    1.75
  -4  -6  -2   22.19    1.30
   4   6   2   21.30    2.02
  -5  -6  -2   12.58    1.09
   5   6   2   12.52    1.88
  -7   7   2    1.19    0.77
  -6   7   2    8.74    1.19
   5  -7  -2   43.52    1.92
  -5   7   2   45.25    2.30
   4  -7  -2   56.44    2.33
  -4   7   2   58.09    2.63
   3  -7  -2    0.11    0.26
  -3   7   2    1.20    0.41
   2  -7  -2   17.12    0.94
  -2   7   2   18.76    1.20
   1  -7  -2   73.37    2.82
  -1   7   2   74.61    3.17
   0  -7  -2   44.24    1.71
   0   7   2   35.74    1.99
  -1  -7  -2    1.30    0.30
   1   7   2    1.82    0.64
  -2  -7  -2   27.39    1.29
   2   7   2   26.84    1.84
  -3  -7  -2   24.44    1.32
   3   7   2   28.09    1.99
  -4  -7  -2   18.02    1.19
   4   7   2   16.00    1.91
  -5  -7  -2    0.73    0.52
  -7   8   2    3.18    1.00
  -6   8   2   12.81    1.35
   5  -8  -2   19.64    1.14
  -5   8   2   19.87    1.50
   4  -8  -2   -0.60    0.29
  -4   8   2    0.29    0.45
   3  -8  -2    4.52    0.57
  -3   8   2    5.42    0.83
   2  -8  -2   32.68    1.49
  -2   8   2   32.46    1.80
   1  -8  -2   30.25    1.42
  -1   8   2   30.99    1.77
   0  -8  -2    0.81    0.30
   0   8   2    0.37    0.46
  -1  -8  -2   19.13    1.01
   1   8   2   17.45    1.47
   2   8   2   28.13    1.96
   3   8   2   15.64    1.76
   4   8   2    4.92    1.26
   6  -9  -2    6.04    0.88
  -6   9   2    7.57    1.14
   5  -9  -2    1.47    0.50
  -5   9   2    1.84    0.67
   4  -9  -2   22.56    1.32
  -4   9   2   26.73    1.73
   3  -9  -2   23.86    1.30
  -3   9   2   25.93    1.65
   2  -9  -2   32.01    1.59
  -2   9   2   36.86    2.01
  -1   9   2    4.19    0.85
   0  -9  -2   14.36    0.90
   0   9   2   13.08    1.25
  -1  -9  -2   37.90    1.70
   1   9   2   37.19    2.21
   2   9   2   23.07    1.81
   3   9   2    8.17    1.43
   6 -10  -2    0.91    0.58
  -6  10   2    1.65    0.77
   5 -10  -2    9.40    0.96
  -5  10   2    9.91    1.32
   4 -10  -2   19.25    1.25
  -4  10   2   20.16    1.61
   3 -10  -2   22.48    1.33
  -3  10   2   25.10    1.72
   2 -10  -2    8.87    0.86
  -2  10   2    8.61    1.19
   1 -10  -2   10.23    0.93
  -1  10   2    9.60    1.26
   0 -10  -2   30.35    1.47
   0  10   2   24.96    1.90
  -1 -10  -2   19.48    1.15
   1  10   2   18.59    1.60
   2  10   2    2.32    0.92
   6 -11  -2    0.33    0.60
   5 -11  -2   15.63    1.25
  -5  11   2   17.89    1.66
   4 -11  -2   12.92    1.09
  -4  11   2   13.28    1.41
   3 -11  -2    2.55    0.60
  -3  11   2    2.73    0.81
   2 -11  -2    2.79    0.60
  -2  11   2    4.50    0.96
   1 -11  -2   18.72    1.22
  -1  11   2   20.03    1.63
   0 -11  -2   16.49    1.17
   0  11   2   18.98    1.71
   1  11   2    1.56    0.79
   4 -12  -2    6.02    0.90
  -4  12   2    7.51    1.28
   3 -12  -2    0.91    0.55
  -3  12   2    1.46    0.75
   2 -12  -2   14.67    1.22
  -2  12   2   20.57    1.77
   1 -12  -2   12.51    1.09
  -1  12   2   14.70    1.72
   0 -12  -2    4.24    0.71
   0  12   2    3.41    0.98
   2 -13  -2    9.77    1.12
   1 -13  -2    3.76    0.76
   0 -13  -2    1.34    0.58
  -1 -14   3   14.29    1.20
   0  14  -3    9.35    1.27
   0 -14   3    9.51    1.00
  -1  14  -3    0.56    0.58
   1 -14   3   -0.15    0.48
  -2  14  -3    7.45    1.15
   2 -14   3    6.08    0.88
  -3  14  -3   14.61    1.43
   3 -14   3   13.08    1.25
   4 -14   3    7.40    1.28
   2  13  -3   20.19    1.72
   1  13  -3   20.06    1.57
  -1 -13   3   17.35    1.26
   0  13  -3    1.77    0.65
   0 -13   3    1.20    0.53
  -1  13  -3   17.81    1.46
   1 -13   3   15.89    1.22
  -2  13  -3   17.04    1.39
   2 -13   3   15.24    1.21
  -3  13  -3    8.53    1.19
   3 -13   3   10.11    1.06
  -4  13  -3    2.02    0.73
   4 -13   3    0.55    0.57
   5 -13   3    1.49    0.66
   3  12  -3   16.73    1.61
   2  12  -3   15.27    1.40
   1  12  -3    1.90    0.69
  -1 -12   3    1.26    0.50
   0  12  -3   15.59    1.28
   0 -12   3   14.84    1.09
  -1  12  -3   40.93    2.21
   1 -12   3   39.57    1.94
  -2  12  -3   14.75    1.23
   2 -12   3   15.00    1.13
  -3  12  -3    1.55    0.58
   3 -12   3    2.47    0.60
  -4  12  -3    6.76    1.01
   4 -12   3    6.73    0.85
  -5  12  -3   15.97    1.46
   5 -12   3   15.02    1.21
   3  11  -3   13.13    1.50
   2  11  -3    5.14    0.91
  -2 -11   3    4.03    0.59
   1  11  -3    0.80    0.52
  -1 -11   3    0.42    0.38
   0  11  -3   43.07    2.17
   0 -11   3   41.12    1.93
  -1  11  -3   31.42    1.74
   1 -11   3   28.42    1.52
  -2  11  -3    2.22    0.60
   2 -11   3    2.55    0.55
  -3  11  -3   14.53    1.20
   3 -11   3   16.24    1.09
  -4  11  -3   19.60    1.44
   4 -11   3   19.35    1.24
  -5  11  -3   12.93    1.26
   5 -11   3   11.68    1.02
  -6  11  -3    2.84    0.97
   4  10  -3   12.65    1.55
   3  10  -3    3.37    0.85
   2  10  -3    9.38    1.15
  -2 -10   3    7.40    0.72
   1  10  -3   36.61    1.96
  -1 -10   3   37.29    1.70
   0  10  -3   28.19    1.57
   0 -10   3   27.23    1.39
  -1  10  -3    1.78    0.50
   1 -10   3    2.31    0.47
  -2  10  -3    2.46    0.56
   2 -10   3    2.63    0.50
  -3  10  -3   35.73    1.90
   3 -10   3   35.25    1.67
  -4  10  -3   23.18    1.51
   4 -10   3   22.31    1.27
  -5  10  -3    3.96    0.83
   5 -10   3    2.71    0.57
  -6  10  -3    3.75    0.90
  -5  -9   3    9.00    1.03
   4   9  -3    0.61    0.72
  -4  -9   3   -0.21    0.36
   3   9  -3   37.20    2.15
  -3  -9   3   35.24    1.92
   2   9  -3   46.91    2.31
  -2  -9   3   43.72    1.90
   1   9  -3   61.05    2.65
  -1  -9   3   57.58    2.38
   0   9  -3   19.39    1.20
   0  -9   3   20.40    1.09
  -1   9  -3   11.75    0.89
   1  -9   3   12.52    0.83
  -2   9  -3  103.53    4.11
   2  -9   3  105.32    3.91
  -3   9  -3   43.47    2.11
   3  -9   3   44.93    1.91
  -4   9  -3    5.00    0.82
   4  -9   3    6.53    0.66
  -5   9  -3    0.72    0.55
  -6   9  -3   15.10    1.41
   5   8  -3    4.78    1.20
  -5  -8   3    6.47    0.85
   4   8  -3    0.47    0.70
  -4  -8   3    0.06    0.37
   3   8  -3   34.09    1.97
  -3  -8   3   30.99    1.52
   2   8  -3   58.28    2.61
  -2  -8   3   54.93    2.23
  -2  -8   3   56.52    2.25
   1   8  -3   30.92    1.55
  -1  -8   3   27.91    1.23
  -1  -8   3   28.63    1.33
   0   8  -3   15.62    0.99
   0  -8   3   15.98    0.90
  -1   8  -3   52.45    2.27
   1  -8   3   54.67    2.16
  -2   8  -3   50.28    2.24
   2  -8   3   52.83    2.09
  -3   8  -3   16.82    1.10
   3  -8   3   18.25    0.98
  -4   8  -3    0.29    0.39
   4  -8   3   -0.16    0.29
  -5   8  -3   24.96    1.62
  -6   8  -3   16.03    1.42
   5   7  -3    0.88    0.92
  -5  -7   3    2.29    0.59
   4   7  -3   50.63    2.78
  -4  -7   3   55.95    2.34
   3   7  -3   29.81    1.82
  -3  -7   3   30.32    1.44
  -3  -7   3   31.03    1.55
   2   7  -3   17.15    1.18
  -2  -7   3   16.58    0.87
  -2  -7   3   16.27    0.86
   1   7  -3    1.65    0.42
  -1  -7   3    1.62    0.32
  -1  -7   3    1.25    0.25
   0   7  -3   51.88    2.15
   0   7  -3   50.59    1.91
   0  -7   3   53.28    2.05
  -1   7  -3   57.81    2.41
  -1   7  -3   64.33    2.24
   1  -7   3   58.10    2.31
  -2   7  -3   12.77    0.59
  -2   7  -3   12.88    0.84
   2  -7   3   14.35    0.76
  -3   7  -3    3.36    0.53
  -3   7  -3    3.95    0.35
   3  -7   3    3.23    0.41
  -4   7  -3   32.00    1.51
  -4   7  -3   32.99    1.72
   4  -7   3   32.24    1.41
  -5   7  -3   42.12    2.22
  -6   7  -3    5.59    1.01
  -7   7  -3    0.03    0.79
  -6  -6   3    3.99    0.77
  -5  -6   3   24.85    1.43
   4   6  -3   39.85    2.44
  -4  -6   3   48.39    2.03
   3   6  -3   10.57    1.12
  -3  -6   3   10.88    0.74
  -3  -6   3   10.30    0.63
   2   6  -3    0.32    0.37
  -2  -6   3    0.36    0.21
  -2  -6   3    0.23    0.20
   1   6  -3  114.35    4.16
  -1  -6   3  111.85    3.99
  -1  -6   3  108.58    3.95
   0   6  -3  141.62    5.14
   0   6  -3  141.55    4.96
   0  -6   3  146.01    5.05
  -1   6  -3   28.65    1.15
  -1   6  -3   26.85    1.25
   1  -6   3   28.10    1.19
  -2   6  -3    2.35    0.38
  -3   6  -3   90.95    3.52
  -3   6  -3   88.72    3.23
   3  -6   3   88.75    3.25
  -4   6  -3   44.06    2.10
  -4   6  -3   44.44    1.82
   4  -6   3   44.37    1.75
  -5   6  -3   10.87    0.79
  -5   6  -3    9.67    1.01
  -6   6  -3    0.22    0.62
  -6   6  -3    0.85    0.38
  -7   6  -3    6.08    1.19
  -6  -5   3    8.55    0.96
  -5  -5   3   39.72    1.92
  -4  -5   3   21.23    1.18
  -3  -5   3    4.41    0.50
  -3  -5   3    4.29    0.41
   2   5  -3   83.01    3.35
  -2  -5   3   86.59    3.12
  -2  -5   3   82.92    3.05
   1   5  -3   94.09    3.41
  -1  -5   3   89.88    3.27
  -1  -5   3   89.81    3.26
   0   5  -3    1.44    0.19
   0   5  -3    1.45    0.25
   0  -5   3    2.19    0.27
  -1   5  -3    2.62    0.31
  -1   5  -3    3.13    0.33
   1  -5   3    2.72    0.30
  -2   5  -3   26.77    1.09
  -2   5  -3   27.21    1.26
   2  -5   3   27.45    1.13
  -3   5  -3   93.87    3.38
  -3   5  -3   93.86    3.62
   3  -5   3   92.20    3.33
  -4   5  -3   27.11    1.47
  -4   5  -3   25.35    1.21
   4  -5   3   25.48    1.09
  -5   5  -3    0.26    0.46
  -5   5  -3    1.35    0.41
  -6   5  -3   24.18    1.38
  -6   5  -3   24.86    1.75
  -7   5  -3    7.50    1.37
  -7   5  -3    9.45    1.02
  -6  -4   3   17.25    1.22
  -5  -4   3   11.44    0.93
  -4  -4   3    1.81    0.42
  -3  -4   3   90.80    3.35
  -3  -4   3   87.62    3.22
  -2  -4   3  193.10    6.72
  -2  -4   3  192.15    6.65
   1   4  -3   79.00    2.82
  -1  -4   3   72.70    2.72
  -1  -4   3   75.98    2.73
   0   4  -3   16.39    0.69
   0   4  -3   15.57    0.72
   0  -4   3   16.57    0.73
  -1   4  -3  117.32    3.92
  -1   4  -3  108.12    3.96
   1  -4   3  108.12    3.88
  -2   4  -3  327.06   11.28
  -2   4  -3  335.21   11.44
   2  -4   3  330.32   11.25
  -3   4  -3   50.83    2.19
  -3   4  -3   53.55    2.03
   3  -4   3   51.92    1.91
  -4   4  -3    3.22    0.46
  -4   4  -3    3.18    0.58
  -5   4  -3   20.18    1.42
  -5   4  -3   21.62    1.19
  -6   4  -3   27.43    1.91
  -6   4  -3   31.86    1.62
  -6  -3   3   11.42    1.12
  -5  -3   3    0.57    0.38
  -4  -3   3   12.81    0.82
  -3  -3   3  113.48    4.25
  -3  -3   3  121.08    4.17
  -2  -3   3  147.31    5.14
  -2  -3   3  144.54    5.07
   1   3  -3    0.28    0.18
  -1  -3   3    0.11    0.14
  -1  -3   3    0.00    0.12
   0   3  -3  165.76    5.87
   0   3  -3  176.44    5.91
   0  -3   3  172.92    5.89
  -1   3  -3   54.80    2.08
  -1   3  -3   57.84    2.07
   1  -3   3   55.53    2.01
  -2   3  -3   24.96    1.15
  -2   3  -3   24.40    1.05
   2  -3   3   26.53    0.98
  -3   3  -3    5.26    0.50
  -3   3  -3    4.97    0.58
   3  -3   3    4.84    0.31
  -4   3  -3    4.17    0.68
  -4   3  -3    3.23    0.48
  -5   3  -3   83.08    3.59
  -5   3  -3   83.07    3.29
  -6   3  -3   10.60    0.93
  -7   3  -3    0.26    0.50
  -7  -2   3    8.21    1.43
  -6  -2   3    0.25    0.41
  -5  -2   3   21.19    1.21
  -4  -2   3   79.12    2.90
  -4  -2   3   67.61    3.06
  -3  -2   3   37.58    1.55
  -3  -2   3   36.56    1.47
  -2  -2   3   33.57    1.33
  -2  -2   3   32.03    1.27
   1   2  -3   12.78    0.58
  -1  -2   3   12.58    0.57
  -1  -2   3   12.62    0.58
   0   2  -3   31.64    1.23
   0   2  -3   31.31    1.14
   0  -2   3   31.69    1.19
  -1   2  -3   37.58    1.46
   1  -2   3   38.92    1.38
  -2   2  -3   22.65    1.07
  -2   2  -3   22.11    0.98
   2  -2   3   23.25    0.86
  -3   2  -3   41.36    1.83
  -3   2  -3   40.96    1.68
  -4   2  -3   37.55    1.87
  -4   2  -3   37.63    1.67
  -5   2  -3   16.13    1.06
  -6   2  -3    0.55    0.45
  -7   2  -3    4.15    0.76
  -7  -1   3    0.09    0.47
  -6  -1   3   25.42    1.45
  -5  -1   3   41.38    1.88
  -4  -1   3   26.27    1.15
  -4  -1   3   25.93    1.24
  -3  -1   3    0.88    0.24
  -3  -1   3    1.08    0.22
  -2  -1   3   49.54    1.85
  -2  -1   3   49.12    1.86
   1   1  -3 1000.00   33.95
  -1  -1   3  992.98   33.65
  -1  -1   3  997.94   33.77
   0   1  -3  272.19    9.38
   0  -1   3  276.38    9.31
  -1   1  -3    2.58    0.29
   1  -1   3    2.32    0.19
  -2   1  -3  177.04    6.15
   2  -1   3  175.45    5.96
  -3   1  -3   75.93    2.87
  -4   1  -3   59.26    2.42
  -5   1  -3   -0.17    0.33
  -6   1  -3    2.82    0.62
  -7   1  -3   19.45    2.31
  -7   0   3    3.53    0.70
  -6   0   3   24.17    1.38
  -5   0   3   28.43    1.41
  -4   0   3   -0.03    0.20
  -4   0   3    0.59    0.19
  -4   0   3    0.31    0.36
  -3   0   3   31.35    1.30
  -3   0   3   31.99    1.40
  -3   0   3   31.99    1.33
  -2   0   3   70.39    2.68
  -2   0   3   77.61    2.68
  -2   0   3   73.72    2.68
   1   0  -3    4.49    0.28
  -1   0   3    4.63    0.32
  -1   0   3    4.16    0.25
  -1   0   3    4.60    0.30
   0   0  -3   21.16    0.91
   0   0   3   21.00    0.85
   1   0   3    9.16    0.42
  -2   0  -3  346.62   11.88
  -3   0  -3   80.30    3.03
  -4   0  -3    2.85    0.48
  -5   0  -3    9.11    0.95
  -6   0  -3   17.87    1.23
  -6   1   3   17.71    1.15
  -5   1   3    1.80    0.42
  -5   1   3    2.29    0.62
  -4   1   3   36.47    1.45
  -4   1   3   33.83    1.51
  -4   1   3   36.36    1.69
  -3   1   3  104.63    3.65
  -3   1   3  102.61    3.75
  -3   1   3   97.26    3.64
  -2   1   3  106.89    3.87
  -2   1   3  109.67    3.86
  -2   1   3  110.20    3.83
   1  -1  -3    1.35    0.18
  -1   1   3    1.13    0.18
  -1   1   3    1.31    0.20
   0  -1  -3    0.92    0.21
   0   1   3    0.97    0.27
   0   1   3    0.61    0.14
  -1  -1  -3  243.14    8.25
   1   1   3  237.55    8.15
  -2  -1  -3   75.39    2.79
  -2  -1  -3   74.48    2.57
  -3  -1  -3    4.34    0.48
  -4  -1  -3   13.91    0.93
  -5  -1  -3   22.07    1.31
  -6  -1  -3   17.72    1.28
  -7   2   3   15.81    1.16
  -6   2   3    2.35    0.51
  -6   2   3    1.68    0.70
  -5   2   3    8.03    0.66
  -5   2   3    8.47    0.90
  -4   2   3  161.07    5.53
  -4   2   3  151.32    5.57
  -4   2   3  158.09    5.77
  -3   2   3  187.66    6.59
  -3   2   3  184.77    6.46
  -3   2   3  184.13    6.45
   2  -2  -3   10.58    0.51
  -2   2   3   10.30    0.51
  -2   2   3   10.36    0.59
  -2   2   3   10.22    0.56
   1  -2  -3   36.03    1.38
  -1   2   3   36.81    1.41
  -1   2   3   36.71    1.47
   0  -2  -3   51.05    1.78
   0   2   3   50.65    1.76
   0   2   3   40.36    1.90
  -1  -2  -3  175.85    6.17
  -1  -2  -3  185.19    6.26
  -2  -2  -3   16.13    0.82
  -2  -2  -3   15.77    0.64
  -3  -2  -3    6.69    0.65
  -4  -2  -3   36.29    1.71
  -5  -2  -3   34.48    1.78
  -6  -2  -3    1.21    0.55
  -7   3   3    1.88    0.93
  -7   3   3    2.60    0.61
  -6   3   3    1.61    0.46
  -6   3   3    1.37    0.66
  -5   3   3   32.65    1.49
  -5   3   3   33.46    1.76
  -4   3   3   54.35    2.11
  -4   3   3   52.70    2.11
  -4   3   3   55.83    2.36
  -3   3   3    7.29    0.50
  -3   3   3    6.82    0.45
  -3   3   3    7.08    0.58
   2  -3  -3   12.97    0.60
  -2   3   3   13.55    0.68
  -2   3   3   14.26    0.77
  -2   3   3   12.99    0.60
   1  -3  -3   58.72    2.24
  -1   3   3   62.62    2.28
  -1   3   3   64.36    2.43
   0  -3  -3   69.62    2.33
   0  -3  -3   67.12    2.34
   0   3   3   54.51    2.52
  -1  -3  -3    2.76    0.26
  -1  -3  -3    2.85    0.32
   1   3   3    3.62    0.63
  -2  -3  -3   19.92    0.94
  -2  -3  -3   18.12    0.77
  -3  -3  -3   72.20    2.84
  -4  -3  -3   25.28    1.35
  -5  -3  -3    2.01    0.56
  -6  -3  -3    2.65    0.67
  -7   4   3    1.85    0.87
  -6   4   3   13.97    0.95
  -6   4   3   15.29    1.31
   5  -4  -3   39.55    1.63
  -5   4   3   38.81    1.97
  -5   4   3   35.23    1.61
   4  -4  -3    8.34    0.60
  -4   4   3    8.37    0.56
  -4   4   3    8.21    0.76
   3  -4  -3   15.20    0.72
  -3   4   3   16.17    0.96
  -3   4   3   16.12    0.74
  -3   4   3   15.61    0.81
   2  -4  -3  131.13    4.65
  -2   4   3  138.28    4.93
   1  -4  -3  176.17    6.20
   1  -4  -3  179.27    6.29
  -1   4   3  187.07    6.53
   0  -4  -3   28.45    1.06
   0  -4  -3   28.23    1.11
   0   4   3   20.58    1.29
  -1  -4  -3   10.47    0.55
  -1  -4  -3   10.83    0.60
   1   4   3   11.25    0.96
  -2  -4  -3  118.34    4.15
  -2  -4  -3  107.29    3.96
   2   4   3  114.64    4.64
  -3  -4  -3   50.20    2.12
  -4  -4  -3   22.48    1.31
  -5  -4  -3    1.60    0.54
  -7   5   3   15.13    1.53
  -6   5   3   18.79    1.48
   5  -5  -3    9.70    0.73
  -5   5   3    9.59    0.96
   4  -5  -3    6.25    0.60
  -4   5   3    7.28    0.85
   3  -5  -3   60.48    2.25
   3  -5  -3   61.48    2.40
  -3   5   3   61.87    2.60
  -3   5   3   62.89    2.29
   2  -5  -3   75.42    2.77
   2  -5  -3   77.58    2.91
  -2   5   3   81.00    3.13
   1  -5  -3    2.70    0.25
   1  -5  -3    2.70    0.34
  -1   5   3    2.42    0.49
   0  -5  -3    1.79    0.28
   0  -5  -3    1.57    0.23
   0   5   3    1.57    0.47
  -1  -5  -3   28.83    1.24
  -1  -5  -3   30.51    1.23
   1   5   3   28.21    1.67
  -2  -5  -3  161.51    5.91
   2   5   3  170.77    6.49
  -3  -5  -3   15.24    0.98
   3   5   3   18.73    1.62
  -4  -5  -3    0.09    0.36
   4   5   3   -0.53    0.78
  -5  -5  -3    9.77    1.03
  -7   6   3   17.50    1.61
  -6   6   3    6.12    1.01
   5  -6  -3    1.35    0.41
  -5   6   3    1.48    0.58
   4  -6  -3   55.16    2.24
  -4   6   3   53.57    2.49
   3  -6  -3   65.02    2.63
  -3   6   3   70.15    2.91
   2  -6  -3   23.10    1.13
  -2   6   3   24.25    1.37
   1  -6  -3   10.90    0.67
  -1   6   3   10.03    0.91
   0  -6  -3   22.48    1.03
   0  -6  -3   21.51    0.92
   0   6   3   19.99    1.34
  -1  -6  -3   66.22    2.56
  -1  -6  -3   66.96    2.55
   1   6   3   71.42    3.10
  -2  -6  -3    0.70    0.29
   2   6   3    0.60    0.63
  -3  -6  -3    0.89    0.36
   3   6   3    1.17    0.78
  -4  -6  -3   11.04    0.95
   4   6   3   12.92    1.76
  -5  -6  -3   19.38    1.35
  -7   7   3    1.48    0.81
  -6   7   3    0.38    0.58
   5  -7  -3   14.85    0.99
  -5   7   3   16.75    1.34
   4  -7  -3   88.94    3.47
  -4   7   3   91.28    3.80
   3  -7  -3   41.10    1.85
  -3   7   3   45.82    2.18
   2  -7  -3    0.73    0.29
  -2   7   3    1.20    0.47
   1  -7  -3   50.49    2.03
  -1   7   3   48.02    2.38
   0  -7  -3   42.24    1.68
   0   7   3   35.21    2.03
  -1  -7  -3   78.03    2.96
   1   7   3   78.07    3.49
   2   7   3    3.23    0.95
   3   7   3    8.01    1.36
  -4  -7  -3   25.43    1.96
   4   7   3   20.19    1.97
  -7   8   3   -0.04    0.83
   6  -8  -3    3.93    0.65
  -6   8   3    3.42    0.88
   5  -8  -3   21.16    1.26
  -5   8   3   23.24    1.60
   4  -8  -3    5.83    0.71
  -4   8   3    4.96    0.86
   3  -8  -3   -0.15    0.30
  -3   8   3    0.75    0.47
   2  -8  -3   18.99    1.09
  -2   8   3   22.79    1.49
   1  -8  -3   42.82    1.88
  -1   8   3   44.59    2.32
   0  -8  -3   30.03    1.38
   0   8   3   26.48    1.73
  -1  -8  -3    5.29    0.58
   1   8   3    3.35    0.86
   2   8   3   19.10    1.64
   3   8   3   17.90    1.82
   6  -9  -3   10.87    1.00
  -6   9   3    9.50    1.28
   5  -9  -3    9.63    0.92
  -5   9   3   10.06    1.25
   4  -9  -3    1.35    0.44
  -4   9   3    0.76    0.61
   3  -9  -3    7.91    0.80
  -3   9   3    9.85    1.20
   2  -9  -3   45.76    2.02
  -2   9   3   44.94    2.43
   1  -9  -3    8.11    0.77
  -1   9   3    6.53    1.04
   0  -9  -3    1.53    0.40
   0   9   3    1.36    0.68
  -1  -9  -3   35.02    1.64
   1   9   3   35.57    2.19
   2   9   3   24.11    1.89
   3   9   3   10.44    1.56
   6 -10  -3    9.20    1.02
  -6  10   3   10.82    1.51
   5 -10  -3    0.13    0.47
  -5  10   3    0.42    0.61
   4 -10  -3   10.65    1.02
  -4  10   3   11.33    1.38
   3 -10  -3   26.63    1.51
  -3  10   3   30.88    1.98
   2 -10  -3   21.04    1.27
  -2  10   3   20.74    1.67
   1 -10  -3    3.54    0.59
  -1  10   3    3.32    0.87
   0  10   3    5.23    1.11
   1  10   3   38.12    2.36
   2  10   3   17.69    1.72
   5 -11  -3    5.77    0.88
  -5  11   3    6.89    1.20
   4 -11  -3   17.89    1.31
  -4  11   3   18.23    1.72
   3 -11  -3   19.21    1.30
  -3  11   3   19.35    1.69
   2 -11  -3    1.14    0.50
  -2  11   3    0.34    0.66
   1 -11  -3    1.90    0.56
  -1  11   3    2.21    0.86
   0 -11  -3   19.77    1.24
   0  11   3   15.25    1.62
   1  11   3   16.73    1.64
  -4  12   3   12.14    1.73
   3 -12  -3    0.90    0.59
  -3  12   3    1.76    0.86
   2 -12  -3    4.44    0.77
  -2  12   3    3.79    0.98
   1 -12  -3   11.78    1.11
  -1  12   3   11.16    1.52
   0 -12  -3   13.52    1.17
  -1  15  -4    7.43    1.60
  -2  15  -4    5.50    1.25
   1  14  -4   15.30    1.41
  -1 -14   4    9.39    1.04
   0  14  -4   18.79    1.50
   0 -14   4   15.77    1.28
  -1  14  -4    4.86    0.92
   1 -14   4    4.54    0.79
  -2  14  -4    2.91    0.76
   2 -14   4    2.70    0.71
  -3  14  -4   11.92    1.25
   3 -14   4   11.25    1.12
  -4  14  -4   11.79    1.56
   4 -14   4   10.34    1.11
   2  13  -4   16.29    1.52
   1  13  -4   21.35    1.56
  -1 -13   4   17.81    1.26
   0  13  -4   12.73    1.20
   0 -13   4   13.26    1.10
  -1  13  -4    1.00    0.53
   1 -13   4    0.69    0.51
  -2  13  -4    8.06    1.10
   2 -13   4    9.10    0.96
  -3  13  -4   17.51    1.42
   3 -13   4   19.11    1.32
  -4  13  -4    5.52    1.00
   4 -13   4    5.65    0.83
  -5  13  -4   -0.63    0.86
   5 -13   4   -0.41    0.54
   2  12  -4   25.54    1.72
  -2 -12   4   22.33    1.33
   1  12  -4   18.31    1.37
  -1 -12   4   14.55    1.09
   0  12  -4    0.38    0.41
   0 -12   4    0.30    0.41
  -1  12  -4   16.95    1.25
   1 -12   4   14.69    1.13
  -2  12  -4   26.93    1.69
   2 -12   4   28.22    1.54
  -3  12  -4   14.87    1.24
   3 -12   4   14.86    1.16
  -4  12  -4    1.03    0.58
   4 -12   4    0.09    0.50
  -5  12  -4    9.10    1.22
   5 -12   4    7.16    0.90
   3  11  -4   33.49    2.07
   2  11  -4   11.85    1.15
  -2 -11   4   12.52    0.90
   1  11  -4    1.15    0.52
  -1 -11   4    0.70    0.40
   0  11  -4   19.65    1.32
   0 -11   4   22.03    1.24
  -1  11  -4   36.13    1.86
   1 -11   4   34.24    1.71
  -2  11  -4   35.05    1.90
   2 -11   4   37.96    1.78
  -3  11  -4    0.07    0.41
   3 -11   4    1.08    0.47
  -4  11  -4    7.48    1.03
   4 -11   4    6.47    0.77
  -5  11  -4   17.80    1.47
   5 -11   4   18.34    1.56
  -6  11  -4    8.05    1.35
   3  10  -4   20.36    1.54
   2  10  -4    1.21    0.54
  -2 -10   4    1.52    0.39
   1  10  -4   20.02    1.30
  -1 -10   4   18.09    1.08
   0  10  -4   32.26    1.67
   0 -10   4   31.26    1.52
  -1  10  -4   16.28    1.10
   1 -10   4   17.35    1.05
  -2  10  -4    2.09    0.51
   2 -10   4    2.19    0.48
  -3  10  -4   17.09    1.22
   3 -10   4   17.79    1.09
  -4  10  -4   21.32    1.46
   4 -10   4   23.65    1.29
  -5  10  -4   18.97    1.51
  -6  10  -4    0.33    0.66
  -5  -9   4   14.83    1.17
   4   9  -4   28.91    3.32
  -4  -9   4   24.62    1.42
   3   9  -4    0.23    0.49
  -3  -9   4   -0.48    0.30
   2   9  -4   25.61    1.49
  -2  -9   4   24.24    1.21
  -2  -9   4   24.20    1.23
   1   9  -4   79.57    3.27
  -1  -9   4   79.77    3.08
   0   9  -4   49.38    2.19
   0  -9   4   50.21    2.08
  -1   9  -4    1.10    0.36
   1  -9   4    0.71    0.32
  -2   9  -4   54.25    2.39
   2  -9   4   54.29    2.24
  -3   9  -4   46.70    2.22
   3  -9   4   47.97    2.01
  -4   9  -4   29.98    1.72
   4  -9   4   30.38    1.46
  -5   9  -4    2.81    0.74
  -6   9  -4    4.10    0.92
  -5  -8   4   10.97    1.07
   4   8  -4    6.42    1.10
  -4  -8   4    4.29    0.67
   3   8  -4   17.34    1.30
  -3  -8   4   14.53    0.88
  -3  -8   4   14.50    0.95
   2   8  -4   56.72    2.52
  -2  -8   4   58.97    2.27
  -2  -8   4   54.16    2.25
   1   8  -4  132.86    4.88
   1   8  -4  141.64    5.13
  -1  -8   4  136.63    4.88
  -1  -8   4  139.02    4.96
   0   8  -4   14.91    0.91
   0   8  -4   15.07    0.74
   0  -8   4   15.05    0.87
  -1   8  -4   22.44    1.17
   1  -8   4   22.10    1.10
  -2   8  -4   51.80    2.24
   2  -8   4   52.10    2.10
  -3   8  -4   31.48    1.66
   3  -8   4   34.18    1.48
  -4   8  -4   11.60    1.03
   4  -8   4   11.64    0.79
  -5   8  -4    5.21    0.88
  -6   8  -4   17.57    1.55
  -5  -7   4    0.31    0.45
   4   7  -4   14.38    1.37
  -4  -7   4   13.31    0.97
   3   7  -4   31.01    1.77
  -3  -7   4   33.04    1.51
  -3  -7   4   31.54    1.41
   2   7  -4   38.72    1.77
  -2  -7   4   34.35    1.53
  -2  -7   4   34.35    1.51
   1   7  -4   29.38    1.38
   1   7  -4   27.56    1.20
  -1  -7   4   29.38    1.28
  -1  -7   4   28.99    1.23
   0   7  -4   21.67    0.91
   0   7  -4   19.06    1.01
   0  -7   4   20.05    0.98
  -1   7  -4   79.58    3.04
  -1   7  -4   76.14    2.94
   1  -7   4   81.57    2.96
  -2   7  -4   61.08    2.30
  -2   7  -4   63.10    2.55
   2  -7   4   62.62    2.39
  -3   7  -4    0.94    0.36
  -3   7  -4    1.36    0.28
   3  -7   4    1.58    0.34
  -4   7  -4   12.85    0.77
  -4   7  -4   13.12    1.04
   4  -7   4   13.30    0.79
  -5   7  -4   16.86    1.02
  -5   7  -4   16.99    1.33
  -6   7  -4   14.98    1.42
  -6  -6   4    1.42    0.59
  -5  -6   4   11.12    1.08
   4   6  -4   50.22    2.70
  -4  -6   4   56.98    2.34
   3   6  -4   36.81    1.95
  -3  -6   4   38.60    1.66
  -3  -6   4   36.31    1.55
   2   6  -4    6.90    0.68
  -2  -6   4    5.20    0.48
  -2  -6   4    4.73    0.46
   1   6  -4   24.20    1.05
   1   6  -4   24.84    1.15
  -1  -6   4   24.24    1.08
  -1  -6   4   24.22    1.06
   0   6  -4  131.64    4.78
   0   6  -4  133.09    4.70
   0  -6   4  136.51    4.75
  -1   6  -4   95.89    3.55
  -1   6  -4   93.11    3.49
   1  -6   4   98.16    3.47
  -2   6  -4   29.71    1.22
  -2   6  -4   30.04    1.39
   2  -6   4   28.86    1.24
  -3   6  -4   38.78    1.57
  -3   6  -4   38.46    1.79
   3  -6   4   37.84    1.54
  -4   6  -4   48.89    2.31
  -4   6  -4   50.71    2.05
   4  -6   4   50.73    1.95
  -5   6  -4   39.53    1.78
  -5   6  -4   38.11    2.08
  -6   6  -4    4.84    0.69
  -6   6  -4    4.43    0.98
  -7   6  -4    0.00    0.81
  -7   6  -4    0.57    0.47
  -6  -5   4    2.31    0.61
  -5  -5   4   32.40    1.68
  -4  -5   4   48.31    2.10
  -3  -5   4    6.29    0.47
  -3  -5   4    6.13    0.56
   2   5  -4   19.20    1.05
  -2  -5   4   17.18    0.84
  -2  -5   4   17.79    0.90
   1   5  -4  101.02    3.55
   1   5  -4  100.74    3.59
  -1  -5   4   96.62    3.54
  -1  -5   4   97.80    3.55
   0   5  -4   67.00    2.50
   0   5  -4   67.06    2.48
   0  -5   4   69.17    2.50
  -1   5  -4   45.65    1.78
  -1   5  -4   43.84    1.77
   1  -5   4   44.57    1.71
  -2   5  -4   16.81    0.91
  -2   5  -4   16.15    0.80
   2  -5   4   17.55    0.79
  -3   5  -4  106.72    3.86
  -3   5  -4  105.96    4.06
   3  -5   4  105.97    3.76
  -4   5  -4   43.56    1.85
  -4   5  -4   44.42    2.11
  -5   5  -4   12.18    0.90
  -5   5  -4   12.80    1.18
  -6   5  -4    4.00    0.66
  -6   5  -4    3.79    0.97
  -7   5  -4    8.12    0.94
  -6  -4   4   18.47    1.28
  -5  -4   4   42.21    1.98
  -4  -4   4   21.23    1.15
  -3  -4   4   41.75    1.64
  -3  -4   4   40.15    1.72
   2   4  -4  114.10    4.31
  -2  -4   4  119.05    4.20
  -2  -4   4  116.42    4.13
   1   4  -4  163.63    5.67
   1   4  -4  165.14    5.65
  -1  -4   4  160.00    5.66
  -1  -4   4  162.04    5.65
   0   4  -4    8.20    0.43
   0   4  -4    8.20    0.47
   0  -4   4    8.49    0.48
  -1   4  -4    0.63    0.24
  -1   4  -4    0.60    0.18
   1  -4   4    0.78    0.18
  -2   4  -4  157.21    5.51
  -2   4  -4  158.73    5.62
   2  -4   4  154.63    5.42
  -3   4  -4   91.59    3.52
  -3   4  -4   90.36    3.34
   3  -4   4   88.80    3.18
  -4   4  -4   34.02    1.54
  -4   4  -4   34.70    1.78
  -5   4  -4    5.67    0.96
  -5   4  -4    7.31    0.77
  -6   4  -4   26.62    1.52
  -7   4  -4   14.76    1.20
  -6  -3   4   25.45    1.50
  -5  -3   4    9.79    0.84
  -4  -3   4    7.28    0.56
  -4  -3   4    6.67    0.66
  -3  -3   4   95.96    3.45
  -3  -3   4   93.52    3.51
  -2  -3   4  259.73    9.03
  -2  -3   4  266.39    9.09
   1   3  -4  177.60    6.21
   1   3  -4  183.85    6.14
  -1  -3   4  177.50    6.19
  -1  -3   4  178.06    6.21
   0   3  -4   21.65    0.84
   0   3  -4   21.75    0.94
   0  -3   4   21.11    0.89
  -1   3  -4   70.61    2.63
  -1   3  -4   70.21    2.58
   1  -3   4   71.04    2.51
  -2   3  -4  120.78    4.43
  -2   3  -4  122.29    4.36
   2  -3   4  123.05    4.23
  -3   3  -4   47.96    2.09
  -3   3  -4   47.54    1.93
   3  -3   4   47.99    1.73
  -4   3  -4    6.62    0.61
  -4   3  -4    8.14    0.91
  -5   3  -4   34.60    1.68
  -6   3  -4   20.30    1.32
  -7   3  -4    5.21    0.83
  -7  -2   4   21.94    2.36
  -6  -2   4    7.99    0.92
  -5  -2   4    0.63    0.36
  -4  -2   4   61.99    2.45
  -4  -2   4   60.26    2.39
  -3  -2   4   62.56    2.42
  -3  -2   4   62.85    2.38
  -2  -2   4   82.95    2.99
  -2  -2   4   80.37    2.95
   1   2  -4  100.77    3.50
   1   2  -4   98.98    3.37
  -1  -2   4   97.79    3.48
  -1  -2   4   97.03    3.49
   0   2  -4  105.99    3.79
   0   2  -4  103.99    3.62
   0  -2   4  107.44    3.69
  -1   2  -4   98.00    3.53
   1  -2   4  100.12    3.45
  -2   2  -4   22.39    1.08
  -2   2  -4   21.90    1.00
   2  -2   4   21.29    0.84
  -3   2  -4    1.38    0.45
  -3   2  -4    1.02    0.31
  -4   2  -4   44.88    1.94
  -5   2  -4   37.12    1.80
  -6   2  -4    3.59    0.72
  -7  -1   4   14.78    1.19
  -6  -1   4    1.42    0.52
  -5  -1   4   35.62    1.67
  -4  -1   4   50.51    2.07
  -4  -1   4   53.54    2.13
  -3  -1   4   46.60    1.80
  -3  -1   4   42.46    1.78
  -2  -1   4    6.12    0.40
  -2  -1   4    6.61    0.45
  -2  -1   4    6.01    0.43
   1   1  -4  296.65   10.12
   0   1  -4  170.25    6.06
   0  -1   4  176.47    5.98
  -1   1  -4   53.94    2.06
   1  -1   4   54.38    1.95
  -2   1  -4   26.16    1.17
   2  -1   4   26.59    0.99
  -3   1  -4   74.22    2.85
  -4   1  -4  120.93    4.52
  -5   1  -4   28.47    1.53
  -6   1  -4    0.16    0.47
  -7   0   4    0.46    0.48
  -6   0   4   10.21    0.86
  -5   0   4   52.54    2.22
  -4   0   4   36.30    1.58
  -4   0   4   36.20    1.71
  -4   0   4   36.98    1.54
  -3   0   4    6.31    0.48
  -3   0   4    6.26    0.47
  -3   0   4    5.77    0.50
   2   0  -4  263.76    8.84
  -2   0   4  256.27    8.80
  -2   0   4  245.36    8.86
  -2   0   4  262.34    8.83
   1   0  -4  156.37    5.56
  -1   0   4  163.08    5.61
  -1   0   4  162.84    5.50
   0   0  -4  122.83    4.35
   0   0   4  120.80    4.27
   0   0   4  122.52    4.34
  -1   0  -4   16.68    0.79
   1   0   4   14.77    0.66
  -2   0  -4   45.60    1.81
   2   0   4   44.35    1.60
  -3   0  -4   77.87    2.99
  -4   0  -4   54.84    2.32
  -5   0  -4   -0.25    0.36
  -6   0  -4    4.70    0.81
  -7   1   4   18.26    1.27
  -6   1   4   31.10    1.58
  -5   1   4   12.30    0.85
  -5   1   4   13.86    1.08
  -4   1   4    2.37    0.40
  -4   1   4    2.29    0.35
  -4   1   4    3.42    0.54
  -3   1   4   59.78    2.30
  -3   1   4   58.08    2.34
  -3   1   4   62.26    2.29
   2  -1  -4  254.19    8.57
  -2   1   4  254.66    8.57
  -2   1   4  244.37    8.58
  -2   1   4  244.20    8.61
   1  -1  -4   71.88    2.56
  -1   1   4   69.62    2.56
   0  -1  -4    1.10    0.26
   0   1   4    1.23    0.20
   0   1   4    1.05    0.30
  -1  -1  -4  120.27    4.22
   1   1   4  116.59    4.11
  -2  -1  -4   75.23    2.84
  -3  -1  -4   59.20    2.38
  -4  -1  -4    4.09    0.61
  -5  -1  -4   17.62    1.18
  -6  -1  -4   18.12    1.30
  -7   2   4   21.40    1.34
  -6   2   4   23.56    1.28
  -6   2   4   20.86    1.56
  -5   2   4    0.60    0.46
  -5   2   4    0.20    0.25
  -5   2   4    0.39    0.30
  -4   2   4   22.02    1.21
  -4   2   4   20.56    1.05
  -4   2   4   22.56    1.06
  -3   2   4  176.95    6.22
  -3   2   4  172.57    6.30
  -3   2   4  180.73    6.19
   2  -2  -4  159.06    5.53
  -2   2   4  157.32    5.63
  -2   2   4  160.58    5.53
  -2   2   4  160.15    5.60
   1  -2  -4   31.89    1.25
  -1   2   4   29.36    1.30
  -1   2   4   29.55    1.24
   0  -2  -4  167.83    5.72
   0   2   4  151.22    5.86
   0   2   4  171.03    5.69
  -1  -2  -4  164.24    5.72
   1   2   4  161.22    5.61
  -2  -2  -4   34.92    1.49
  -2  -2  -4   33.58    1.27
  -3  -2  -4   15.79    0.93
  -4  -2  -4   14.80    1.00
  -5  -2  -4   13.96    1.10
  -6  -2  -4   18.02    1.33
  -7   3   4   17.19    1.95
  -7   3   4   16.56    1.16
  -6   3   4    0.33    0.59
  -6   3   4    0.59    0.37
  -5   3   4   19.77    1.03
  -5   3   4   18.55    1.04
  -5   3   4   21.30    1.32
  -4   3   4   50.65    2.05
  -4   3   4   53.29    2.27
  -4   3   4   51.20    2.08
   3  -3  -4   75.63    2.83
  -3   3   4   79.39    2.84
  -3   3   4   75.64    3.01
  -3   3   4   78.92    2.91
   2  -3  -4   12.16    0.60
  -2   3   4   12.28    0.75
  -2   3   4   12.17    0.68
   1  -3  -4   34.55    1.36
  -1   3   4   32.04    1.51
  -1   3   4   33.44    1.37
   0  -3  -4  147.87    5.09
   0   3   4  151.50    5.09
   0   3   4  135.46    5.32
  -1  -3  -4   69.04    2.54
  -1  -3  -4   67.28    2.61
   1   3   4   74.90    3.01
  -2  -3  -4    4.99    0.54
  -2  -3  -4    4.32    0.36
  -3  -3  -4   22.98    1.22
  -4  -3  -4   56.93    2.47
  -5  -3  -4   10.16    1.04
  -7   4   4    3.14    0.99
  -6   4   4   11.06    1.01
  -6   4   4   13.21    1.19
  -5   4   4   30.31    1.69
  -5   4   4   30.03    1.39
   4  -4  -4   26.78    1.20
  -4   4   4   26.25    1.19
  -4   4   4   26.77    1.45
  -4   4   4   27.13    1.26
   3  -4  -4    3.82    0.35
  -3   4   4    4.34    0.41
  -3   4   4    3.67    0.42
  -3   4   4    3.98    0.57
   2  -4  -4    5.51    0.42
  -2   4   4    6.16    0.59
  -2   4   4    6.55    0.50
   1  -4  -4  118.47    4.10
  -1   4   4  113.33    4.40
   0  -4  -4   74.95    2.68
   0  -4  -4   75.66    2.71
   0   4   4   67.95    2.98
  -1  -4  -4    4.49    0.40
  -1  -4  -4    4.55    0.48
   1   4   4    5.23    0.83
  -2  -4  -4   20.98    1.08
   2   4   4   21.87    1.55
  -3  -4  -4  112.38    4.24
  -4  -4  -4   24.70    1.40
  -5  -4  -4    2.73    0.63
  -7   5   4    4.79    1.05
  -6   5   4   23.82    1.66
   5  -5  -4   32.52    1.52
  -5   5   4   31.17    1.78
   4  -5  -4    6.10    0.63
  -4   5   4    7.43    0.86
   3  -5  -4   40.82    1.79
   3  -5  -4   39.84    1.74
  -3   5   4   42.87    1.97
   2  -5  -4  124.98    4.59
   2  -5  -4  123.62    4.46
  -2   5   4  132.18    4.85
   1  -5  -4   54.94    1.99
   1  -5  -4   54.19    2.11
  -1   5   4   50.63    2.38
   0  -5  -4   27.16    1.12
   0  -5  -4   26.04    1.17
   0   5   4   24.09    1.47
  -1  -5  -4    0.18    0.22
  -1  -5  -4    0.12    0.18
   1   5   4   -0.15    0.46
  -2  -5  -4   25.01    1.26
   2   5   4   28.78    1.81
  -3  -5  -4   56.33    2.38
   3   5   4   56.37    3.00
  -4  -5  -4    4.03    0.66
   4   5   4    4.38    1.15
  -5  -5  -4    1.05    0.47
   5   5   4    0.08    1.12
  -7   6   4   19.09    1.68
  -6   6   4   18.14    1.49
   5  -6  -4    8.65    0.75
  -5   6   4    8.23    1.03
   4  -6  -4   20.95    1.16
  -4   6   4   20.97    1.37
   3  -6  -4   66.56    2.68
  -3   6   4   69.09    2.95
   2  -6  -4   70.39    2.82
  -2   6   4   75.58    3.14
   1  -6  -4    6.46    0.55
  -1   6   4    6.34    0.85
   0  -6  -4    7.38    0.57
   0   6   4    7.16    0.96
  -1  -6  -4   55.05    2.24
  -1  -6  -4   59.65    2.26
   1   6   4   58.69    2.78
  -2  -6  -4   75.61    3.00
   2   6   4   80.19    3.64
  -3  -6  -4    9.40    0.82
   3   6   4    9.62    1.40
  -4  -6  -4    3.23    0.64
   4   6   4    2.85    1.19
  -5  -6  -4    5.41    0.86
  -7   7   4    8.02    1.27
   6  -7  -4    4.91    0.70
  -6   7   4    5.35    1.00
   5  -7  -4    0.73    0.40
  -5   7   4    0.53    0.52
   4  -7  -4   29.84    1.51
  -4   7   4   30.72    1.80
   3  -7  -4   68.57    2.83
  -3   7   4   72.93    3.16
   2  -7  -4   17.86    1.04
  -2   7   4   19.90    1.36
   1  -7  -4   11.61    0.79
  -1   7   4   10.98    1.24
   0  -7  -4   45.05    1.81
   0   7   4   38.47    2.17
  -1  -7  -4   16.19    0.93
   1   7   4   18.35    1.46
   2   7   4   18.23    1.60
   3   7   4    0.95    0.88
   4   7   4   25.81    2.33
   6  -8  -4   -0.05    0.44
  -6   8   4    0.51    0.61
   5  -8  -4   25.81    1.44
  -5   8   4   25.14    1.72
   4  -8  -4   18.88    1.17
  -4   8   4   19.72    1.49
   3  -8  -4   20.00    1.19
  -3   8   4   21.82    1.55
   2  -8  -4   -0.01    0.29
  -2   8   4    1.26    0.55
   1  -8  -4   24.60    1.20
  -1   8   4   19.04    1.52
   0  -8  -4   33.42    1.54
   0   8   4   31.35    1.94
  -1  -8  -4   14.59    0.92
   1   8   4   13.91    1.39
   2   8   4    1.47    0.83
   3   8   4   15.06    1.81
   6  -9  -4    7.36    0.87
  -6   9   4    6.65    1.19
   5  -9  -4   11.39    1.01
  -5   9   4   12.92    1.33
   4  -9  -4    4.61    0.68
  -4   9   4    5.34    0.97
   3  -9  -4    0.83    0.43
  -3   9   4    1.14    0.63
   2  -9  -4   32.94    1.58
  -2   9   4   28.52    1.94
   1  -9  -4   39.24    1.73
  -1   9   4   31.15    2.09
   0  -9  -4    7.92    0.80
   0   9   4    9.28    1.30
   1   9   4   -0.27    0.64
   2   9   4   15.54    1.60
   6 -10  -4   12.09    1.30
   5 -10  -4    3.27    0.69
  -5  10   4    3.78    0.93
   4 -10  -4    0.83    0.49
  -4  10   4    1.03    0.72
   3 -10  -4   18.72    1.26
  -3  10   4   20.06    1.66
   2 -10  -4   26.82    1.47
  -2  10   4   24.84    1.88
   1 -10  -4    6.46    0.77
  -1  10   4    6.78    1.16
   0 -10  -4   -0.24    0.35
   0  10   4    1.23    0.77
   1  10   4    6.79    1.18
  -5  11   4    0.82    0.87
   4 -11  -4    8.91    1.00
  -4  11   4    7.59    1.33
   3 -11  -4   24.69    1.48
  -3  11   4   18.92    1.77
   2 -11  -4   14.12    1.13
  -2  11   4   10.89    1.54
   1 -11  -4    0.73    0.47
  -1  11   4    2.00    0.86
   0 -11  -4    6.78    0.87
   0  11   4    9.22    1.42
  -3  12   4    6.58    1.41
   2 -12  -4    0.07    0.52
  -2  12   4    0.54    0.80
   1 -12  -4    2.34    0.65
   0 -12  -4    8.32    1.44
  -1  15  -5    7.94    1.17
  -2  15  -5    9.37    1.26
  -1 -14   5    2.86    0.64
   0  14  -5   26.80    1.79
   0 -14   5   26.22    1.61
  -1  14  -5   15.85    1.33
   1 -14   5   14.11    1.23
  -2  14  -5    1.79    0.67
   2 -14   5    1.52    0.64
  -3  14  -5    3.16    0.80
   3 -14   5    2.49    0.69
  -4  14  -5    8.88    1.23
   4 -14   5    9.77    1.06
  -2 -13   5    0.99    0.49
   1  13  -5   20.32    1.49
  -1 -13   5   19.59    1.29
   0  13  -5   29.48    1.79
   0 -13   5   28.17    1.62
  -1  13  -5    7.50    0.99
   1 -13   5    6.59    0.84
  -2  13  -5    0.78    0.50
   2 -13   5    2.04    0.60
  -3  13  -5   20.67    1.52
   3 -13   5   19.25    1.35
  -4  13  -5   14.07    1.31
   4 -13   5   12.22    1.14
  -5  13  -5    2.99    1.13
   5 -13   5    2.87    0.74
  -2 -12   5   17.05    1.14
   1  12  -5   38.12    2.05
  -1 -12   5   39.82    1.88
   0  12  -5    9.31    0.93
   0 -12   5   10.65    0.96
  -1  12  -5    0.84    0.43
   1 -12   5   -0.40    0.39
  -2  12  -5   22.56    1.47
   2 -12   5   22.93    1.38
  -3  12  -5   22.34    1.56
   3 -12   5   27.28    1.50
  -4  12  -5    3.99    0.84
   4 -12   5    4.89    0.74
  -5  12  -5    1.27    0.72
   2  11  -5   26.11    1.61
  -2 -11   5   26.04    1.39
   1  11  -5    7.08    0.88
  -1 -11   5    6.45    0.72
   0  11  -5    0.58    0.37
   0 -11   5    0.72    0.40
  -1  11  -5   17.32    1.16
   1 -11   5   18.37    1.14
  -2  11  -5   71.04    3.17
   2 -11   5   77.47    3.03
  -3  11  -5   10.93    1.04
   3 -11   5   10.01    0.93
  -4  11  -5   -0.12    0.44
   4 -11   5    0.30    0.43
  -5  11  -5   14.13    1.33
  -6  11  -5   11.74    2.23
   2  10  -5   14.88    1.12
  -2 -10   5   14.27    0.94
   1  10  -5    6.81    0.83
  -1 -10   5    6.77    0.70
   0  10  -5   26.26    1.43
   0 -10   5   26.85    1.36
  -1  10  -5   34.77    1.74
   1 -10   5   36.33    1.66
  -2  10  -5   11.93    0.96
   2 -10   5   13.63    0.95
  -3  10  -5    0.53    0.38
   3 -10   5    1.57    0.45
  -4  10  -5   14.43    1.19
   4 -10   5   11.62    0.95
  -5  10  -5   29.76    1.88
  -6  10  -5    5.28    1.04
  -5  -9   5    7.78    0.92
  -4  -9   5   53.88    2.41
  -3  -9   5   23.07    1.27
  -3  -9   5   23.05    1.21
   2   9  -5    0.78    0.25
   2   9  -5    0.92    0.42
  -2  -9   5    1.19    0.35
  -2  -9   5    0.82    0.33
   1   9  -5   49.30    2.00
   1   9  -5   50.21    2.18
  -1  -9   5   47.63    1.95
  -1  -9   5   46.28    2.02
   0   9  -5   84.17    3.37
   0  -9   5   87.40    3.29
  -1   9  -5   49.63    2.17
   1  -9   5   50.33    2.09
  -2   9  -5    4.90    0.67
   2  -9   5    5.36    0.61
  -3   9  -5   20.19    1.27
   3  -9   5   19.57    1.10
  -4   9  -5   50.79    2.47
   4  -9   5   50.74    2.12
  -5   9  -5   14.01    1.25
  -6   9  -5    0.25    0.61
  -5  -8   5   20.11    1.32
  -4  -8   5    9.70    0.91
   3   8  -5    0.65    0.46
  -3  -8   5    0.08    0.25
  -3  -8   5    0.09    0.29
   2   8  -5   31.95    1.57
   2   8  -5   30.13    1.39
  -2  -8   5   30.61    1.42
  -2  -8   5   31.95    1.42
   1   8  -5  157.28    5.63
   1   8  -5  160.95    5.80
  -1  -8   5  159.39    5.64
  -1  -8   5  157.89    5.69
   0   8  -5   73.31    2.74
   0   8  -5   71.51    2.85
   0  -8   5   72.99    2.79
  -1   8  -5    0.25    0.24
  -1   8  -5   -0.23    0.26
   1  -8   5    0.35    0.27
  -2   8  -5   22.41    1.05
  -2   8  -5   23.02    1.23
   2  -8   5   22.16    1.12
  -3   8  -5   56.12    2.46
   3  -8   5   54.08    2.19
  -4   8  -5   45.02    2.22
   4  -8   5   45.40    1.88
  -5   8  -5    1.83    0.69
  -6   8  -5    2.66    0.84
  -5  -7   5   24.10    1.43
  -4  -7   5    0.02    0.35
   3   7  -5   28.05    1.55
  -3  -7   5   26.48    1.26
  -3  -7   5   27.37    1.35
   2   7  -5   57.75    2.34
   2   7  -5   60.30    2.48
  -2  -7   5   62.33    2.38
  -2  -7   5   58.66    2.33
   1   7  -5   59.70    2.28
   1   7  -5   59.87    2.37
  -1  -7   5   59.80    2.32
  -1  -7   5   58.72    2.29
   0   7  -5   10.48    0.65
   0   7  -5   10.17    0.61
   0  -7   5   11.13    0.68
  -1   7  -5   23.59    1.23
  -1   7  -5   27.39    1.26
   1  -7   5   28.25    1.21
  -2   7  -5   62.09    2.30
  -2   7  -5   55.29    2.42
   2  -7   5   60.77    2.31
  -3   7  -5   37.34    1.60
  -3   7  -5   39.73    1.86
   3  -7   5   38.15    1.60
  -4   7  -5    0.56    0.28
  -4   7  -5    0.06    0.40
   4  -7   5    0.82    0.32
  -5   7  -5    4.13    0.60
  -5   7  -5    7.06    1.04
  -6   7  -5   17.08    1.53
  -6   7  -5   15.38    1.28
  -6  -6   5   16.53    1.37
  -5  -6   5    0.26    0.40
  -4  -6   5   17.62    1.08
   3   6  -5   65.51    2.77
  -3  -6   5   63.19    2.47
  -3  -6   5   62.90    2.56
   2   6  -5   87.58    3.29
   2   6  -5   82.42    3.19
  -2  -6   5   86.80    3.22
  -2  -6   5   85.51    3.17
   1   6  -5    3.57    0.34
   1   6  -5    3.58    0.37
  -1  -6   5    4.77    0.45
  -1  -6   5    3.95    0.41
   0   6  -5   60.00    2.32
   0   6  -5   64.24    2.34
   0  -6   5   59.49    2.31
  -1   6  -5  127.03    4.46
  -1   6  -5  111.49    4.45
   1  -6   5  129.53    4.39
  -2   6  -5   79.57    2.96
  -2   6  -5   78.73    3.07
   2  -6   5   78.78    2.91
  -3   6  -5    0.31    0.32
  -3   6  -5    0.56    0.27
  -4   6  -5   17.33    1.20
  -4   6  -5   17.57    1.00
  -5   6  -5   33.34    1.95
  -5   6  -5   30.92    1.57
  -6   6  -5   20.08    1.69
  -6   6  -5   23.39    1.35
  -7   6  -5    2.63    0.67
  -6  -5   5    1.08    0.54
  -5  -5   5    9.96    0.98
  -4  -5   5   93.91    3.64
   3   5  -5   34.86    1.79
  -3  -5   5   36.67    1.60
  -3  -5   5   36.09    1.51
   2   5  -5    1.76    0.36
   2   5  -5    1.60    0.29
  -2  -5   5    1.58    0.28
  -2  -5   5    2.31    0.37
   1   5  -5   35.50    1.42
   1   5  -5   35.81    1.46
  -1  -5   5   37.37    1.47
  -1  -5   5   35.68    1.46
   0   5  -5  205.85    7.29
   0   5  -5  214.84    7.37
   0  -5   5  213.82    7.33
  -1   5  -5  115.18    4.43
  -1   5  -5  126.49    4.39
   1  -5   5  124.32    4.32
  -2   5  -5    8.06    0.61
  -2   5  -5    9.26    0.61
   2  -5   5    7.94    0.51
  -3   5  -5   21.32    1.24
  -3   5  -5   24.19    1.14
   3  -5   5   22.57    0.99
  -4   5  -5   45.84    1.95
  -4   5  -5   43.85    2.15
  -5   5  -5   52.91    2.58
  -5   5  -5   48.96    2.22
  -6   5  -5    1.78    0.87
  -6   5  -5    3.01    0.60
  -7   5  -5    2.18    0.64
  -6  -4   5    6.13    0.81
  -5  -4   5   42.03    1.97
  -4  -4   5   70.47    2.89
  -4  -4   5   74.62    2.82
  -3  -4   5    6.63    0.56
  -3  -4   5    6.51    0.51
   2   4  -5    7.87    0.52
   2   4  -5    8.00    0.57
  -2  -4   5    7.74    0.54
  -2  -4   5    7.38    0.49
   1   4  -5  250.28    8.58
   1   4  -5  246.61    8.47
  -1  -4   5  243.69    8.57
  -1  -4   5  254.00    8.56
   0   4  -5  224.03    7.65
   0   4  -5  221.92    7.78
   0  -4   5  225.17    7.71
  -1   4  -5   38.10    1.67
  -1   4  -5   40.47    1.60
   1  -4   5   41.89    1.56
  -2   4  -5   44.04    1.83
  -2   4  -5   44.18    1.79
   2  -4   5   43.07    1.65
  -3   4  -5   64.08    2.66
  -3   4  -5   65.93    2.53
   3  -4   5   62.98    2.32
  -4   4  -5   52.28    2.25
  -4   4  -5   55.69    2.50
  -5   4  -5    7.64    1.17
  -5   4  -5    8.15    0.85
  -6   4  -5    2.11    0.56
  -7   4  -5   16.03    1.36
  -6  -3   5   25.87    1.49
  -5  -3   5   60.24    2.56
  -4  -3   5    0.73    0.32
  -4  -3   5    1.53    0.34
  -3  -3   5   23.56    1.12
  -3  -3   5   22.00    1.05
   2   3  -5   77.13    2.92
  -2  -3   5   78.54    2.89
  -2  -3   5   80.18    2.93
   1   3  -5  440.21   14.87
  -1  -3   5  433.05   14.84
   0   3  -5   19.71    0.96
   0   3  -5   20.14    0.78
   0  -3   5   20.20    0.87
  -1   3  -5   11.29    0.70
  -1   3  -5   10.99    0.59
   1  -3   5   11.68    0.56
  -2   3  -5  129.93    4.87
  -2   3  -5  136.11    4.83
   2  -3   5  137.06    4.66
  -3   3  -5   61.00    2.54
  -3   3  -5   61.00    2.40
   3  -3   5   57.97    2.14
  -4   3  -5   41.64    1.84
  -4   3  -5   40.59    2.07
  -5   3  -5    1.92    0.52
  -6   3  -5   12.92    1.09
  -6  -2   5   42.58    2.04
  -5  -2   5   20.78    1.20
  -4  -2   5   37.10    1.64
  -4  -2   5   35.98    1.61
  -3  -2   5   52.55    2.10
  -3  -2   5   53.01    2.11
   2   2  -5  176.11    6.24
  -2  -2   5  184.19    6.25
  -2  -2   5  173.84    6.23
   1   2  -5   26.04    1.12
  -1  -2   5   27.89    1.13
   0   2  -5    0.24    0.22
   0  -2   5    0.33    0.16
  -1   2  -5  130.64    4.56
   1  -2   5  122.33    4.39
  -2   2  -5  170.90    5.95
   2  -2   5  164.10    5.75
  -3   2  -5    5.78    0.61
  -4   2  -5   10.28    0.83
  -5   2  -5   23.29    1.35
  -6   2  -5   18.95    1.32
  -7  -1   5   19.91    1.38
  -6  -1   5   25.48    1.44
  -5  -1   5    3.39    0.54
  -4  -1   5   81.17    3.06
  -4  -1   5   77.17    3.03
  -3  -1   5   69.67    2.70
  -3  -1   5   72.62    2.68
  -3  -1   5   68.44    2.66
   2   1  -5  141.97    5.00
  -2  -1   5  136.08    4.89
  -2  -1   5  144.35    5.00
  -2  -1   5  143.49    5.03
   1   1  -5   52.10    2.01
  -1  -1   5   54.50    2.03
   0   1  -5   32.22    1.39
   0  -1   5   31.99    1.28
  -1   1  -5  307.02   10.34
   1  -1   5  290.57   10.18
  -2   1  -5   15.53    0.85
   2  -1   5   15.13    0.66
  -3   1  -5    2.54    0.45
  -4   1  -5   49.06    2.14
  -5   1  -5   42.73    2.05
  -6   1  -5    9.36    1.07
  -7   0   5    1.59    0.56
  -6   0   5    0.50    0.41
  -5   0   5   53.67    2.26
  -4   0   5   74.26    2.92
  -4   0   5   75.61    2.93
  -4   0   5   78.54    3.03
   3   0  -5   34.25    1.42
  -3   0   5   33.67    1.46
  -3   0   5   34.09    1.43
  -3   0   5   31.92    1.41
   2   0  -5   47.24    1.85
  -2   0   5   48.56    1.86
  -2   0   5   48.32    1.90
  -2   0   5   46.77    1.78
   1   0  -5  160.12    5.69
  -1   0   5  168.15    5.72
  -1   0   5  160.23    5.59
   0   0  -5  130.87    4.61
   0   0   5  128.38    4.59
   0   0   5  124.64    4.51
  -1   0  -5  195.04    6.89
   1   0   5  197.58    6.77
  -2   0  -5    0.22    0.25
   2   0   5    0.11    0.11
  -3   0  -5   29.39    1.42
  -4   0  -5   89.28    3.52
  -5   0  -5   28.67    1.58
  -6   0  -5    0.52    0.51
  -7   1   5    0.35    0.48
  -6   1   5   16.44    1.09
  -5   1   5   78.92    3.29
  -5   1   5   75.57    3.07
  -5   1   5   81.38    3.05
  -4   1   5   17.38    0.95
  -4   1   5   18.50    0.96
  -4   1   5   17.89    1.06
   3  -1  -5    2.45    0.32
  -3   1   5    2.77    0.40
  -3   1   5    2.10    0.35
  -3   1   5    2.58    0.36
   2  -1  -5  205.82    6.92
  -2   1   5  195.43    6.97
  -2   1   5  195.50    6.91
   1  -1  -5  191.45    6.53
  -1   1   5  188.23    6.52
  -1   1   5  180.32    6.49
   0  -1  -5  122.32    4.61
   0   1   5  130.29    4.57
   0   1   5  135.03    4.72
  -1  -1  -5   26.70    1.23
   1   1   5   27.74    1.11
  -2  -1  -5   27.78    1.29
   2   1   5   27.78    1.08
  -3  -1  -5   37.96    1.72
  -4  -1  -5   46.08    2.09
  -5  -1  -5    0.06    0.40
  -6  -1  -5    8.95    1.14
  -7   2   5   10.58    1.06
  -6   2   5   33.31    1.64
  -5   2   5   22.78    1.38
  -5   2   5   21.77    1.17
  -5   2   5   23.44    1.18
   4  -2  -5   -0.02    0.18
  -4   2   5    0.20    0.33
  -4   2   5    0.33    0.26
  -4   2   5    0.23    0.24
   3  -2  -5   31.95    1.39
  -3   2   5   34.09    1.41
  -3   2   5   33.78    1.46
  -3   2   5   33.46    1.49
   2  -2  -5  225.19    7.81
  -2   2   5  225.52    7.89
  -2   2   5  227.43    7.90
   1  -2  -5   69.43    2.54
  -1   2   5   63.68    2.58
  -1   2   5   67.25    2.51
   0  -2  -5    4.45    0.48
   0   2   5    4.37    0.39
   0   2   5    5.30    0.62
  -1  -2  -5   79.76    3.05
   1   2   5   83.04    3.36
   1   2   5   81.92    2.95
  -2  -2  -5   41.13    1.77
  -3  -2  -5   37.08    1.71
  -4  -2  -5    4.35    0.66
  -5  -2  -5   15.78    1.19
  -7   3   5   25.34    1.46
  -6   3   5   24.82    1.34
  -6   3   5   25.38    2.18
  -5   3   5    2.40    0.43
  -5   3   5    2.52    0.63
  -5   3   5    2.54    0.46
   4  -3  -5   12.37    0.75
  -4   3   5   12.86    0.78
  -4   3   5   13.76    0.83
  -4   3   5   13.31    0.94
   3  -3  -5   92.64    3.31
  -3   3   5   90.08    3.40
  -3   3   5   90.23    3.31
  -3   3   5   88.52    3.47
   2  -3  -5  135.25    4.84
  -2   3   5  138.66    4.94
  -2   3   5  138.03    5.01
   1  -3  -5    8.39    0.59
  -1   3   5    6.04    0.63
  -1   3   5    7.59    0.53
   0  -3  -5   65.80    2.51
   0   3   5   68.01    2.51
   0   3   5   65.73    2.75
  -1  -3  -5  118.14    4.29
  -1  -3  -5  116.17    4.39
   1   3   5  131.53    4.80
  -2  -3  -5   26.18    1.28
  -3  -3  -5    5.36    0.67
  -4  -3  -5   17.56    1.15
  -5  -3  -5   18.60    1.32
  -6   4   5    0.94    0.63
   5  -4  -5   16.76    0.93
  -5   4   5   14.75    1.02
  -5   4   5   17.36    1.23
  -5   4   5   16.05    0.98
   4  -4  -5   35.85    1.50
  -4   4   5   34.98    1.59
  -4   4   5   33.55    1.49
  -4   4   5   33.91    1.72
   3  -4  -5   54.89    2.06
  -3   4   5   52.39    2.30
  -3   4   5   52.72    2.18
   2  -4  -5    0.98    0.29
  -2   4   5    0.58    0.33
  -2   4   5    0.92    0.28
   1  -4  -5    7.47    0.57
  -1   4   5    8.69    0.59
  -1   4   5    7.62    0.85
   0  -4  -5  103.21    3.76
   0  -4  -5  102.61    3.76
   0   4   5  105.35    4.11
  -1  -4  -5   77.29    2.93
  -1  -4  -5   78.52    3.01
   1   4   5   83.62    3.43
  -2  -4  -5    0.49    0.32
   2   4   5    0.19    0.59
  -3  -4  -5    4.71    0.67
   3   4   5    4.14    1.03
  -4  -4  -5   35.61    1.81
  -5  -4  -5   13.72    1.17
   6  -5  -5   18.49    1.30
  -6   5   5   16.70    1.41
   5  -5  -5   30.12    1.45
  -5   5   5   26.71    1.66
  -4   5   5   21.85    1.35
  -3   5   5    1.30    0.45
   2  -5  -5   47.40    2.00
  -2   5   5   49.62    2.25
   1  -5  -5   59.61    2.14
   1  -5  -5   53.30    2.02
  -1   5   5   43.62    2.34
   0  -5  -5   68.85    2.67
   0  -5  -5   72.07    2.72
   0   5   5   73.32    3.12
  -1  -5  -5    3.87    0.44
  -1  -5  -5    3.62    0.47
   1   5   5    4.01    0.81
  -2  -5  -5    6.64    0.69
   2   5   5    9.02    1.21
  -3  -5  -5   38.06    1.83
   3   5   5   40.60    2.45
  -4  -5  -5   22.50    1.39
   4   5   5   23.21    2.07
  -5  -5  -5    2.13    0.63
   6  -6  -5   30.11    1.57
  -6   6   5   27.89    1.87
   5  -6  -5   37.41    1.79
  -5   6   5   37.32    2.07
   4  -6  -5    3.42    0.54
  -4   6   5    3.98    0.72
   3  -6  -5   25.63    1.31
  -3   6   5   26.64    1.55
   2  -6  -5   65.55    2.56
  -2   6   5   60.74    2.84
   1  -6  -5   64.60    2.38
  -1   6   5   51.04    2.66
   0  -6  -5   18.61    0.99
   0   6   5   18.43    1.35
  -1  -6  -5   28.76    1.35
   1   6   5   33.35    1.92
  -2  -6  -5   14.87    0.97
   2   6   5   12.96    1.41
  -3  -6  -5   28.32    1.49
   3   6   5   28.75    2.17
  -4  -6  -5    1.53    0.54
   4   6   5    2.31    1.08
   6  -7  -5   14.66    1.11
  -6   7   5   13.91    1.41
   5  -7  -5    3.23    0.59
  -5   7   5    2.71    0.72
   4  -7  -5    1.83    0.48
  -4   7   5    2.97    0.72
   3  -7  -5   28.97    1.52
  -3   7   5   33.72    1.87
   2  -7  -5   45.71    1.96
  -2   7   5   41.65    2.27
   1  -7  -5   12.82    0.85
  -1   7   5   11.74    1.16
   0  -7  -5    7.15    0.69
   0   7   5    5.87    0.96
  -1  -7  -5   23.02    1.30
   1   7   5   24.95    1.72
   2   7   5   25.60    1.95
   3   7   5    6.29    1.32
   6  -8  -5    3.13    0.67
  -6   8   5    2.31    0.80
   5  -8  -5    6.59    0.81
  -5   8   5    5.68    0.98
   4  -8  -5   18.45    1.20
  -4   8   5   17.49    1.45
   3  -8  -5   23.65    1.35
  -3   8   5   25.30    1.73
   2  -8  -5    5.33    0.68
  -2   8   5    4.30    0.91
   1  -8  -5    1.61    0.43
  -1   8   5    1.01    0.63
   0  -8  -5   36.50    1.68
   0   8   5   35.37    2.11
   1   8   5   20.87    1.66
   2   8   5    9.12    1.33
   3   8   5    1.59    1.22
   6  -9  -5    1.12    0.62
  -6   9   5    1.54    0.79
   5  -9  -5   10.26    1.04
  -5   9   5    9.29    1.28
   4  -9  -5   18.21    1.24
  -4   9   5   18.23    1.59
   3  -9  -5    7.25    0.84
  -3   9   5    5.17    1.00
   2  -9  -5    6.35    0.75
  -2   9   5    2.67    0.86
   1  -9  -5   16.71    1.11
  -1   9   5   18.16    1.58
   0  -9  -5   19.05    1.20
   0   9   5   21.39    1.71
   1   9   5   11.21    1.47
   2   9   5    1.16    0.90
   5 -10  -5   11.63    1.12
  -5  10   5    8.42    1.32
   4 -10  -5    2.68    0.61
  -4  10   5    3.20    0.93
   3 -10  -5    4.63    0.75
  -3  10   5    4.65    1.07
   2 -10  -5   14.72    1.16
  -2  10   5   15.62    1.58
   1 -10  -5   19.84    1.28
  -1  10   5   19.98    1.70
   0 -10  -5    2.65    0.59
   0  10   5    4.64    1.05
   1  10   5    1.39    0.84
  -4  11   5    0.91    0.81
   3 -11  -5   13.64    1.25
  -3  11   5   11.23    1.58
   2 -11  -5   15.60    1.24
  -2  11   5   15.84    1.70
   1 -11  -5    5.68    0.86
  -1  11   5    8.76    1.39
   0 -11  -5   -0.02    0.70
  -1  15  -6    4.01    0.93
  -2  15  -6   10.34    1.31
  -3  15  -6    6.21    1.09
  -1 -14   6    1.77    0.59
   0 -14   6   12.19    1.15
  -1  14  -6   17.93    1.40
   1 -14   6   18.29    1.35
  -2  14  -6   12.38    1.20
   2 -14   6   12.31    1.20
  -3  14  -6    0.20    0.48
   3 -14   6    0.61    0.60
  -4  14  -6    1.74    0.69
   4 -14   6    1.21    0.65
  -2 -13   6    0.64    0.44
  -1 -13   6   10.01    0.99
   0  13  -6   30.20    1.82
   0 -13   6   30.07    1.68
  -1  13  -6   21.69    1.46
   1 -13   6   23.50    1.44
  -2  13  -6    9.42    1.01
   2 -13   6    8.40    0.96
  -3  13  -6    8.83    1.14
   3 -13   6    8.71    0.98
  -4  13  -6   17.19    1.47
   4 -13   6   17.26    1.31
  -5  13  -6    8.07    1.56
  -2 -12   6    0.75    0.40
  -1 -12   6   34.44    1.73
   0  12  -6   24.61    1.49
   0 -12   6   25.18    1.43
  -1  12  -6   16.20    1.19
   1 -12   6   17.83    1.19
  -2  12  -6    7.60    0.96
   2 -12   6    6.56    0.82
  -3  12  -6   19.01    1.40
   3 -12   6   20.19    1.28
  -4  12  -6   16.49    1.37
   4 -12   6   16.50    1.21
  -5  12  -6    3.55    0.90
  -2 -11   6   32.16    1.60
  -1 -11   6   26.27    1.41
   0  11  -6    3.52    0.61
   0 -11   6    3.21    0.58
  -1  11  -6    0.93    0.39
   1 -11   6    0.79    0.42
  -2  11  -6   31.06    1.69
   2 -11   6   32.22    1.62
  -3  11  -6   22.66    1.44
   3 -11   6   18.80    1.25
  -4  11  -6    7.75    1.06
   4 -11   6    7.22    0.79
  -5  11  -6    1.65    0.73
  -4 -10   6    6.36    0.94
  -3 -10   6   29.95    1.52
  -3 -10   6   29.61    2.06
  -2 -10   6   54.46    2.30
   1  10  -6    5.94    0.71
  -1 -10   6    8.74    0.78
   0  10  -6    0.82    0.35
   0 -10   6    1.54    0.41
  -1  10  -6   70.16    2.98
   1 -10   6   74.76    2.91
  -2  10  -6   45.83    2.12
   2 -10   6   45.09    2.01
  -3  10  -6    8.45    0.99
   3 -10   6    7.64    0.77
  -4  10  -6    0.50    0.51
   4 -10   6    0.62    0.40
  -5  10  -6   17.48    1.43
  -6  10  -6    9.42    1.32
  -5  -9   6   -0.76    0.38
  -4  -9   6   18.26    1.21
   3   9  -6   45.73    1.98
  -3  -9   6   42.80    1.94
  -3  -9   6   46.32    2.03
   2   9  -6   21.04    1.10
  -2  -9   6   21.49    1.15
  -2  -9   6   21.48    1.15
   1   9  -6   13.89    0.90
   1   9  -6   14.20    0.80
  -1  -9   6   13.94    0.90
   0   9  -6   38.48    1.79
   0   9  -6   41.50    1.76
   0  -9   6   42.35    1.80
  -1   9  -6   93.27    3.67
   1  -9   6   96.01    3.59
  -2   9  -6   20.34    1.18
   2  -9   6   18.34    1.07
  -3   9  -6    0.19    0.34
   3  -9   6    0.30    0.36
  -4   9  -6   25.28    1.56
   4  -9   6   23.29    1.24
  -5   9  -6   22.80    1.65
  -6   9  -6    6.54    1.16
  -5  -8   6   22.61    1.41
  -4  -8   6   32.43    1.66
   3   8  -6   29.82    1.45
  -3  -8   6   29.95    1.49
  -3  -8   6   31.53    1.44
   2   8  -6    4.94    0.53
  -2  -8   6    3.68    0.50
  -2  -8   6    4.42    0.54
   1   8  -6   24.65    1.16
   1   8  -6   25.18    1.22
  -1  -8   6   24.69    1.22
   0   8  -6   93.41    3.44
   0   8  -6   88.46    3.44
   0  -8   6   92.36    3.43
  -1   8  -6   50.32    2.37
  -1   8  -6   62.62    2.41
   1  -8   6   62.02    2.34
  -2   8  -6    0.15    0.29
  -2   8  -6    0.42    0.27
   2  -8   6    0.14    0.29
  -3   8  -6   35.56    1.55
  -3   8  -6   33.98    1.75
   3  -8   6   34.98    1.54
  -4   8  -6   59.10    2.63
  -4   8  -6   52.03    2.31
  -5   8  -6   10.15    1.23
  -6   8  -6    0.90    0.75
  -5  -7   6   36.70    1.89
  -4  -7   6   25.48    1.39
   3   7  -6    0.26    0.19
  -3  -7   6    0.41    0.24
  -3  -7   6    0.08    0.29
   2   7  -6   97.32    3.64
   2   7  -6   97.36    3.67
  -2  -7   6   96.35    3.62
  -2  -7   6   98.85    3.66
   1   7  -6   68.92    2.64
   1   7  -6   70.25    2.65
  -1  -7   6   68.99    2.66
   0   7  -6   70.88    2.78
   0   7  -6   74.78    2.83
   0  -7   6   76.25    2.82
  -1   7  -6    6.65    0.53
  -1   7  -6    4.71    0.62
   1  -7   6    6.55    0.55
  -2   7  -6   41.73    1.92
  -2   7  -6   47.70    1.89
   2  -7   6   43.17    1.79
  -3   7  -6   56.41    2.49
  -3   7  -6   59.06    2.32
   3  -7   6   56.45    2.23
  -4   7  -6   19.92    1.12
  -4   7  -6   20.31    1.35
  -5   7  -6    0.44    0.35
  -5   7  -6    0.26    0.55
  -6   7  -6    3.77    0.67
  -6   7  -6    3.15    0.96
  -5  -6   6   21.09    1.32
  -4  -6   6   10.91    0.86
   3   6  -6   81.42    3.15
  -3  -6   6   81.00    3.08
  -3  -6   6   80.88    3.16
   2   6  -6   73.26    2.81
   2   6  -6   72.79    2.78
  -2  -6   6   73.01    2.82
  -2  -6   6   73.59    2.78
   1   6  -6   21.33    1.02
   1   6  -6   21.58    0.96
  -1  -6   6   22.73    1.05
   0   6  -6    7.76    0.58
   0   6  -6    8.35    0.51
   0  -6   6    8.35    0.57
  -1   6  -6   15.68    0.82
  -1   6  -6   14.30    0.92
   1  -6   6   15.47    0.80
  -2   6  -6   54.94    2.18
  -2   6  -6   50.86    2.18
   2  -6   6   52.15    2.04
  -3   6  -6   38.06    1.69
  -3   6  -6   37.94    1.83
   3  -6   6   37.72    1.55
  -4   6  -6    0.80    0.48
  -4   6  -6    0.50    0.36
  -5   6  -6   16.37    1.41
  -5   6  -6   19.72    1.17
  -6   6  -6   22.14    1.36
  -6   6  -6   18.43    1.74
  -7   6  -6    5.99    0.93
  -6  -5   6    7.35    0.91
  -5  -5   6    0.61    0.44
  -4  -5   6   12.52    0.89
  -4  -5   6   12.83    0.81
   3   5  -6  160.24    5.88
  -3  -5   6  167.23    5.91
  -3  -5   6  162.08    5.82
   2   5  -6   57.97    2.29
   2   5  -6   56.33    2.20
  -2  -5   6   58.78    2.26
  -2  -5   6   60.09    2.31
   1   5  -6    0.35    0.13
   1   5  -6    0.32    0.17
  -1  -5   6    0.30    0.19
   0   5  -6   94.88    3.36
   0   5  -6   94.55    3.51
   0  -5   6   93.03    3.42
  -1   5  -6  251.91    8.66
  -1   5  -6  238.43    8.77
   1  -5   6  258.21    8.62
  -2   5  -6   51.00    2.17
  -2   5  -6   56.26    2.20
   2  -5   6   52.21    2.01
  -3   5  -6    6.91    0.73
  -3   5  -6    7.42    0.68
   3  -5   6    6.93    0.49
  -4   5  -6   16.37    1.25
  -4   5  -6   16.68    1.05
  -5   5  -6   30.45    1.59
  -5   5  -6   29.58    1.88
  -6   5  -6   24.08    1.49
  -6  -4   6    0.04    0.42
  -5  -4   6    1.73    0.49
  -4  -4   6   74.04    2.88
  -4  -4   6   71.91    2.92
   3   4  -6   56.20    2.33
  -3  -4   6   59.98    2.31
  -3  -4   6   59.21    2.36
   2   4  -6    9.14    0.59
   2   4  -6    9.14    0.52
  -2  -4   6    9.72    0.59
  -2  -4   6    8.69    0.62
   1   4  -6   64.28    2.21
   1   4  -6   63.35    2.40
  -1  -4   6   61.71    2.37
   0   4  -6  241.76    8.17
   0   4  -6  238.99    8.39
   0  -4   6  237.44    8.26
  -1   4  -6   69.26    2.87
  -1   4  -6   76.86    2.76
   1  -4   6   75.95    2.72
  -2   4  -6   12.43    0.79
  -2   4  -6   13.34    0.84
   2  -4   6   12.23    0.64
  -3   4  -6    4.84    0.67
  -3   4  -6    5.25    0.61
   3  -4   6    3.89    0.36
  -4   4  -6   66.71    2.78
  -4   4  -6   69.01    3.01
  -5   4  -6   29.54    1.58
  -6   4  -6    4.47    0.77
  -6  -3   6   18.96    1.25
  -5  -3   6   42.09    1.95
  -4  -3   6   61.48    2.57
  -4  -3   6   66.74    2.62
   3   3  -6    6.35    0.51
  -3  -3   6    7.20    0.59
  -3  -3   6    6.14    0.53
   2   3  -6    1.30    0.23
   2   3  -6    1.54    0.28
  -2  -3   6    2.04    0.34
  -2  -3   6    2.09    0.31
   1   3  -6   60.17    2.29
  -1  -3   6   59.66    2.26
   0   3  -6  223.42    7.75
   0  -3   6  216.45    7.59
  -1   3  -6    7.38    0.64
  -1   3  -6    7.97    0.52
   1  -3   6    8.46    0.48
  -2   3  -6   23.46    1.18
  -2   3  -6   23.92    1.19
   2  -3   6   22.98    0.97
  -3   3  -6   58.12    2.40
  -4   3  -6   12.00    0.91
  -5   3  -6    7.85    0.89
  -6   3  -6    0.48    0.47
  -6  -2   6   34.37    1.78
  -5  -2   6   57.93    2.47
  -4  -2   6    4.17    0.53
  -4  -2   6    4.32    0.55
   3   2  -6   26.01    1.23
  -3  -2   6   27.48    1.27
  -3  -2   6   26.95    1.26
   2   2  -6  252.75    8.85
  -2  -2   6  255.61    8.86
  -2  -2   6  255.85    8.85
   1   2  -6  234.43    8.22
  -1  -2   6  239.21    8.21
   0   2  -6   69.84    2.76
   0  -2   6   73.09    2.63
  -1   2  -6    7.14    0.62
   1  -2   6    8.07    0.47
  -2   2  -6  100.26    3.67
   2  -2   6   94.11    3.43
  -3   2  -6   67.25    2.71
  -4   2  -6    1.47    0.48
  -5   2  -6    2.22    0.57
  -6   2  -6   11.25    1.19
  -7  -1   6   13.92    1.14
  -6  -1   6   29.33    1.57
  -5  -1   6   17.74    1.08
  -4  -1   6   13.43    0.87
  -4  -1   6   14.82    0.89
   3   1  -6   63.88    2.45
  -3  -1   6   60.40    2.37
  -3  -1   6   62.56    2.48
  -3  -1   6   63.95    2.46
   2   1  -6   21.96    1.01
  -2  -1   6   22.84    1.04
  -2  -1   6   21.23    0.87
  -2  -1   6   21.40    1.05
   1   1  -6   41.81    1.74
  -1  -1   6   46.02    1.77
   0   1  -6    0.91    0.30
   0  -1   6    0.52    0.19
  -1   1  -6  124.13    4.60
   1  -1   6  127.38    4.44
  -2   1  -6  137.45    5.07
   2  -1   6  140.79    4.86
  -3   1  -6    4.86    0.60
  -4   1  -6    3.74    0.61
  -5   1  -6   23.65    1.47
  -6   1  -6   19.89    1.43
  -7   0   6    9.50    1.07
  -6   0   6    9.95    0.88
  -5   0   6    3.05    0.51
  -5   0   6    2.36    0.44
   4   0  -6   50.57    2.09
  -4   0   6   51.01    2.12
  -4   0   6   50.01    2.10
   3   0  -6   86.50    3.17
  -3   0   6   78.72    3.09
  -3   0   6   86.25    3.17
  -3   0   6   85.40    3.21
   2   0  -6    4.26    0.39
  -2   0   6    4.67    0.48
  -2   0   6    4.20    0.32
   1   0  -6   10.96    0.66
  -1   0   6   11.26    0.64
  -1   0   6    9.44    0.52
   0   0  -6  104.02    3.93
   0   0   6  108.99    3.92
   0   0   6  106.30    3.84
  -1   0  -6   92.74    3.52
   1   0   6   94.59    3.37
  -2   0  -6   23.30    1.18
   2   0   6   21.36    0.93
  -3   0  -6    4.58    0.64
  -4   0  -6   25.08    1.41
  -5   0  -6   28.04    1.64
  -6   0  -6    8.95    1.17
  -7   1   6    1.08    0.52
  -6   1   6    1.82    0.50
  -5   1   6   61.40    2.56
  -5   1   6   64.06    2.57
   4  -1  -6   89.96    3.39
  -4   1   6   87.39    3.42
  -4   1   6   91.65    3.39
  -4   1   6   87.77    3.50
   3  -1  -6   21.49    1.03
  -3   1   6   21.06    1.08
  -3   1   6   20.23    1.03
  -3   1   6   21.74    1.07
   2  -1  -6    4.42    0.41
  -2   1   6    4.82    0.49
  -2   1   6    4.82    0.40
   1  -1  -6  108.45    3.98
  -1   1   6  112.61    3.96
  -1   1   6  104.62    3.93
   0  -1  -6  145.85    5.45
   0   1   6  148.73    5.38
   0   1   6  162.55    5.55
  -1  -1  -6   66.10    2.59
   1   1   6   65.59    2.45
  -2  -1  -6   -0.25    0.29
   2   1   6   -0.16    0.13
  -3  -1  -6   27.30    1.41
  -4  -1  -6   45.36    2.12
  -5  -1  -6   10.86    1.12
  -7   2   6    0.33    0.44
  -6   2   6   24.79    1.37
   5  -2  -6   50.70    2.15
  -5   2   6   50.67    2.18
  -5   2   6   50.28    2.15
   4  -2  -6   20.34    1.04
  -4   2   6   19.48    1.08
  -4   2   6   18.89    1.13
  -4   2   6   19.16    1.03
   3  -2  -6    0.78    0.25
  -3   2   6    1.00    0.31
  -3   2   6    0.65    0.28
   2  -2  -6   55.84    2.11
  -2   2   6   53.43    2.14
  -2   2   6   51.58    2.15
   1  -2  -6  107.51    3.65
  -1   2   6   85.67    3.65
  -1   2   6  101.19    3.62
   0  -2  -6   30.64    1.43
   0   2   6   32.90    1.36
   0   2   6   31.83    1.55
  -1  -2  -6    0.15    0.29
   1   2   6    0.34    0.19
   1   2   6    0.58    0.46
  -2  -2  -6   32.21    1.53
  -3  -2  -6   31.01    1.56
  -4  -2  -6    5.56    0.81
  -5  -2  -6   -0.32    0.40
   6  -3  -6   36.41    1.69
  -6   3   6   32.12    1.65
   5  -3  -6   20.13    1.10
  -5   3   6   19.76    1.09
  -5   3   6   18.90    1.13
   4  -3  -6    0.64    0.28
  -4   3   6    1.02    0.39
  -4   3   6    0.37    0.29
  -4   3   6    0.80    0.35
   3  -3  -6   46.33    1.82
  -3   3   6   43.80    1.95
  -3   3   6   42.83    1.89
   2  -3  -6  137.20    4.95
  -2   3   6  142.07    5.02
  -2   3   6  134.81    5.07
   1  -3  -6   42.62    1.67
  -1   3   6   39.21    1.64
  -1   3   6   34.19    1.76
   0  -3  -6    5.36    0.57
   0   3   6    5.30    0.71
   0   3   6    4.94    0.49
  -1  -3  -6   41.52    1.78
   1   3   6   40.91    2.07
  -2  -3  -6   54.22    2.21
   2   3   6   47.99    2.58
  -3  -3  -6   28.94    1.51
  -4  -3  -6   -0.24    0.36
  -5  -3  -6   10.56    1.18
  -5   4   6    0.43    0.33
   4  -4  -6   15.80    0.89
  -4   4   6   15.13    1.00
  -4   4   6   16.38    1.10
   3  -4  -6   52.71    2.11
  -3   4   6   54.79    2.24
  -3   4   6   52.79    2.34
   2  -4  -6   12.34    0.78
  -2   4   6   11.97    0.78
  -2   4   6   11.53    0.91
   1  -4  -6    0.35    0.29
  -1   4   6    0.68    0.44
  -1   4   6    0.37    0.24
   0  -4  -6   17.12    0.97
   0   4   6   20.55    1.29
  -1  -4  -6   79.98    3.09
  -1  -4  -6   80.64    3.18
   1   4   6   90.41    3.61
  -2  -4  -6   33.44    1.61
   2   4   6   35.02    2.10
  -3  -4  -6    0.89    0.42
   3   4   6    0.79    0.84
  -4  -4  -6    8.68    0.98
   4   4   6    9.14    1.51
  -5  -4  -6   11.57    1.22
   6  -5  -6    1.32    0.44
  -5   5   6   13.66    1.18
  -4   5   6   28.75    1.47
  -4   5   6   29.12    1.63
  -3   5   6   33.76    1.76
  -3   5   6   33.18    1.58
  -2   5   6    5.92    0.63
  -2   5   6    5.85    0.80
   1  -5  -6   23.43    1.16
  -1   5   6   22.36    1.45
   0  -5  -6   51.98    2.13
   0  -5  -6   52.74    2.15
   0   5   6   55.26    2.56
  -1  -5  -6    1.13    0.35
  -1  -5  -6    0.64    0.26
   1   5   6    1.16    0.63
  -2  -5  -6    0.43    0.33
   2   5   6    0.92    0.73
  -3  -5  -6    7.11    0.86
   3   5   6    7.43    1.32
  -4  -5  -6   19.99    1.33
   4   5   6   19.68    2.05
   6  -6  -6   12.45    1.04
   5  -6  -6   38.54    1.83
  -5   6   6   35.08    2.04
   4  -6  -6   31.63    1.60
  -4   6   6   32.27    1.83
   3  -6  -6    3.02    0.51
  -3   6   6    3.33    0.69
   2  -6  -6   24.06    1.23
  -2   6   6   20.84    1.46
   1  -6  -6   68.79    2.67
  -1   6   6   62.16    3.00
   0  -6  -6   68.79    2.77
   0   6   6   71.55    3.20
   1   6   6    0.86    0.63
   2   6   6    4.07    1.05
   3   6   6   23.19    2.00
   6  -7  -6   21.00    1.38
   5  -7  -6    5.69    0.73
  -5   7   6    3.92    0.81
   4  -7  -6    2.40    0.53
  -4   7   6    2.72    0.70
   3  -7  -6    8.45    0.87
  -3   7   6    6.89    1.01
   2  -7  -6   33.03    1.52
  -2   7   6   24.23    1.75
   1  -7  -6   45.23    2.06
  -1   7   6   49.43    2.52
   0  -7  -6    0.20    0.32
   0   7   6    0.91    0.58
   1   7   6    8.68    1.24
   2   7   6   15.52    1.61
   3   7   6   15.14    1.85
   6  -8  -6    9.07    1.03
   5  -8  -6    0.20    0.47
  -5   8   6    1.00    0.61
   4  -8  -6    2.51    0.58
  -4   8   6    2.47    0.76
   3  -8  -6   20.25    1.26
  -3   8   6   18.69    1.56
   2  -8  -6   10.25    0.87
  -2   8   6    7.34    1.14
   1  -8  -6    3.87    0.62
  -1   8   6    4.56    0.96
   0  -8  -6    7.01    0.77
   0   8   6    9.23    1.25
   1   8   6   15.82    1.55
   2   8   6   20.90    1.84
   5  -9  -6    3.85    0.76
  -5   9   6    3.64    0.96
   4  -9  -6   14.11    1.13
  -4   9   6   12.96    1.40
   3  -9  -6   11.06    1.06
  -3   9   6   11.06    1.42
   2  -9  -6    1.50    0.50
  -2   9   6    2.14    0.80
   1  -9  -6    2.68    0.58
  -1   9   6    3.92    0.99
   0  -9  -6   14.52    1.11
   0   9   6   21.35    1.70
   1   9   6   14.40    1.64
  -5  10   6    8.55    1.31
   4 -10  -6   11.85    1.19
  -4  10   6   11.25    1.50
   3 -10  -6    0.68    0.49
  -3  10   6    0.52    0.66
   2 -10  -6    5.12    0.81
   1 -10  -6   12.44    1.10
  -1  10   6   16.18    1.54
   0 -10  -6    6.90    1.37
   0  10   6    8.74    1.37
  -3  11   6    1.27    0.82
   2 -11  -6   11.89    1.79
  -2  11   6   11.02    1.56
   1 -11  -6   12.95    1.23
  -1 -14   7   16.28    1.75
   0 -14   7   -0.12    0.46
   1 -14   7    8.70    1.00
  -2  14  -7   16.22    1.34
   2 -14   7   15.45    1.28
  -3  14  -7   11.92    1.22
   3 -14   7    9.60    1.07
  -4  14  -7    0.42    0.62
   4 -14   7    0.18    0.56
  -2 -13   7   16.64    1.18
  -1 -13   7   -0.33    0.39
   0 -13   7   13.82    1.15
   1 -13   7   19.96    1.34
  -2  13  -7   22.46    1.52
   2 -13   7   24.45    1.48
  -3  13  -7    0.95    0.56
   3 -13   7    0.73    0.53
  -4  13  -7    6.78    1.06
   4 -13   7    5.92    0.81
  -5  13  -7   12.27    2.24
  -2 -12   7    5.77    0.74
  -1 -12   7   14.01    1.05
   0 -12   7   33.96    1.74
  -1  12  -7   29.56    1.66
   1 -12   7   30.40    1.62
  -2  12  -7    5.80    0.84
   2 -12   7    4.44    0.70
  -3  12  -7    3.10    0.72
   3 -12   7    1.89    0.56
  -4  12  -7   16.58    1.41
   4 -12   7   15.66    1.18
  -5  12  -7   12.48    1.49
  -3 -11   7    4.97    0.73
  -2 -11   7    4.42    0.63
  -1 -11   7   44.90    2.05
   0 -11   7   16.47    1.10
  -1  11  -7    6.04    0.76
   1 -11   7    5.53    0.70
  -2  11  -7    3.43    0.63
   2 -11   7    4.25    0.65
  -3  11  -7   11.49    1.05
   3 -11   7   11.40    0.97
  -4  11  -7   21.41    1.51
   4 -11   7   20.51    1.26
  -5  11  -7    0.73    0.67
   4  10  -7    0.31    0.29
  -4 -10   7   -0.14    0.40
   3  10  -7    1.29    0.37
  -3 -10   7    1.65    0.42
  -3 -10   7    0.82    0.46
  -2 -10   7   37.89    1.75
  -2 -10   7   36.06    1.73
  -1 -10   7   53.79    2.30
   0  10  -7    0.78    0.47
   0 -10   7    1.55    0.44
  -1  10  -7   21.21    1.22
   1 -10   7   22.40    1.23
  -2  10  -7   38.09    1.86
   2 -10   7   38.02    1.76
  -3  10  -7   24.73    1.50
   3 -10   7   25.51    1.35
  -4  10  -7    4.75    0.86
   4 -10   7    4.87    0.63
  -5  10  -7    2.23    0.77
  -6  10  -7   11.75    1.46
  -5  -9   7    1.80    0.67
   4   9  -7    2.77    0.50
  -4  -9   7    3.35    0.62
   3   9  -7   16.03    0.97
  -3  -9   7   14.68    0.95
  -3  -9   7   14.73    1.03
   2   9  -7   96.33    3.67
  -2  -9   7   95.34    3.68
  -2  -9   7   95.55    3.67
   1   9  -7   16.34    0.93
  -1  -9   7   16.94    0.99
   0   9  -7    4.81    0.57
   0   9  -7    4.08    0.58
   0  -9   7    4.40    0.55
  -1   9  -7   45.69    2.33
  -1   9  -7   58.56    2.36
   1  -9   7   61.99    2.33
  -2   9  -7   44.89    2.07
   2  -9   7   46.74    1.98
  -3   9  -7   15.89    1.12
   3  -9   7   15.07    0.96
  -4   9  -7    6.79    0.95
  -5   9  -7   13.11    1.27
  -6   9  -7   12.99    1.56
   5   8  -7   14.48    1.02
  -5  -8   7   11.44    1.07
   4   8  -7   22.39    1.25
  -4  -8   7   20.91    1.30
   3   8  -7   20.49    1.15
  -3  -8   7   21.29    1.22
  -3  -8   7   21.66    1.14
   2   8  -7   31.43    1.49
  -2  -8   7   31.53    1.49
  -2  -8   7   34.52    1.55
   1   8  -7   10.40    0.69
  -1  -8   7    9.81    0.73
   0   8  -7   32.15    1.43
   0   8  -7   32.93    1.53
   0  -8   7   31.29    1.46
  -1   8  -7   83.06    3.22
  -1   8  -7   80.25    3.31
   1  -8   7   86.47    3.19
  -2   8  -7   23.43    1.28
  -2   8  -7   24.44    1.31
   2  -8   7   23.61    1.18
  -3   8  -7    2.22    0.52
  -3   8  -7    2.05    0.44
   3  -8   7    1.70    0.38
  -4   8  -7   22.52    1.50
  -4   8  -7   22.48    1.25
  -5   8  -7   14.87    1.38
  -5   8  -7   14.54    1.11
  -6   8  -7    3.88    1.06
  -5  -7   7   34.97    1.84
   4   7  -7   45.81    2.01
  -4  -7   7   41.15    2.01
   3   7  -7   23.63    1.21
  -3  -7   7   22.42    1.17
  -3  -7   7   23.56    1.27
   2   7  -7   10.22    0.70
  -2  -7   7   10.15    0.72
  -2  -7   7   11.47    0.79
   1   7  -7   47.91    1.98
  -1  -7   7   48.66    1.99
   0   7  -7   79.01    3.02
   0   7  -7   75.38    2.88
   0  -7   7   76.61    2.92
  -1   7  -7   68.70    2.66
  -1   7  -7   65.24    2.78
   1  -7   7   69.67    2.63
  -2   7  -7    0.38    0.39
  -2   7  -7    0.14    0.27
   2  -7   7    0.19    0.28
  -3   7  -7   36.33    1.81
  -3   7  -7   36.65    1.70
   3  -7   7   35.94    1.56
  -4   7  -7   36.21    1.74
  -4   7  -7   37.07    1.97
  -5   7  -7    6.73    0.81
  -5   7  -7    5.88    1.06
  -6   7  -7    0.86    0.49
  -6   7  -7   -1.48    0.62
  -5  -6   7   38.96    1.95
   4   6  -7   19.61    1.11
  -4  -6   7   17.51    1.03
  -4  -6   7   17.59    1.12
   3   6  -7    4.38    0.56
  -3  -6   7    4.41    0.52
  -3  -6   7    4.45    0.61
   2   6  -7   82.95    3.19
  -2  -6   7   87.52    3.22
  -2  -6   7   79.80    3.14
   1   6  -7   41.65    1.75
  -1  -6   7   42.21    1.74
   0   6  -7   23.46    1.21
   0   6  -7   24.46    1.03
   0  -6   7   22.78    1.10
  -1   6  -7    0.36    0.21
  -1   6  -7    0.38    0.35
   1  -6   7    0.56    0.25
  -2   6  -7   22.33    1.19
  -2   6  -7   23.28    1.27
   2  -6   7   22.90    1.07
  -3   6  -7   48.67    2.23
  -3   6  -7   51.40    2.16
   3  -6   7   47.30    1.93
  -4   6  -7   20.17    1.22
  -4   6  -7   20.41    1.44
  -5   6  -7    2.45    0.57
  -5   6  -7    1.72    0.80
  -6   6  -7    5.95    0.85
  -6  -5   7   24.69    1.50
  -5  -5   7   24.75    1.42
   4   5  -7    0.78    0.30
  -4  -5   7    0.60    0.37
  -4  -5   7    0.26    0.25
   3   5  -7   34.61    1.54
  -3  -5   7   31.39    1.55
  -3  -5   7   33.72    1.50
   2   5  -7   78.36    3.02
  -2  -5   7   80.95    3.04
  -2  -5   7   76.67    2.97
   1   5  -7   21.40    1.03
  -1  -5   7   20.41    1.00
   0   5  -7    0.44    0.30
   0   5  -7    0.30    0.14
   0  -5   7    0.60    0.23
  -1   5  -7   67.03    2.76
  -1   5  -7   66.91    2.57
   1  -5   7   70.17    2.57
  -2   5  -7   50.18    2.15
  -2   5  -7   51.61    2.22
   2  -5   7   52.58    2.00
  -3   5  -7   43.94    2.06
  -3   5  -7   43.77    1.97
   3  -5   7   43.11    1.72
  -4   5  -7    1.62    0.63
  -4   5  -7    2.69    0.57
  -5   5  -7   21.97    1.35
  -6   5  -7   23.37    1.54
  -6  -4   7    8.37    0.95
  -5  -4   7    0.80    0.39
   4   4  -7    9.14    0.72
  -4  -4   7    9.20    0.73
  -4  -4   7   11.41    0.83
   3   4  -7  133.21    4.90
  -3  -4   7  130.82    4.87
  -3  -4   7  136.73    4.93
   2   4  -7  114.61    4.27
  -2  -4   7  118.89    4.29
  -2  -4   7  116.65    4.25
   1   4  -7    0.27    0.19
  -1  -4   7    0.25    0.18
   0   4  -7   52.60    2.16
   0   4  -7   50.64    1.87
   0  -4   7   52.47    2.01
  -1   4  -7  101.35    3.96
  -1   4  -7  105.52    3.79
   1  -4   7  106.13    3.76
  -2   4  -7   54.11    2.34
  -2   4  -7   57.11    2.31
   2  -4   7   55.08    2.10
  -3   4  -7   12.40    0.93
  -3   4  -7   13.79    1.05
  -4   4  -7   22.74    1.35
  -5   4  -7   14.54    1.11
  -6   4  -7   17.68    1.36
  -6  -3   7    0.49    0.43
  -5  -3   7   29.62    1.55
   4   3  -7   43.85    1.92
  -4  -3   7   43.75    1.94
  -4  -3   7   43.63    1.94
   3   3  -7   38.05    1.66
  -3  -3   7   37.76    1.68
  -3  -3   7   37.06    1.66
   2   3  -7    4.22    0.48
  -2  -3   7    3.33    0.43
   1   3  -7   45.09    1.87
  -1  -3   7   46.87    1.84
   0   3  -7   94.00    3.52
   0  -3   7   90.03    3.35
  -1   3  -7   53.74    2.28
   1  -3   7   54.63    2.07
  -2   3  -7   11.68    0.86
   2  -3   7   12.15    0.65
  -4   3  -7   24.28    1.41
  -5   3  -7    7.47    0.91
  -6   3  -7    2.18    0.69
  -6  -2   7   17.23    1.19
  -5  -2   7   37.52    2.01
  -5  -2   7   38.12    1.82
   4   2  -7   61.31    2.57
  -4  -2   7   65.18    2.61
  -4  -2   7   64.16    2.61
   3   2  -7   18.07    0.93
  -3  -2   7   14.76    0.91
  -3  -2   7   15.93    0.93
   2   2  -7   58.02    2.35
  -2  -2   7   62.39    2.39
   1   2  -7   85.02    3.25
  -1  -2   7   88.43    3.23
   0   2  -7   82.48    3.17
   0  -2   7   81.26    3.03
  -1   2  -7    0.47    0.34
   1  -2   7    0.37    0.19
  -2   2  -7   23.18    1.24
   2  -2   7   21.39    0.98
  -3   2  -7   75.19    3.05
  -4   2  -7   19.76    1.25
  -5   2  -7    2.38    0.63
  -6   2  -7    6.62    0.96
  -6  -1   7   23.57    1.39
   5   1  -7   40.96    1.91
  -5  -1   7   40.41    1.91
  -5  -1   7   44.09    1.95
   4   1  -7   17.66    0.99
  -4  -1   7   17.94    1.05
  -4  -1   7   16.73    1.03
   3   1  -7   19.21    1.00
  -3  -1   7   18.16    1.01
  -3  -1   7   19.18    1.04
   2   1  -7   78.27    3.04
  -2  -1   7   84.09    3.12
   1   1  -7   68.93    2.58
  -1  -1   7   60.85    2.30
  -1  -1   7   68.89    2.55
   0   1  -7   17.48    1.00
   0  -1   7   17.42    0.89
   0  -1   7   15.94    0.85
  -1   1  -7   10.92    0.83
   1  -1   7    9.79    0.60
  -2   1  -7   37.96    1.73
   2  -1   7   36.27    1.47
  -3   1  -7   35.78    1.75
  -4   1  -7    2.32    0.57
  -5   1  -7    2.51    0.63
  -7   0   7   16.24    1.22
   6   0  -7   10.62    0.87
  -6   0   7   10.78    1.03
   5   0  -7    1.04    0.34
  -5   0   7    0.26    0.32
  -5   0   7    0.20    0.35
   4   0  -7   10.08    0.73
  -4   0   7    9.52    0.78
  -4   0   7    9.95    0.78
   3   0  -7   56.29    2.23
  -3   0   7   53.79    2.27
  -3   0   7   55.32    2.24
   2   0  -7   48.51    1.95
  -2   0   7   47.21    2.04
  -2   0   7   48.74    2.00
   1   0  -7   10.38    0.71
  -1   0   7    9.67    0.64
  -1   0   7    9.09    0.54
   0   0  -7   51.84    2.16
   0   0   7   53.23    2.12
   0   0   7   50.09    2.03
  -1   0  -7   61.69    2.56
   1   0   7   64.94    2.40
  -2   0  -7   41.52    1.85
   2   0   7   38.74    1.58
  -3   0  -7    2.92    0.57
  -4   0  -7    5.02    0.75
  -5   0  -7   21.36    1.46
   7  -1  -7   15.35    1.09
  -7   1   7   13.80    1.13
   6  -1  -7    2.39    0.49
  -6   1   7    1.57    0.49
   5  -1  -7   12.70    0.87
  -5   1   7   12.08    0.89
  -5   1   7   10.89    0.86
   4  -1  -7   46.59    2.04
  -4   1   7   50.90    2.08
  -4   1   7   47.83    2.10
   3  -1  -7   63.23    2.40
  -3   1   7   56.44    2.42
   2  -1  -7   28.89    1.30
  -2   1   7   26.80    1.22
  -2   1   7   29.26    1.33
   1  -1  -7   35.95    1.52
  -1   1   7   33.33    1.43
  -1   1   7   28.45    1.40
   0  -1  -7  127.24    4.91
   0   1   7  129.86    4.83
   0   1   7  146.83    5.01
  -1  -1  -7   69.38    2.83
   1   1   7   70.75    2.67
   1   1   7   73.85    3.03
  -2  -1  -7   10.27    0.86
  -3  -1  -7    2.47    0.56
  -4  -1  -7   10.36    0.95
   7  -2  -7    2.91    0.57
  -7   2   7    1.54    0.58
   6  -2  -7    6.80    0.77
  -6   2   7    7.24    0.81
   5  -2  -7   43.64    1.94
  -5   2   7   41.19    1.97
  -5   2   7   45.28    1.97
   4  -2  -7   40.88    1.74
  -4   2   7   37.60    1.78
  -4   2   7   38.35    1.73
   3  -2  -7    7.18    0.58
  -3   2   7    5.57    0.63
   2  -2  -7    6.51    0.63
  -2   2   7    6.24    0.57
  -2   2   7    6.80    0.65
   1  -2  -7   50.95    1.98
  -1   2   7   46.19    1.89
  -1   2   7   40.24    1.94
   0  -2  -7   86.75    3.43
   0   2   7   86.48    3.34
   0   2   7   96.96    3.59
  -1  -2  -7   34.41    1.62
   1   2   7   32.65    1.44
   1   2   7   37.14    1.86
  -2  -2  -7    9.18    0.88
  -3  -2  -7   35.01    1.77
  -4  -2  -7   13.37    1.12
  -5  -2  -7    1.88    0.63
   6  -3  -7   25.29    1.48
   5  -3  -7   41.95    1.89
  -5   3   7   41.83    1.91
  -5   3   7   42.21    1.97
   4  -3  -7   10.11    0.75
  -4   3   7   11.24    0.85
   3  -3  -7    1.43    0.34
  -3   3   7    1.07    0.36
  -3   3   7    1.13    0.38
   2  -3  -7   36.56    1.64
  -2   3   7   36.84    1.65
  -2   3   7   36.76    1.72
   1  -3  -7   33.66    1.52
  -1   3   7   31.56    1.63
  -1   3   7   33.26    1.49
   0  -3  -7   21.20    1.14
   0   3   7   20.35    1.06
   0   3   7   21.60    1.30
  -1  -3  -7   11.10    0.82
   1   3   7    9.37    0.67
   1   3   7   11.25    1.06
  -2  -3  -7   44.04    2.00
   2   3   7   43.85    2.40
  -3  -3  -7   28.86    1.55
   3   3   7   27.77    2.00
  -4  -3  -7    3.77    0.73
  -5  -3  -7   -0.11    0.65
  -6   4   7   21.67    1.34
  -5   4   7   16.21    1.11
  -4   4   7    3.94    0.60
   3  -4  -7   44.42    1.91
  -3   4   7   43.32    2.07
  -3   4   7   45.84    1.99
   2  -4  -7   30.13    1.36
  -2   4   7   28.03    1.38
  -2   4   7   24.43    1.46
   1  -4  -7   12.28    0.85
  -1   4   7   12.63    0.84
  -1   4   7   13.47    1.05
   0  -4  -7    3.58    0.52
   0   4   7    2.54    0.41
   0   4   7    3.58    0.68
  -1  -4  -7   10.52    0.70
  -1  -4  -7   11.20    0.83
   1   4   7   13.48    1.23
  -2  -4  -7   27.29    1.45
   2   4   7   28.09    1.88
  -3  -4  -7   10.29    0.93
   3   4   7   10.17    1.44
  -4  -4  -7    0.82    0.52
   4   4   7   -0.35    0.93
   6  -5  -7    6.69    0.81
  -5   5   7    5.33    0.73
  -4   5   7   20.11    1.22
  -3   5   7   36.55    1.70
  -3   5   7   32.98    1.82
  -2   5   7    6.40    0.86
  -2   5   7    6.40    0.68
   1  -5  -7    3.16    0.49
  -1   5   7    4.38    0.81
   0  -5  -7   63.55    2.63
   0   5   7   69.81    3.03
  -1  -5  -7   30.98    1.54
   1   5   7   32.69    1.95
  -2  -5  -7   10.77    0.88
   2   5   7   11.02    1.47
  -3  -5  -7    0.18    0.40
   3   5   7   -0.12    0.80
  -4  -5  -7    4.93    0.80
   6  -6  -7    1.34    0.49
   5  -6  -7   14.08    1.06
   4  -6  -7   33.05    1.67
  -4   6   7   31.32    2.05
   3  -6  -7   15.37    1.03
  -3   6   7   15.13    1.24
   2  -6  -7    2.62    0.50
  -2   6   7    2.28    0.65
   1  -6  -7   33.78    1.62
  -1   6   7   34.19    1.99
   0  -6  -7   36.01    1.73
   0   6   7   42.30    2.20
   1   6   7   10.15    1.28
   2   6   7    0.37    0.76
   3   6   7   13.17    1.74
   6  -7  -7   16.02    1.29
   5  -7  -7   14.55    1.14
   4  -7  -7   13.40    1.06
  -4   7   7   13.75    1.30
   3  -7  -7    1.39    0.48
  -3   7   7    1.82    0.63
   2  -7  -7    5.67    0.71
  -2   7   7    6.12    1.04
   1  -7  -7   41.09    1.96
  -1   7   7   44.83    2.42
   0  -7  -7   12.99    0.94
   0   7   7   13.16    1.27
   1   7   7    0.80    0.69
   2   7   7    7.28    1.28
   5  -8  -7    6.05    0.86
   4  -8  -7    1.16    0.51
  -4   8   7    1.35    0.67
   3  -8  -7   11.37    1.00
  -3   8   7   10.51    1.35
   2  -8  -7   16.56    1.16
  -2   8   7   17.13    1.54
   1  -8  -7   11.39    0.95
  -1   8   7   13.24    1.39
   0  -8  -7    0.15    0.35
   0   8   7    0.97    0.67
   1   8   7   14.13    1.69
   2   8   7   11.12    2.30
   4  -9  -7    6.43    0.92
  -4   9   7    6.44    1.13
   3  -9  -7   13.40    1.23
  -3   9   7   11.77    1.49
   2  -9  -7    7.79    0.94
  -2   9   7    8.40    1.26
   1  -9  -7    0.33    0.41
  -1   9   7    0.42    0.64
   0   9   7    4.64    1.04
   1   9   7   12.58    2.02
  -4  10   7    8.78    1.39
  -3  10   7    5.78    1.12
   2 -10  -7    0.49    0.50
  -2  10   7    2.68    0.86
   1 -10  -7    7.49    0.92
  -1  10   7    8.14    1.35
   0 -14   8    9.31    1.06
   1 -14   8    0.40    0.50
   2 -14   8   16.96    1.32
   3 -14   8   11.00    1.13
  -4  14  -8    5.29    1.04
   4 -14   8    3.72    0.74
  -2 -13   8   15.64    1.17
  -1 -13   8    7.93    0.90
   0 -13   8   -0.33    0.43
   1 -13   8   11.80    1.12
   2 -13   8   22.61    1.46
  -3  13  -8   11.88    1.18
   3 -13   8   11.17    1.07
  -4  13  -8    0.23    0.57
   4 -13   8    0.25    0.50
  -2 -12   8    9.64    0.93
  -1 -12   8   -0.09    0.35
   0 -12   8    8.98    0.94
   1 -12   8   54.39    2.43
   2 -12   8   10.38    0.99
  -3  12  -8    1.30    0.56
   3 -12   8    1.99    0.56
  -4  12  -8    4.14    0.87
   4 -12   8    5.60    0.76
  -5  12  -8   14.73    1.47
  -3 -11   8   15.02    1.04
  -2 -11   8    0.08    0.33
  -1 -11   8   10.48    0.90
   0 -11   8   28.04    1.51
   1 -11   8    8.24    0.86
  -2  11  -8    1.63    0.48
   2 -11   8    0.77    0.43
  -3  11  -8    3.69    0.72
   3 -11   8    1.78    0.51
  -4  11  -8   16.08    1.38
   4 -11   8   18.66    1.32
  -5  11  -8    7.33    1.17
   4  10  -8   15.20    1.07
  -4 -10   8   16.45    1.21
   3  10  -8    1.92    0.45
  -3 -10   8    2.32    0.58
  -3 -10   8    2.93    0.51
   2  10  -8    9.26    0.75
  -2 -10   8   10.24    0.83
   1  10  -8   38.87    1.86
  -1 -10   8   39.67    1.83
   0 -10   8   54.04    2.32
   1 -10   8    1.32    0.45
  -2  10  -8   13.99    1.01
   2 -10   8   15.82    1.01
  -3  10  -8   23.14    1.46
   3 -10   8   23.51    1.29
  -4  10  -8   12.84    1.20
  -5  10  -8    0.95    0.66
   4   9  -8    1.14    0.39
  -4  -9   8   -0.14    0.40
   3   9  -8    7.87    0.82
  -3  -9   8    7.62    0.83
  -3  -9   8    8.21    0.79
   2   9  -8   48.42    2.10
  -2  -9   8   48.35    2.10
   1   9  -8   49.44    2.15
  -1  -9   8   52.04    2.18
   0   9  -8    1.76    0.47
   0  -9   8    0.86    0.37
  -1   9  -8   13.79    1.10
   1  -9   8   14.98    0.96
  -2   9  -8   48.84    2.19
  -2   9  -8   45.34    2.12
   2  -9   8   48.46    2.04
  -3   9  -8   37.18    2.01
  -3   9  -8   34.87    1.84
   3  -9   8   33.88    1.61
  -4   9  -8    6.00    0.96
  -5   9  -8    2.30    0.80
  -6   9  -8   10.17    1.48
   5   8  -8    0.27    0.30
  -5  -8   8    0.74    0.49
   4   8  -8    7.10    0.78
  -4  -8   8    6.16    0.79
   3   8  -8   38.50    1.80
  -3  -8   8   39.47    1.77
  -3  -8   8   38.48    1.86
   2   8  -8   19.09    1.09
  -2  -8   8   21.34    1.11
   1   8  -8   11.08    0.77
  -1  -8   8   12.13    0.81
   0   8  -8    8.75    0.87
   0  -8   8    8.16    0.70
  -1   8  -8   54.60    2.30
  -1   8  -8   53.61    2.41
   1  -8   8   55.24    2.23
  -2   8  -8   35.89    1.83
  -2   8  -8   37.05    1.75
   2  -8   8   37.97    1.64
  -3   8  -8    3.60    0.61
  -3   8  -8    5.04    0.73
   3  -8   8    5.05    0.57
  -4   8  -8    2.55    0.70
  -4   8  -8    3.08    0.60
  -5   8  -8   12.44    1.34
  -5   8  -8   14.66    1.09
  -6   8  -8    7.85    1.36
   5   7  -8    8.49    0.93
  -5  -7   8    7.80    0.96
   4   7  -8   31.17    1.61
  -4  -7   8   33.78    1.61
  -4  -7   8   32.83    1.69
   3   7  -8   57.45    2.42
  -3  -7   8   55.03    2.35
  -3  -7   8   59.31    2.47
   2   7  -8   12.03    0.80
  -2  -7   8   12.18    0.80
   1   7  -8   15.48    0.89
  -1  -7   8   13.39    0.85
   0   7  -8   63.27    2.62
   0  -7   8   61.55    2.47
  -1   7  -8   62.25    2.52
  -1   7  -8   66.35    2.75
   1  -7   8   65.54    2.53
  -2   7  -8    2.35    0.46
  -2   7  -8    2.07    0.55
   2  -7   8    2.59    0.42
  -3   7  -8    1.18    0.47
  -3   7  -8    0.88    0.43
   3  -7   8    1.15    0.33
  -4   7  -8   24.41    1.63
  -4   7  -8   27.39    1.50
  -5   7  -8   18.69    1.31
  -5   7  -8   21.17    1.61
  -6   7  -8    2.15    0.63
  -6   7  -8    1.64    0.94
   5   6  -8   25.86    1.43
  -5  -6   8   23.71    1.47
   4   6  -8   41.76    1.96
  -4  -6   8   43.36    1.95
  -4  -6   8   44.28    2.04
   3   6  -8    6.00    0.64
  -3  -6   8    6.12    0.64
  -3  -6   8    6.51    0.71
   2   6  -8    2.96    0.44
  -2  -6   8    3.46    0.46
   1   6  -8   46.56    1.93
  -1  -6   8   44.02    1.88
   0   6  -8   90.48    3.48
   0  -6   8   85.84    3.29
  -1   6  -8    3.56    0.45
  -1   6  -8    3.90    0.63
   1  -6   8    3.57    0.44
  -2   6  -8    3.47    0.63
  -2   6  -8    3.96    0.55
   2  -6   8    3.86    0.46
  -3   6  -8   19.99    1.25
  -3   6  -8   18.20    1.23
   3  -6   8   19.60    0.97
  -4   6  -8   35.77    1.84
  -4   6  -8   36.46    2.02
  -5   6  -8    3.00    0.66
  -5   6  -8    2.04    0.87
  -6   6  -8    1.69    0.65
  -6  -5   8   17.16    1.98
   5   5  -8   26.51    1.44
  -5  -5   8   24.94    1.47
   4   5  -8   11.92    0.86
  -4  -5   8   13.01    0.97
  -4  -5   8   12.34    0.88
   3   5  -8    0.37    0.25
  -3  -5   8    0.20    0.34
  -3  -5   8    0.00    0.22
   2   5  -8   55.41    2.29
  -2  -5   8   57.22    2.27
   1   5  -8   67.59    2.67
  -1  -5   8   67.75    2.61
   0   5  -8   38.63    1.80
   0  -5   8   39.52    1.64
  -1   5  -8   30.11    1.52
  -1   5  -8   27.40    1.26
   1  -5   8   29.01    1.28
  -2   5  -8   42.39    1.86
  -2   5  -8   38.88    1.93
   2  -5   8   43.01    1.71
  -3   5  -8   50.86    2.35
  -3   5  -8   51.33    2.32
  -4   5  -8    2.94    0.63
  -5   5  -8    1.75    0.59
  -6   5  -8    7.42    1.01
   6   4  -8   20.78    1.30
  -6  -4   8   19.13    1.35
   5   4  -8    1.79    0.45
  -5  -4   8    2.15    0.54
   4   4  -8    7.64    0.68
  -4  -4   8    7.64    0.77
  -4  -4   8    7.82    0.80
   3   4  -8   33.35    1.55
  -3  -4   8   33.15    1.59
  -3  -4   8   31.94    1.52
   2   4  -8   58.76    2.42
  -2  -4   8   62.07    2.41
   1   4  -8   31.26    1.42
  -1  -4   8   30.05    1.36
   0   4  -8    6.49    0.70
   0  -4   8    5.70    0.50
  -1   4  -8   63.61    2.68
   1  -4   8   64.99    2.45
  -2   4  -8   69.61    2.95
   2  -4   8   73.15    2.68
  -3   4  -8   52.84    2.38
  -4   4  -8    1.90    0.58
  -5   4  -8   10.54    1.12
  -6   4  -8   19.53    1.49
   6   3  -8    8.57    0.95
  -6  -3   8    8.33    0.95
   5   3  -8    4.61    0.64
  -5  -3   8    5.00    0.71
  -5  -3   8    4.68    0.72
   4   3  -8   41.66    1.90
  -4  -3   8   42.04    1.92
  -4  -3   8   42.09    1.92
   3   3  -8   94.30    3.67
  -3  -3   8   95.40    3.68
  -3  -3   8   98.56    3.70
   2   3  -8    0.60    0.24
  -2  -3   8    0.80    0.29
   1   3  -8    1.69    0.37
  -1  -3   8    1.24    0.30
   0   3  -8   44.67    1.96
   0  -3   8   43.68    1.79
  -1   3  -8   75.56    3.09
   1  -3   8   78.16    2.88
  -2   3  -8   31.22    1.64
   2  -3   8   35.06    1.41
  -3   3  -8    5.25    0.75
  -4   3  -8   16.63    1.23
  -5   3  -8   13.36    1.14
  -6   3  -8    6.67    1.26
   6   2  -8    0.39    0.32
  -6  -2   8   -0.22    0.43
   5   2  -8   25.27    1.38
  -5  -2   8   24.62    1.40
  -5  -2   8   25.96    1.41
   4   2  -8   84.90    3.35
  -4  -2   8   85.94    3.37
  -4  -2   8   84.78    3.38
   3   2  -8   56.43    2.32
  -3  -2   8   55.90    2.35
  -3  -2   8   56.35    2.33
   2   2  -8    3.06    0.44
  -2  -2   8    3.36    0.45
   1   2  -8   34.86    1.58
  -1  -2   8   33.94    1.51
   0   2  -8   94.89    3.61
   0  -2   8   95.42    3.51
   0  -2   8   87.91    3.43
  -1   2  -8   14.70    1.00
   1  -2   8   14.36    0.80
  -2   2  -8    5.21    0.69
   2  -2   8    4.92    0.47
  -3   2  -8   32.38    1.70
  -4   2  -8   31.30    1.74
  -5   2  -8   10.54    1.19
   6   1  -8    9.99    0.88
  -6  -1   8    8.88    0.97
   5   1  -8   29.38    1.47
  -5  -1   8   26.78    1.47
  -5  -1   8   25.31    1.45
   4   1  -8   60.48    2.53
  -4  -1   8   63.68    2.57
  -4  -1   8   58.62    2.55
   3   1  -8    5.19    0.57
  -3  -1   8    3.83    0.54
   2   1  -8   33.40    1.52
  -2  -1   8   34.04    1.54
   1   1  -8   67.34    2.78
  -1  -1   8   72.25    2.74
   0   1  -8   46.23    2.02
   0  -1   8   46.14    1.90
   0  -1   8   45.94    1.89
  -1   1  -8    0.79    0.44
   1  -1   8    0.90    0.27
  -2   1  -8   13.64    1.05
   2  -1   8   14.13    0.76
  -3   1  -8   48.12    2.23
  -4   1  -8   22.71    1.46
  -5   1  -8    0.17    0.48
   6   0  -8   20.44    1.24
  -6   0   8   18.44    1.25
   5   0  -8   12.99    0.92
  -5   0   8   11.72    0.92
  -5   0   8   11.86    0.95
   4   0  -8    2.10    0.43
  -4   0   8    2.95    0.53
  -4   0   8    2.51    0.49
   3   0  -8   31.77    1.46
  -3   0   8   30.15    1.49
   2   0  -8   75.82    2.97
  -2   0   8   77.06    2.99
   1   0  -8   49.45    2.13
  -1   0   8   50.17    2.06
   0   0  -8   23.34    1.24
   0   0   8   21.36    1.09
   0   0   8   23.45    1.18
  -1   0  -8   23.24    1.32
   1   0   8   24.60    1.12
  -2   0  -8   41.85    1.97
  -3   0  -8   23.19    1.42
  -4   0  -8    1.06    0.54
  -5   0  -8    5.69    0.94
   7  -1  -8   16.73    1.22
  -7   1   8   14.83    1.24
   6  -1  -8    6.57    0.79
  -6   1   8    5.11    0.76
   5  -1  -8    0.65    0.35
  -5   1   8   -0.04    0.33
  -5   1   8    0.77    0.44
   4  -1  -8   21.56    1.20
  -4   1   8   22.94    1.24
  -4   1   8   22.65    1.27
   3  -1  -8   57.48    2.35
  -3   1   8   57.75    2.42
   2  -1  -8   38.87    1.73
  -2   1   8   38.46    1.72
   1  -1  -8    3.34    0.53
  -1   1   8    3.30    0.46
  -1   1   8    3.70    0.50
   0  -1  -8   43.90    1.97
   0   1   8   44.24    1.85
   0   1   8   44.99    1.98
  -1  -1  -8   61.58    2.62
   1   1   8   65.54    2.79
   1   1   8   61.94    2.43
  -2  -1  -8   38.17    1.84
  -3  -1  -8    1.30    0.52
  -4  -1  -8    4.56    0.77
  -5  -1  -8   14.96    1.28
   7  -2  -8    8.34    0.94
  -7   2   8    8.61    1.46
   6  -2  -8    0.57    0.38
  -6   2   8   -0.41    0.38
   5  -2  -8   13.88    0.97
  -5   2   8   12.27    1.00
  -5   2   8   13.67    1.02
   4  -2  -8   57.32    2.38
  -4   2   8   56.31    2.44
   3  -2  -8   60.19    2.40
  -3   2   8   56.39    2.44
   2  -2  -8    3.22    0.52
  -2   2   8    2.10    0.41
   1  -2  -8   22.46    1.19
  -1   2   8   18.70    1.06
  -1   2   8   20.12    1.16
   0  -2  -8   59.31    2.52
   0   2   8   59.70    2.41
   0   2   8   63.39    2.61
  -1  -2  -8   51.18    2.31
   1   2   8   52.46    2.14
   1   2   8   58.11    2.55
  -2  -2  -8    2.17    0.53
   2   2   8    0.98    0.67
  -3  -2  -8   11.27    1.02
  -4  -2  -8   10.19    1.11
  -6   3   8    4.68    0.74
   5  -3  -8   28.97    1.53
  -5   3   8   29.97    1.61
   4  -3  -8   39.43    1.76
  -4   3   8   37.00    1.83
   3  -3  -8    3.64    0.55
  -3   3   8    3.94    0.57
   2  -3  -8    5.96    0.67
  -2   3   8    3.88    0.56
   1  -3  -8   39.36    1.76
  -1   3   8   39.08    1.73
  -1   3   8   37.73    1.89
   0  -3  -8   56.99    2.51
   0   3   8   66.47    2.74
   0   3   8   60.89    2.46
  -1  -3  -8    5.89    0.73
   1   3   8    4.22    0.51
   1   3   8    5.82    0.93
  -2  -3  -8    5.62    0.76
   2   3   8    5.78    1.05
  -3  -3  -8   21.94    1.39
   3   3   8   21.71    1.89
  -4  -3  -8   10.93    1.17
   4   3   8    9.61    1.58
  -6   4   8   13.68    1.12
  -5   4   8   19.24    1.30
  -4   4   8    5.44    0.73
  -3   4   8   16.66    1.09
   2  -4  -8   23.39    1.71
  -2   4   8   21.12    1.22
  -2   4   8   22.16    1.36
   1  -4  -8   22.04    1.25
  -1   4   8   25.88    1.51
  -1   4   8   22.52    1.25
   0  -4  -8    6.10    0.69
   0   4   8    7.53    0.71
   0   4   8    7.30    0.93
  -1  -4  -8    6.99    0.79
   1   4   8    8.88    1.14
  -2  -4  -8   25.85    1.48
   2   4   8   26.49    1.89
  -3  -4  -8   19.48    1.32
   3   4   8   21.67    1.89
  -4  -4  -8    3.02    0.71
   4   4   8    3.28    1.52
   6  -5  -8   15.83    1.15
  -5   5   8    2.88    0.61
  -4   5   8    6.14    0.78
  -3   5   8   36.90    1.81
  -2   5   8   23.25    1.50
  -2   5   8   24.34    1.33
  -1   5   8   10.52    1.07
   0  -5  -8   15.66    0.97
   0   5   8   17.24    1.33
   1   5   8   23.99    1.64
   2   5   8   26.22    1.93
  -3  -5  -8    1.24    0.71
   3   5   8    0.81    0.92
   6  -6  -8    1.19    0.53
   5  -6  -8    1.55    0.49
   4  -6  -8   23.65    1.42
   3  -6  -8   28.03    1.52
   2  -6  -8    7.53    0.81
  -2   6   8    7.68    1.03
   1  -6  -8    1.85    0.47
  -1   6   8    1.65    0.63
   0  -6  -8   26.54    1.42
   0   6   8   28.63    1.79
   1   6   8   25.67    1.80
   2   6   8   10.77    1.43
   5  -7  -8   15.00    1.22
   4  -7  -8   24.80    1.49
   3  -7  -8    2.97    0.58
   2  -7  -8    0.40    0.39
  -2   7   8    0.58    0.54
   1  -7  -8   15.96    1.10
  -1   7   8   16.38    1.45
   0  -7  -8   21.16    1.28
   0   7   8   24.16    1.71
   1   7   8   13.90    1.39
   2   7   8    0.19    0.73
   4  -8  -8   10.00    1.06
   3  -8  -8    2.38    0.60
  -3   8   8    3.25    1.32
   2  -8  -8    7.70    0.92
  -2   8   8    6.73    1.12
   1  -8  -8   13.16    1.08
  -1   8   8   20.14    1.60
   0   8   8    6.02    1.07
   1   8   8    0.82    0.71
   3  -9  -8    8.45    1.08
  -3   9   8    6.27    1.46
   2  -9  -8   14.65    1.18
  -2   9   8   10.91    1.46
   1  -9  -8    3.63    0.67
  -1   9   8    4.35    1.00
   0   9   8    2.34    0.84
   1 -14   9    7.30    0.95
   2 -14   9    2.04    0.67
   3 -14   9   16.04    1.30
  -2 -13   9   16.49    1.74
  -1 -13   9   14.07    1.15
   0 -13   9    8.54    0.96
   1 -13   9    1.77    0.59
   2 -13   9   21.90    1.45
   3 -13   9   15.79    1.24
   4 -13   9    3.48    0.68
  -3 -12   9   15.28    1.11
  -2 -12   9   21.99    1.35
  -1 -12   9    6.43    0.81
   0 -12   9    0.22    0.41
   1 -12   9   15.98    1.19
   2 -12   9   19.83    1.30
   3 -12   9    9.16    0.92
  -4  12  -9   -0.96    0.55
  -5  12  -9    3.28    0.91
  -3 -11   9   29.55    1.58
  -2 -11   9   12.39    0.97
  -1 -11   9    0.12    0.36
   0 -11   9   27.01    1.48
   1 -11   9   31.31    1.62
   2 -11   9    7.86    0.84
   3 -11   9    0.29    0.40
  -4  11  -9    8.50    1.15
  -5  11  -9    9.86    1.31
   4  10  -9   22.95    1.37
  -4 -10   9   20.90    1.45
   3  10  -9    9.74    0.85
  -3 -10   9   10.87    0.86
   2  10  -9    0.56    0.34
  -2 -10   9   -0.06    0.30
   1  10  -9   19.96    1.20
  -1 -10   9   21.06    1.22
   0  10  -9   41.01    1.99
   0 -10   9   36.99    1.81
   1 -10   9   17.58    1.11
   2 -10   9   -0.30    0.33
  -3  10  -9   22.42    1.57
   3 -10   9   22.45    1.27
  -4  10  -9   14.59    1.30
  -5  10  -9    7.41    1.19
   4   9  -9   12.01    0.96
  -4  -9   9   12.76    1.20
   3   9  -9    0.01    0.24
  -3  -9   9   -0.72    0.36
  -3  -9   9    0.10    0.27
   2   9  -9   19.13    1.11
  -2  -9   9   17.31    1.08
   1   9  -9   36.48    1.72
  -1  -9   9   35.39    1.69
   0   9  -9   26.18    1.50
   0  -9   9   26.37    1.37
  -1   9  -9    0.89    0.54
   1  -9   9    0.32    0.34
  -2   9  -9   21.61    1.46
   2  -9   9   25.33    1.27
  -3   9  -9   47.16    2.18
  -3   9  -9   45.04    2.20
   3  -9   9   44.39    1.97
  -4   9  -9   15.84    1.78
  -4   9  -9   15.46    1.27
  -5   9  -9   -0.49    0.61
  -5  -8   9   12.11    1.60
   4   8  -9    0.44    0.30
  -4  -8   9    0.35    0.32
  -4  -8   9   -0.35    0.44
   3   8  -9   24.99    1.36
  -3  -8   9   25.35    1.34
  -3  -8   9   25.33    1.43
   2   8  -9   63.93    2.64
  -2  -8   9   63.45    2.61
   1   8  -9   20.32    1.16
  -1  -8   9   20.60    1.13
   0   8  -9    0.57    0.41
   0  -8   9    0.24    0.32
  -1   8  -9   21.52    1.35
   1  -8   9   18.63    1.09
  -2   8  -9   41.18    2.14
   2  -8   9   47.55    1.94
  -3   8  -9   23.08    1.41
  -3   8  -9   22.16    1.43
   3  -8   9   23.81    1.22
  -4   8  -9    3.97    0.85
  -4   8  -9    3.72    0.71
  -5   8  -9    5.14    0.82
  -5   8  -9    5.86    1.15
  -6   8  -9    8.16    1.62
  -6   8  -9   13.97    1.25
   5   7  -9    0.86    0.40
  -5  -7   9    1.76    0.60
   4   7  -9   15.60    1.05
  -4  -7   9   13.32    1.10
  -4  -7   9   15.81    1.03
   3   7  -9   59.55    2.56
  -3  -7   9   61.33    2.61
  -3  -7   9   60.73    2.52
   2   7  -9   41.03    1.86
  -2  -7   9   41.08    1.82
   1   7  -9    0.43    0.29
  -1  -7   9    0.51    0.29
   0   7  -9   13.85    1.01
   0  -7   9   12.58    0.83
  -1   7  -9   46.99    2.17
   1  -7   9   43.42    1.90
  -2   7  -9   18.72    1.27
  -2   7  -9   17.69    1.31
   2  -7   9   20.53    1.07
  -3   7  -9    5.17    0.78
  -3   7  -9    4.49    0.76
   3  -7   9    5.33    0.57
  -4   7  -9    5.91    0.98
  -4   7  -9    9.07    1.01
  -5   7  -9   16.24    1.61
  -5   7  -9   21.84    1.44
  -6   7  -9    8.91    1.10
   5   6  -9   14.13    1.04
  -5  -6   9   13.91    1.15
   4   6  -9   31.52    1.58
  -4  -6   9   28.49    1.59
  -4  -6   9   29.49    1.53
   3   6  -9   66.37    2.74
  -3  -6   9   65.19    2.69
  -3  -6   9   66.25    2.76
   2   6  -9    9.12    0.72
  -2  -6   9   10.37    0.74
   1   6  -9   40.60    1.81
  -1  -6   9   38.66    1.72
   0   6  -9  111.03    4.27
   0  -6   9  108.84    4.06
  -1   6  -9   33.11    1.77
   1  -6   9   35.57    1.54
  -2   6  -9    0.28    0.50
  -2   6  -9    1.02    0.40
   2  -6   9    0.55    0.30
  -3   6  -9    3.98    0.73
  -3   6  -9    3.40    0.67
  -4   6  -9   25.45    1.56
  -4   6  -9   25.76    1.69
  -5   6  -9   19.46    1.43
  -6   6  -9    1.75    0.67
   5   5  -9   21.97    1.33
  -5  -5   9   23.48    1.42
   4   5  -9   14.40    1.02
  -4  -5   9   16.40    1.13
  -4  -5   9   16.17    1.04
   3   5  -9   10.89    0.81
  -3  -5   9   11.29    0.82
  -3  -5   9   12.32    0.90
   2   5  -9   18.15    1.03
  -2  -5   9   16.85    0.99
   1   5  -9   68.03    2.79
  -1  -5   9   69.94    2.71
   0   5  -9   74.67    3.12
   0  -5   9   78.53    2.95
  -1   5  -9    0.96    0.50
   1  -5   9    1.06    0.30
  -2   5  -9    5.95    0.84
   2  -5   9    6.89    0.60
  -3   5  -9   60.56    2.72
  -4   5  -9   27.11    1.65
  -5   5  -9    4.30    0.83
  -6  -4   9   31.95    2.27
   5   4  -9   12.76    0.98
  -5  -4   9   13.62    1.17
  -5  -4   9   11.71    1.03
   4   4  -9    2.21    0.44
  -4  -4   9    2.69    0.50
  -4  -4   9    2.65    0.57
   3   4  -9    1.94    0.40
  -3  -4   9    2.03    0.44
   2   4  -9   40.62    1.85
  -2  -4   9   43.73    1.86
   1   4  -9   56.08    2.39
  -1  -4   9   57.30    2.30
   0   4  -9   10.75    0.88
   0  -4   9    9.91    0.70
  -1   4  -9   25.74    1.45
   1  -4   9   24.81    1.19
  -2   4  -9   45.41    2.24
   2  -4   9   49.87    1.95
  -3   4  -9   33.44    1.82
  -4   4  -9    4.39    0.81
  -5   4  -9    0.90    0.57
   6   3  -9   27.63    1.57
  -6  -3   9   25.43    1.59
   5   3  -9    1.71    0.46
  -5  -3   9    0.72    0.36
  -5  -3   9    0.53    0.47
   4   3  -9   18.66    1.11
  -4  -3   9   15.76    1.10
  -4  -3   9   18.40    1.16
   3   3  -9  126.99    4.74
  -3  -3   9  125.48    4.74
   2   3  -9   74.19    2.91
  -2  -3   9   71.46    2.88
   1   3  -9   28.18    1.47
  -1  -3   9   31.41    1.41
   0   3  -9   12.18    0.91
   0  -3   9    9.95    0.71
  -1   3  -9   44.57    2.10
   1  -3   9   45.56    1.86
  -2   3  -9   75.12    3.22
   2  -3   9   79.98    2.95
  -3   3  -9   10.99    1.13
  -4   3  -9    2.42    0.66
  -5   3  -9    9.61    1.16
   6   2  -9    4.27    0.71
  -6  -2   9    3.91    0.74
   5   2  -9    4.06    0.64
  -5  -2   9    4.94    0.75
  -5  -2   9    4.92    0.69
   4   2  -9   40.06    1.86
  -4  -2   9   38.34    1.86
  -4  -2   9   40.46    1.89
   3   2  -9   75.63    2.96
  -3  -2   9   70.99    2.97
   2   2  -9   18.40    1.05
  -2  -2   9   19.16    1.07
   1   2  -9    3.69    0.61
  -1  -2   9    2.66    0.44
   0   2  -9   83.41    3.29
   0  -2   9   79.70    3.12
  -1   2  -9   63.36    2.74
   1  -2   9   64.90    2.52
  -2   2  -9   16.23    1.22
   2  -2   9   20.36    1.14
  -3   2  -9    3.01    0.70
  -4   2  -9   20.93    1.43
  -5   2  -9   18.60    1.45
   6   1  -9    1.13    0.44
  -6  -1   9    1.29    0.57
   5   1  -9   18.89    1.18
  -5  -1   9   17.69    1.18
  -5  -1   9   16.92    1.19
   4   1  -9   53.34    2.32
  -4  -1   9   53.51    2.35
  -4  -1   9   52.96    2.33
   3   1  -9   16.56    1.01
  -3  -1   9   16.69    1.04
   2   1  -9    0.36    0.31
  -2  -1   9    0.28    0.26
   1   1  -9   81.40    3.28
  -1  -1   9   83.20    3.19
   0   1  -9   32.60    1.63
   0  -1   9   33.01    1.50
  -1   1  -9   12.59    1.03
   1  -1   9   14.70    0.84
  -2   1  -9    0.17    0.47
  -3   1  -9   27.92    1.63
  -4   1  -9   21.95    1.48
  -5   1  -9    8.32    1.06
   6   0  -9   22.54    1.34
  -6   0   9   18.30    1.30
   5   0  -9   29.78    1.58
  -5   0   9   30.48    1.62
  -5   0   9   29.12    1.59
   4   0  -9   15.73    1.04
  -4   0   9   15.58    1.06
   3   0  -9    0.63    0.36
  -3   0   9    1.31    0.39
   2   0  -9   41.86    1.94
  -2   0   9   44.47    1.92
   1   0  -9   94.64    3.73
  -1   0   9   96.69    3.65
   0   0  -9   19.12    1.20
   0   0   9   19.59    1.04
  -1   0  -9   -0.35    0.38
   1   0   9   -0.10    0.21
   1   0   9    0.20    0.46
  -2   0  -9   28.59    1.60
  -3   0  -9   52.60    2.47
  -4   0  -9    7.93    1.06
  -5   0  -9   -0.23    0.65
   6  -1  -9   21.84    1.32
  -6   1   9   18.06    1.29
   5  -1  -9   10.82    0.94
  -5   1   9   10.59    0.96
  -5   1   9   11.16    1.04
   4  -1  -9    2.49    0.53
  -4   1   9    1.93    0.48
   3  -1  -9   25.93    1.34
  -3   1   9   23.97    1.34
   2  -1  -9   88.26    3.59
  -2   1   9   95.27    3.58
   1  -1  -9    8.95    0.89
  -1   1   9    9.67    0.74
   0  -1  -9    1.45    0.50
   0   1   9    1.72    0.38
   0   1   9    2.19    0.69
  -1  -1  -9   15.95    1.15
   1   1   9   16.90    1.23
   1   1   9   17.80    0.94
  -2  -1  -9   49.37    2.30
   2   1   9   49.47    2.52
  -3  -1  -9    9.22    1.06
  -4  -1  -9   -0.22    0.46
   6  -2  -9    6.95    0.84
  -6   2   9    6.70    0.85
  -6   2   9    7.56    0.99
   5  -2  -9    0.44    0.41
  -5   2   9    0.79    0.41
   4  -2  -9   36.40    1.69
  -4   2   9   30.02    1.66
   3  -2  -9   83.25    3.30
  -3   2   9   82.10    3.32
   2  -2  -9   50.58    2.25
  -2   2   9   51.41    2.21
   1  -2  -9    0.25    0.39
  -1   2   9    0.29    0.31
   0  -2  -9   18.70    1.20
   0   2   9   20.88    1.11
   0   2   9   19.95    1.22
  -1  -2  -9   37.42    1.87
   1   2   9   38.22    1.68
   1   2   9   40.52    2.04
  -2  -2  -9   44.49    2.10
   2   2   9   41.22    2.32
  -3  -2  -9    0.46    0.50
   3   2   9   -0.33    0.74
  -4  -2  -9    4.63    0.80
  -6   3   9    0.51    0.50
  -5   3   9    8.72    0.95
   4  -3  -9   32.03    1.68
  -4   3   9   31.82    1.68
   3  -3  -9   37.22    1.80
  -3   3   9   36.48    1.79
   2  -3  -9    0.16    0.41
  -2   3   9    1.00    0.36
   1  -3  -9   19.78    1.16
  -1   3   9   18.26    1.10
   0  -3  -9   41.32    1.95
   0   3   9   41.55    1.88
   0   3   9   44.73    2.10
  -1  -3  -9   33.44    1.71
   1   3   9   34.42    1.94
  -2  -3  -9    0.93    0.49
   2   3   9    2.33    0.83
  -3  -3  -9    3.88    0.73
   3   3   9    2.40    0.97
  -4  -3  -9   13.85    1.24
   4   3   9   11.06    1.77
  -6   4   9    4.49    0.78
  -5   4   9   12.97    1.10
  -4   4   9   18.12    1.24
  -3   4   9    2.45    0.51
  -2   4   9   15.36    1.06
  -1   4   9   35.05    1.70
   0  -4  -9    1.96    0.52
   0   4   9    1.51    0.57
   0   4   9    1.59    0.43
  -1  -4  -9    1.18    0.46
   1   4   9    1.32    0.63
  -2  -4  -9    7.15    0.90
   2   4   9    7.97    1.25
  -3  -4  -9   10.39    1.12
   3   4   9   11.27    1.56
  -5   5   9    8.21    0.94
  -4   5   9    2.18    0.56
  -3   5   9    5.68    0.75
  -2   5   9   39.02    1.89
  -1   5   9   38.75    2.23
   0  -5  -9    2.83    0.50
   0   5   9    4.31    0.81
   1   5   9    9.65    1.20
   2   5   9   19.91    1.75
   3   5   9    6.37    1.36
   5  -6  -9    1.36    0.51
   4  -6  -9    6.86    0.85
   3  -6  -9   21.37    1.30
   2  -6  -9   29.50    1.57
   1  -6  -9    1.22    0.40
  -1   6   9    2.00    0.66
   0  -6  -9    1.65    0.43
   0   6   9    1.33    0.66
   1   6   9   23.91    1.72
   2   6   9   17.44    1.68
   4  -7  -9   14.87    1.18
   3  -7  -9   12.21    1.03
   2  -7  -9    2.62    0.60
   1  -7  -9    1.40    0.47
  -1   7   9    1.94    0.72
   0   7   9   13.37    1.36
   1   7   9   19.23    1.63
   3  -8  -9    3.18    0.67
   2  -8  -9    2.31    0.59
   1  -8  -9    3.99    0.71
  -1   8   9    6.38    1.07
   0   8   9   15.84    1.55
  -1 -13  10   20.81    1.40
   0 -13  10   26.88    1.61
   1 -13  10    1.82    0.58
   2 -13  10    1.53    0.56
   3 -13  10   14.96    1.18
  -2 -12  10   23.50    1.43
  -1 -12  10   24.75    1.47
   0 -12  10    7.13    0.89
   1 -12  10    3.62    0.66
   2 -12  10   12.49    1.04
   3 -12  10   16.84    1.17
  -3 -11  10   19.97    1.28
  -2 -11  10   19.79    1.25
  -1 -11  10   11.27    0.97
   0 -11  10   10.35    0.99
   1 -11  10   23.15    1.37
   2 -11  10   28.26    1.52
   3 -11  10    3.84    0.63
   4  10 -10   16.45    1.20
   3  10 -10   28.16    1.60
  -3 -10  10   32.06    1.60
   2  10 -10   11.56    0.94
  -2 -10  10   11.97    0.93
   1  10 -10   -0.03    0.38
  -1 -10  10   -0.05    0.33
   0  10 -10   32.43    1.83
   0 -10  10   34.35    1.68
  -1  10 -10   40.74    2.12
   1 -10  10   39.35    1.87
   2 -10  10   11.44    0.92
   3 -10  10    5.94    0.71
  -5  10 -10    9.02    1.65
   4   9 -10   27.16    1.53
  -4  -9  10   24.90    1.60
  -4  -9  10   25.98    1.48
   3   9 -10    3.15    0.60
  -3  -9  10    2.85    0.53
   2   9 -10    1.62    0.44
  -2  -9  10    1.52    0.41
   1   9 -10   22.87    1.34
  -1  -9  10   21.30    1.24
   0   9 -10   37.14    1.93
   0  -9  10   34.65    1.69
  -1   9 -10   26.21    1.62
   1  -9  10   25.60    1.37
  -2   9 -10    0.67    0.58
   2  -9  10    0.57    0.40
  -3   9 -10   25.09    1.57
   3  -9  10   23.78    1.31
  -4   9 -10   19.59    1.43
  -5   9 -10    6.95    1.21
   4   8 -10   10.32    0.91
  -4  -8  10   11.04    1.10
  -4  -8  10   10.71    0.89
   3   8 -10    8.24    0.85
  -3  -8  10    7.69    0.78
   2   8 -10   31.92    1.62
  -2  -8  10   31.84    1.57
   1   8 -10   59.15    2.57
  -1  -8  10   58.12    2.45
   0   8 -10   36.91    1.93
   0  -8  10   38.13    1.74
  -1   8 -10   -0.12    0.49
   1  -8  10   -0.07    0.33
  -2   8 -10   23.18    1.63
   2  -8  10   28.94    1.37
  -3   8 -10   33.71    1.91
  -4   8 -10   15.02    1.51
  -4   8 -10   17.77    1.35
  -5   8 -10    0.63    0.58
  -5   8 -10   -0.47    0.75
   5   7 -10   16.84    1.37
  -5  -7  10   17.27    1.39
   4   7 -10    0.33    0.32
  -4  -7  10   -0.53    0.42
  -4  -7  10    0.35    0.31
   3   7 -10   35.56    1.73
  -3  -7  10   32.23    1.64
   2   7 -10   63.27    2.69
  -2  -7  10   64.51    2.64
   1   7 -10   29.35    1.55
  -1  -7  10   28.89    1.43
   0   7 -10    0.48    0.47
   0  -7  10    0.14    0.29
  -1   7 -10   22.56    1.44
   1  -7  10   19.48    1.13
  -2   7 -10   33.20    2.00
   2  -7  10   41.63    1.73
  -3   7 -10   20.01    1.47
  -4   7 -10    0.89    0.69
  -4   7 -10    1.69    0.64
  -5   7 -10    5.57    0.93
   5   6 -10    0.08    0.33
   4   6 -10   21.74    1.30
  -4  -6  10   21.02    1.35
  -4  -6  10   21.31    1.27
   3   6 -10   45.91    2.09
  -3  -6  10   44.73    2.05
   2   6 -10   33.10    1.64
  -2  -6  10   33.86    1.60
   1   6 -10    3.17    0.59
  -1  -6  10    2.67    0.45
   0   6 -10   39.53    1.94
   0  -6  10   37.13    1.69
  -1   6 -10   62.47    2.75
   1  -6  10   60.54    2.46
  -2   6 -10   19.78    1.42
   2  -6  10   21.32    1.10
  -3   6 -10    0.50    0.61
  -4   6 -10   10.74    1.17
  -5   6 -10   24.61    1.69
   5   5 -10   11.91    0.99
  -5  -5  10   13.47    1.32
  -5  -5  10   11.02    1.11
   4   5 -10   44.69    2.10
  -4  -5  10   44.39    2.14
  -4  -5  10   44.87    2.09
   3   5 -10   64.53    2.70
  -3  -5  10   62.50    2.66
   2   5 -10    4.64    0.61
  -2  -5  10    4.08    0.56
   1   5 -10   17.34    1.12
  -1  -5  10   17.07    1.00
   0   5 -10   77.02    3.18
   0  -5  10   74.74    2.96
  -1   5 -10   51.52    2.32
   1  -5  10   45.86    2.01
  -2   5 -10    1.71    0.64
   2  -5  10    1.45    0.36
  -3   5 -10    7.37    0.98
  -4   5 -10   26.55    1.71
  -5   5 -10   20.91    1.60
   5   4 -10   25.27    1.50
  -5  -4  10   25.25    1.49
  -5  -4  10   26.93    1.58
   4   4 -10   18.81    1.18
  -4  -4  10   18.61    1.19
  -4  -4  10   17.78    1.23
   3   4 -10    3.13    0.55
  -3  -4  10    2.51    0.49
   2   4 -10   19.63    1.15
  -2  -4  10   19.74    1.13
   1   4 -10   53.60    2.39
  -1  -4  10   54.21    2.26
   0   4 -10   73.59    3.06
   0  -4  10   72.08    2.86
  -1   4 -10    3.03    0.65
   1  -4  10    3.27    0.48
  -2   4 -10    8.69    1.04
   2  -4  10    9.16    0.69
  -3   4 -10   25.21    1.63
  -4   4 -10   22.65    1.56
  -5   4 -10    4.36    0.90
   5   3 -10   24.55    1.42
  -5  -3  10   24.03    1.44
  -5  -3  10   22.51    1.45
   4   3 -10    9.19    0.85
  -4  -3  10    9.78    0.94
   3   3 -10   35.88    1.76
  -3  -3  10   37.84    1.79
   2   3 -10   78.76    3.14
  -2  -3  10   76.21    3.10
   1   3 -10   67.96    2.92
  -1  -3  10   71.93    2.82
   0   3 -10    3.85    0.68
   0  -3  10    4.36    0.55
  -1   3 -10   36.33    1.85
   1  -3  10   35.76    1.62
  -2   3 -10   38.17    1.97
  -3   3 -10   27.56    1.69
  -4   3 -10    8.96    1.11
  -5   3 -10    2.65    0.79
   6   2 -10   22.66    1.46
  -6  -2  10   23.75    1.53
   5   2 -10    8.15    0.91
  -5  -2  10    8.08    0.91
  -5  -2  10    7.01    0.87
   4   2 -10   10.60    0.89
  -4  -2  10   11.68    0.94
   3   2 -10   54.44    2.36
  -3  -2  10   53.76    2.37
   2   2 -10   69.70    2.90
  -2  -2  10   70.35    2.87
   1   2 -10   48.58    2.28
  -1  -2  10   53.68    2.22
   0   2 -10   24.03    1.40
   0  -2  10   21.72    1.19
  -1   2 -10   35.33    1.83
   1  -2  10   34.22    1.57
  -2   2 -10   25.51    1.57
  -3   2 -10   10.03    1.10
  -4   2 -10    0.79    0.59
   6   1 -10    0.28    0.41
  -6  -1  10   -0.05    0.51
   5   1 -10    3.71    0.65
  -5  -1  10    3.89    0.64
  -5  -1  10    2.85    0.64
   4   1 -10   38.80    1.85
  -4  -1  10   35.94    1.83
   3   1 -10   38.90    1.85
  -3  -1  10   38.86    1.85
   2   1 -10   19.71    1.22
  -2  -1  10   18.63    1.12
   1   1 -10    1.03    0.47
  -1  -1  10    1.25    0.37
   0   1 -10   85.73    3.45
   0  -1  10   85.58    3.31
  -1   1 -10   29.39    1.65
   1  -1  10   30.82    1.42
  -2   1 -10    2.49    0.69
  -3   1 -10    2.66    0.71
  -4   1 -10   17.40    1.42
   6   0 -10    4.95    0.76
  -6   0  10    3.06    0.69
   5   0 -10   27.08    1.54
  -5   0  10   27.39    1.56
   4   0 -10   37.27    1.79
  -4   0  10   33.14    1.76
   3   0 -10   10.83    1.01
  -3   0  10    9.01    0.87
   2   0 -10    0.07    0.39
  -2   0  10    0.71    0.35
   1   0 -10   73.15    3.01
  -1   0  10   70.59    2.88
   0   0 -10   56.58    2.48
   0   0  10   55.56    2.32
  -1   0 -10   11.81    1.14
   1   0  10   11.69    0.80
  -2   0 -10    0.55    0.52
  -3   0 -10   16.81    1.33
  -4   0 -10   15.78    1.34
   6  -1 -10   16.45    1.20
  -6   1  10   14.36    1.22
   5  -1 -10   28.52    1.59
  -5   1  10   27.54    1.59
   4  -1 -10    4.93    0.71
  -4   1  10    3.22    0.60
   3  -1 -10   16.47    1.14
  -3   1  10   16.70    1.10
   2  -1 -10   12.52    1.13
  -2   1  10   10.41    0.84
   1  -1 -10   85.61    3.46
  -1   1  10   86.08    3.37
   0  -1 -10   25.07    1.45
   0   1  10   23.84    1.27
  -1  -1 -10    1.17    0.50
   1   1  10    0.70    0.33
  -2  -1 -10   24.24    1.52
   2   1  10   24.13    1.75
  -3  -1 -10   27.40    1.71
  -4  -1 -10    5.03    0.91
  -6   2  10   18.83    1.36
   5  -2 -10   13.18    1.06
  -5   2  10   12.35    1.08
   4  -2 -10    3.13    0.64
  -4   2  10    2.60    0.55
   3  -2 -10   29.27    1.67
  -3   2  10   33.96    1.66
   2  -2 -10   43.34    2.06
  -2   2  10   43.45    1.99
   1  -2 -10   17.17    1.17
  -1   2  10   19.65    1.12
   0  -2 -10    5.87    0.80
   0   2  10    4.71    0.61
  -1  -2 -10   16.15    1.20
  -2  -2 -10   40.85    2.07
   2   2  10   40.35    2.30
  -3  -2 -10   10.86    1.20
   3   2  10    9.81    1.49
  -4  -2 -10    0.23    0.64
   4   2  10   -1.12    0.90
  -6   3  10    6.79    0.91
  -5   3  10    0.17    0.43
  -4   3  10   32.47    1.74
   3  -3 -10   22.31    1.76
  -3   3  10   23.56    1.37
   2  -3 -10   41.07    1.95
  -2   3  10   39.63    1.91
   1  -3 -10    2.09    0.57
  -1   3  10    2.70    0.51
   0  -3 -10    7.25    0.85
   0   3  10    6.38    0.73
  -1  -3 -10   11.45    1.03
   1   3  10   12.60    1.26
  -2  -3 -10   20.73    1.37
   2   3  10   16.52    1.58
  -3  -3 -10    0.39    0.51
   3   3  10   -0.26    0.81
  -5   4  10    8.93    1.02
  -4   4  10   23.54    1.47
  -3   4  10   13.61    1.07
  -2   4  10    0.73    0.46
  -1   4  10   35.42    1.77
   0   4  10   17.99    1.14
   1   4  10    8.80    1.14
  -2  -4 -10    0.80    0.49
   2   4  10    1.01    0.78
  -3  -4 -10    2.43    0.68
   3   4  10    1.09    0.98
  -5   5  10   18.02    1.36
  -4   5  10    6.18    0.87
  -3   5  10    0.34    0.41
  -2   5  10   12.89    1.05
   0  -5 -10    7.90    0.81
   1   5  10    1.13    0.66
   2   5  10    9.13    1.34
   4  -6 -10    0.36    0.41
   3  -6 -10    4.59    0.68
   2  -6 -10   23.70    1.40
   1  -6 -10   14.36    1.05
   1   6  10    5.45    1.01
   3  -7 -10   14.47    1.17
   2  -7 -10   12.58    1.08
   1  -7 -10    0.18    0.36
   1  -8 -10    0.06    0.45
   0 -13  11   36.11    1.97
   1 -13  11   11.98    1.12
   2 -13  11    1.87    0.62
   3 -13  11    3.68    0.70
  -2 -12  11    7.78    0.99
  -1 -12  11   20.07    1.34
   0 -12  11   14.74    1.16
   1 -12  11    2.07    0.56
   2 -12  11    0.46    0.46
   3 -12  11   19.45    1.30
   3  11 -11    7.66    0.95
  -3 -11  11    6.73    0.84
   2  11 -11   23.64    1.56
  -2 -11  11   26.38    1.48
  -1 -11  11   40.05    1.97
   0 -11  11    1.33    0.50
   1 -11  11    4.87    0.71
   2 -11  11   22.87    1.39
   3 -11  11   11.57    0.98
   3  10 -11   33.62    1.80
  -3 -10  11   33.58    1.76
   2  10 -11   25.57    1.54
  -2 -10  11   28.35    1.51
   1  10 -11    6.34    0.90
  -1 -10  11    6.71    0.78
   0  10 -11    3.67    0.80
   0 -10  11    4.76    0.68
  -1  10 -11   19.22    1.50
   1 -10  11   21.79    1.28
   2 -10  11   41.50    1.95
   3 -10  11    4.44    0.66
   4   9 -11   20.99    1.39
  -4  -9  11   21.12    1.33
   3   9 -11   18.75    1.25
  -3  -9  11   18.68    1.21
   2   9 -11    8.16    0.89
  -2  -9  11    8.66    0.88
   1   9 -11    3.23    0.68
  -1  -9  11    3.29    0.57
   0   9 -11   28.59    1.71
   0  -9  11   28.22    1.50
  -1   9 -11   36.77    2.04
   1  -9  11   36.79    1.78
  -2   9 -11    6.34    0.99
   2  -9  11   10.28    0.84
  -3   9 -11    2.51    0.74
  -4   9 -11   14.83    1.36
  -5   9 -11   10.50    1.31
   4   8 -11   36.06    1.88
  -4  -8  11   34.31    1.82
   3   8 -11    6.88    0.86
  -3  -8  11    6.66    0.77
   2   8 -11    3.60    0.63
  -2  -8  11    3.00    0.54
   1   8 -11   46.46    2.25
  -1  -8  11   46.29    2.08
   0   8 -11   41.86    2.12
   0  -8  11   40.34    1.88
  -1   8 -11   15.08    1.32
   1  -8  11   15.83    1.02
  -2   8 -11    1.23    0.68
   2  -8  11    1.10    0.44
  -3   8 -11   22.81    1.67
  -4   8 -11   17.75    1.49
  -5   8 -11    9.92    1.27
   4   7 -11    7.02    0.86
  -4  -7  11    6.21    0.80
   3   7 -11    0.00    0.33
  -3  -7  11    0.70    0.35
   2   7 -11   37.18    1.85
  -2  -7  11   35.73    1.75
   1   7 -11   63.23    2.81
  -1  -7  11   63.84    2.64
   0   7 -11   17.84    1.34
   0  -7  11   19.05    1.11
  -1   7 -11   -0.42    0.50
   1  -7  11    0.18    0.29
  -2   7 -11   19.60    1.52
   2  -7  11   21.04    1.17
  -3   7 -11   25.70    1.70
  -4   7 -11    3.81    0.84
  -5   7 -11    0.89    0.70
  -5  -6  11   16.31    1.86
   4   6 -11    1.44    0.48
  -4  -6  11    1.14    0.40
   3   6 -11   20.82    1.29
  -3  -6  11   20.11    1.23
   2   6 -11   63.62    2.71
  -2  -6  11   60.78    2.61
   1   6 -11   34.74    1.85
  -1  -6  11   36.04    1.69
   0   6 -11    0.54    0.48
   0  -6  11   -0.03    0.28
  -1   6 -11   24.04    1.54
   1  -6  11   20.83    1.19
  -2   6 -11   57.09    2.74
   2  -6  11   57.84    2.39
  -3   6 -11    1.41    0.68
  -4   6 -11    0.83    0.62
  -5   6 -11    5.73    1.04
   5   5 -11   -0.72    0.29
  -5  -5  11    0.37    0.36
  -5  -5  11    0.08    0.54
   4   5 -11   16.87    1.19
  -4  -5  11   17.15    1.16
   3   5 -11   43.95    2.08
  -3  -5  11   43.45    2.05
   2   5 -11   23.52    1.35
  -2  -5  11   21.50    1.25
   1   5 -11   -0.39    0.35
  -1  -5  11    0.21    0.30
   0   5 -11    8.69    0.97
   0  -5  11    8.42    0.82
  -1   5 -11   67.22    2.90
   1  -5  11   60.80    2.58
  -2   5 -11   43.64    2.34
   2  -5  11   51.26    2.07
  -3   5 -11   -0.48    0.55
  -4   5 -11    6.33    1.01
  -5   5 -11   12.71    2.11
   5   4 -11   17.59    1.27
  -5  -4  11   17.73    1.26
   4   4 -11   37.82    1.90
  -4  -4  11   37.46    1.92
   3   4 -11   16.31    1.11
  -3  -4  11   15.51    1.08
   2   4 -11    1.13    0.46
  -2  -4  11    1.30    0.41
   1   4 -11   20.17    1.33
  -1  -4  11   19.77    1.14
   0   4 -11   24.32    1.48
   0  -4  11   24.08    1.29
  -1   4 -11   48.91    2.35
   1  -4  11   47.77    2.08
  -2   4 -11    1.64    0.66
  -3   4 -11    3.51    0.79
  -4   4 -11   18.95    1.54
   5   3 -11   36.48    1.91
  -5  -3  11   37.09    1.94
   4   3 -11   37.48    1.90
  -4  -3  11   37.99    1.90
   3   3 -11    0.60    0.40
  -3  -3  11    0.67    0.39
   2   3 -11   38.25    1.91
  -2  -3  11   38.17    1.83
   1   3 -11   55.08    2.57
  -1  -3  11   59.40    2.45
   0   3 -11   28.63    1.64
   0  -3  11   29.20    1.47
  -1   3 -11    9.73    1.08
   1  -3  11    7.87    0.76
  -2   3 -11   11.03    1.17
  -3   3 -11   23.70    1.61
  -4   3 -11   16.20    1.44
   5   2 -11   23.22    1.43
  -5  -2  11   22.28    1.43
   4   2 -11    3.96    0.66
  -4  -2  11    4.28    0.68
   3   2 -11   15.53    1.12
  -3  -2  11   15.71    1.08
   2   2 -11   77.63    3.38
  -2  -2  11   86.71    3.34
   1   2 -11   38.90    1.95
  -1  -2  11   37.36    1.79
   0   2 -11   18.98    1.30
   0  -2  11   17.54    1.09
  -1   2 -11   14.43    1.23
   1  -2  11   12.80    0.87
  -2   2 -11   17.28    1.32
  -3   2 -11   19.84    1.50
  -4   2 -11    2.84    0.78
   5   1 -11    2.03    0.59
  -5  -1  11    1.81    0.55
   4   1 -11    4.47    0.71
  -4  -1  11    4.24    0.68
   3   1 -11   37.82    1.89
  -3  -1  11   37.01    1.84
   2   1 -11   52.32    2.44
  -2  -1  11   54.09    2.35
   1   1 -11    1.31    0.54
  -1  -1  11    0.70    0.35
   0   1 -11    4.56    0.78
   0  -1  11    5.28    0.63
  -1   1 -11   31.47    1.75
   1  -1  11   30.18    1.47
  -2   1 -11   14.85    1.28
  -3   1 -11    1.51    0.65
  -4   1 -11    1.50    0.73
   6   0 -11    0.28    0.49
  -6   0  11    1.25    0.55
   5   0 -11    3.15    0.66
  -5   0  11    5.29    0.77
   4   0 -11   20.71    1.37
  -4   0  11   23.01    1.38
   3   0 -11   28.90    1.68
  -3   0  11   32.61    1.64
   2   0 -11    3.51    0.68
  -2   0  11    3.62    0.58
   1   0 -11    1.09    0.54
  -1   0  11    0.63    0.35
   0   0 -11   47.33    2.26
   0   0  11   48.78    2.10
  -1   0 -11   27.95    1.67
   1   0  11   30.74    1.44
  -2   0 -11    1.58    0.62
  -3   0 -11    1.73    0.66
  -4   0 -11    7.06    1.26
   6  -1 -11    2.69    0.68
  -6   1  11    3.04    0.67
   5  -1 -11   20.00    1.36
  -5   1  11   19.77    1.35
   4  -1 -11   25.82    1.54
  -4   1  11   25.12    1.50
   3  -1 -11    2.69    0.67
  -3   1  11    4.30    0.64
   2  -1 -11   12.08    1.09
  -2   1  11   13.69    0.98
   1  -1 -11   21.23    1.35
  -1   1  11   20.94    1.21
   0  -1 -11   35.73    1.86
   0   1  11   34.96    1.68
  -1  -1 -11    5.63    0.85
  -2  -1 -11    5.56    0.88
  -3  -1 -11   10.89    1.27
  -5   2  11   19.99    1.39
   4  -2 -11    8.05    0.97
  -4   2  11    7.21    0.88
   3  -2 -11    3.91    0.78
  -3   2  11    3.93    0.65
   2  -2 -11   22.46    1.44
  -2   2  11   24.22    1.37
   1  -2 -11   56.65    2.55
  -1   2  11   59.16    2.50
   0  -2 -11   11.31    1.11
   0   2  11   12.16    0.91
  -1  -2 -11    0.80    0.56
  -2  -2 -11   14.37    1.23
  -3  -2 -11   11.43    1.27
  -5   3  11    4.43    0.75
  -4   3  11    1.12    0.51
  -3   3  11   17.57    1.22
  -2   3  11   24.41    1.42
   1  -3 -11    8.10    0.94
  -1   3  11   10.52    0.90
   0  -3 -11    1.02    0.50
   0   3  11    0.05    0.36
  -1  -3 -11   12.79    1.11
  -2  -3 -11   16.12    1.29
  -3  -3 -11    4.94    0.93
   3   3  11    3.87    1.53
  -4   4  11   14.13    1.19
  -3   4  11   14.86    1.16
  -2   4  11   13.49    1.08
  -1   4  11    1.66    0.51
   0   4  11    8.85    0.88
  -4   5  11   12.20    1.22
  -3   5  11    4.47    0.74
  -2   5  11    0.30    0.43
   3  -6 -11    2.14    0.66
   2  -6 -11   12.86    1.03
   1  -6 -11    9.86    0.97
   2 -13  12    6.51    0.94
  -1 -12  12   12.40    1.26
   0 -12  12   21.54    1.41
   1 -12  12   12.41    1.09
   2 -12  12    0.58    0.48
   3 -12  12    3.61    0.66
   2  11 -12    7.29    1.01
  -2 -11  12   10.51    1.04
   1  11 -12   24.88    1.70
  -1 -11  12   26.30    1.52
   0 -11  12   20.25    1.32
   1 -11  12    1.20    0.50
   2 -11  12    3.45    0.65
   3  10 -12    4.12    0.76
  -3 -10  12    5.92    0.81
   2  10 -12   22.75    1.52
  -2 -10  12   24.79    1.43
   1  10 -12   18.86    1.49
  -1 -10  12   21.52    1.30
   0  10 -12    2.04    0.73
   0 -10  12    3.35    0.64
  -1  10 -12    3.42    0.87
   1 -10  12    6.25    0.78
  -2  10 -12   18.62    1.66
   2 -10  12   22.45    1.33
  -3  10 -12   10.51    1.27
  -4  -9  12    2.36    0.82
   3   9 -12   29.86    1.74
  -3  -9  12   31.55    1.69
   2   9 -12   17.81    1.29
  -2  -9  12   17.15    1.16
   1   9 -12    1.77    0.67
  -1  -9  12    1.90    0.48
   0   9 -12    9.02    1.13
   0  -9  12   10.14    0.96
  -1   9 -12   11.21    1.26
   1  -9  12   13.98    1.01
  -2   9 -12   22.05    1.70
   2  -9  12   23.79    1.34
  -3   9 -12    3.17    0.83
  -4   9 -12    2.50    0.82
   4   8 -12   17.60    1.44
  -4  -8  12   15.70    1.19
   3   8 -12   28.05    1.63
  -3  -8  12   27.10    1.55
   2   8 -12    6.28    0.86
  -2  -8  12    5.97    0.74
   1   8 -12    7.29    0.98
  -1  -8  12    6.35    0.75
   0   8 -12   40.21    2.14
   0  -8  12   39.37    1.90
  -1   8 -12   15.85    1.39
   1  -8  12   15.10    1.06
  -2   8 -12    6.44    1.07
   2  -8  12    7.04    0.77
  -3   8 -12   -0.29    0.62
  -4   8 -12   11.79    1.37
   4   7 -12   30.18    1.74
  -4  -7  12   31.07    1.71
   3   7 -12    5.42    0.80
  -3  -7  12    7.99    0.86
   2   7 -12    1.99    0.60
  -2  -7  12    1.11    0.41
   1   7 -12   63.57    2.97
  -1  -7  12   67.80    2.79
   0   7 -12   32.97    1.89
   0  -7  12   31.50    1.62
  -1   7 -12    9.09    1.13
   1  -7  12    7.14    0.78
  -2   7 -12    0.89    0.69
   2  -7  12    0.38    0.37
  -3   7 -12    8.47    1.17
  -4   7 -12    9.30    1.21
  -5  -6  12   16.24    1.28
   4   6 -12   10.44    1.12
  -4  -6  12    7.77    0.91
   3   6 -12    2.78    0.63
  -3  -6  12    3.21    0.59
   2   6 -12   21.25    1.40
  -2  -6  12   19.92    1.25
   1   6 -12   60.17    2.75
  -1  -6  12   57.26    2.52
   0   6 -12   12.02    1.21
   0  -6  12   12.50    0.94
  -1   6 -12   -0.54    0.55
   1  -6  12    0.24    0.32
  -2   6 -12   29.50    1.84
   2  -6  12   29.05    1.50
  -3   6 -12   16.95    1.53
  -4   6 -12    3.16    0.87
  -5  -5  12   10.81    1.11
   4   5 -12    0.12    0.41
  -4  -5  12    0.48    0.38
   3   5 -12    6.09    0.86
  -3  -5  12    7.17    0.82
   2   5 -12   35.60    1.90
  -2  -5  12   34.88    1.77
   1   5 -12   10.80    1.13
  -1  -5  12   12.00    0.94
   0   5 -12    0.25    0.53
   0  -5  12    0.52    0.36
  -1   5 -12   14.68    1.40
   1  -5  12   15.27    1.04
  -2   5 -12   23.57    1.63
  -3   5 -12    4.62    0.95
  -4   5 -12    0.27    0.63
   5   4 -12    0.41    0.55
  -5  -4  12    0.22    0.40
   4   4 -12   40.98    2.10
  -4  -4  12   41.60    2.09
   3   4 -12   21.61    1.43
  -3  -4  12   23.79    1.39
   2   4 -12   15.23    1.23
  -2  -4  12   15.02    1.08
   1   4 -12    1.15    0.59
  -1  -4  12    1.32    0.45
   0   4 -12   13.05    1.18
   0  -4  12   12.21    0.95
  -1   4 -12   39.67    2.10
   1  -4  12   39.03    1.84
  -2   4 -12   12.77    1.30
  -3   4 -12    0.72    0.63
  -4   4 -12    6.25    1.08
   5   3 -12   12.28    1.15
  -5  -3  12   15.49    1.20
   4   3 -12   29.68    1.72
  -4  -3  12   31.05    1.69
   3   3 -12   18.24    1.30
  -3  -3  12   17.95    1.21
   2   3 -12    0.45    0.49
  -2  -3  12    0.76    0.41
   1   3 -12   37.09    1.99
  -1  -3  12   39.92    1.88
   0   3 -12   38.52    2.01
   0  -3  12   37.04    1.80
  -1   3 -12   18.16    1.39
   1  -3  12   18.91    1.15
  -2   3 -12    0.17    0.57
  -3   3 -12    6.29    0.98
  -4   3 -12   14.29    1.61
   5   2 -12   27.79    1.74
  -5  -2  12   33.48    1.80
   4   2 -12    8.03    0.95
  -4  -2  12    8.03    0.93
   3   2 -12    0.36    0.50
  -3  -2  12    1.55    0.47
   2   2 -12   15.80    1.30
  -2  -2  12   19.46    1.20
   1   2 -12   41.10    2.10
  -1  -2  12   40.05    1.92
   0   2 -12   18.87    1.35
   0  -2  12   17.62    1.11
  -1   2 -12    2.72    0.70
   1  -2  12    2.49    0.49
  -2   2 -12    6.80    1.01
  -3   2 -12   15.91    1.44
   5   1 -12   13.29    1.20
  -5  -1  12   13.50    1.15
   4   1 -12    0.06    0.46
  -4  -1  12    1.27    0.49
   3   1 -12   12.67    1.17
  -3  -1  12   12.73    1.01
   2   1 -12   30.32    1.77
  -2  -1  12   30.06    1.59
   1   1 -12   23.75    1.50
  -1  -1  12   23.88    1.34
   0   1 -12    3.14    0.73
   0  -1  12    3.80    0.57
  -1   1 -12   10.69    1.13
   1  -1  12    9.82    0.84
  -2   1 -12   21.38    1.55
  -3   1 -12    9.37    1.17
   5   0 -12   -0.07    0.48
   4   0 -12    6.41    0.94
  -4   0  12    6.53    0.84
   3   0 -12   21.90    1.51
  -3   0  12   21.43    1.34
   2   0 -12   10.65    1.14
  -2   0  12   12.31    0.96
   1   0 -12   -0.06    0.48
  -1   0  12    0.56    0.36
   0   0 -12    5.52    0.85
   0   0  12    6.06    0.69
  -1   0 -12   14.41    1.26
  -2   0 -12    6.89    1.00
  -3   0 -12    0.09    0.58
   5  -1 -12    4.79    0.86
  -5   1  12    5.35    0.81
   4  -1 -12   30.82    1.86
  -4   1  12   33.39    1.79
   3  -1 -12   18.75    1.46
  -3   1  12   19.41    1.28
   2  -1 -12    0.49    0.56
  -2   1  12    0.47    0.38
   1  -1 -12    9.67    1.05
  -1   1  12    8.44    0.86
   0  -1 -12   25.47    1.57
   0   1  12   25.07    1.37
  -1  -1 -12   15.67    1.28
  -2  -1 -12    1.34    0.62
  -3  -1 -12    2.97    0.83
  -4   2  12   13.81    1.16
   3  -2 -12    1.72    0.65
  -3   2  12    2.26    0.54
   2  -2 -12    7.94    0.98
  -2   2  12    8.28    0.90
   1  -2 -12   42.18    2.09
  -1   2  12   41.01    1.98
   0  -2 -12   21.02    1.42
   0   2  12   19.09    1.20
  -1  -2 -12    2.65    0.70
  -2  -2 -12    0.65    0.54
  -4   3  12    1.34    0.53
  -3   3  12    2.23    0.59
  -2   3  12   13.23    1.06
  -1   3  12   14.51    1.10
   0   3  12    1.12    0.49
  -1  -3 -12    2.34    0.70
  -2  -3 -12    4.01    0.85
  -3   4  12    8.92    1.03
  -2   4  12   20.35    1.38
  -1   4  12    4.04    0.69
  -2   5  12    1.87    0.59
   1  -5 -12    2.27    0.51
   1 -12  13   21.82    1.42
   2 -12  13    4.63    0.74
   2  11 -13   -0.25    0.58
   1  11 -13    7.89    1.18
  -1 -11  13    8.39    0.93
   0  11 -13   22.50    1.76
   0 -11  13   22.76    1.43
   1 -11  13   14.67    1.13
   2 -11  13    0.70    0.49
   2  10 -13    8.03    1.10
  -2 -10  13    8.78    0.98
   1  10 -13   10.77    1.31
  -1 -10  13   12.30    1.04
   0  10 -13   13.09    1.38
   0 -10  13   12.67    1.05
  -1  10 -13    0.47    0.73
   1 -10  13    0.22    0.43
  -2  10 -13    2.72    0.93
   2 -10  13    4.65    0.70
  -3  10 -13    9.15    1.24
   3   9 -13    4.88    0.85
  -3  -9  13    6.38    0.84
   2   9 -13   25.42    1.69
  -2  -9  13   26.05    1.53
   1   9 -13   16.80    1.45
  -1  -9  13   17.98    1.22
   0   9 -13   -0.34    0.63
   0  -9  13    0.57    0.42
  -1   9 -13   11.54    1.33
   1  -9  13   11.51    1.01
  -2   9 -13    9.75    1.29
   2  -9  13   12.81    0.99
  -3   9 -13    6.79    1.11
  -4   9 -13    0.62    0.78
   3   8 -13   24.61    1.60
  -3  -8  13   23.49    1.46
   2   8 -13   13.99    1.26
  -2  -8  13   13.54    1.08
   1   8 -13    0.14    0.57
  -1  -8  13    0.03    0.35
   0   8 -13   10.01    1.20
   0  -8  13    9.32    0.94
  -1   8 -13   18.91    1.56
   1  -8  13   20.33    1.29
  -2   8 -13   18.28    1.58
   2  -8  13   17.64    1.19
  -3   8 -13    0.90    0.73
  -4   8 -13    1.36    0.92
  -4  -7  13   15.76    1.22
   3   7 -13   17.36    1.33
  -3  -7  13   16.15    1.20
   2   7 -13    1.96    0.67
  -2  -7  13    1.54    0.49
   1   7 -13   15.07    1.44
  -1  -7  13   11.64    1.01
   0   7 -13   35.22    2.00
   0  -7  13   32.28    1.71
  -1   7 -13   15.69    1.50
   1  -7  13   16.33    1.12
  -2   7 -13    0.92    0.72
  -3   7 -13    2.15    0.88
   4   6 -13   30.80    1.97
  -4  -6  13   30.82    1.75
   3   6 -13    5.69    0.88
  -3  -6  13    6.43    0.85
   2   6 -13    3.69    0.78
  -2  -6  13    3.36    0.62
   1   6 -13   27.11    1.75
  -1  -6  13   27.96    1.56
   0   6 -13   25.40    1.70
   0  -6  13   23.77    1.41
  -1   6 -13    8.05    1.10
   1  -6  13    9.30    0.93
  -2   6 -13    4.59    0.94
  -3   6 -13    6.67    1.14
   4   5 -13    1.95    0.61
  -4  -5  13    0.77    0.45
   3   5 -13    3.46    0.75
  -3  -5  13    2.87    0.60
   2   5 -13   23.40    1.62
  -2  -5  13   22.44    1.40
   1   5 -13   24.48    1.65
  -1  -5  13   24.84    1.46
   0   5 -13    5.47    0.94
   0  -5  13    4.73    0.70
  -1   5 -13    0.53    0.60
   1  -5  13    0.79    0.40
  -2   5 -13    8.32    1.11
  -3   5 -13   12.39    1.45
   4   4 -13    2.68    0.68
  -4  -4  13    2.92    0.62
   3   4 -13   25.47    1.62
  -3  -4  13   24.78    1.52
   2   4 -13   29.62    1.87
  -2  -4  13   31.75    1.70
   1   4 -13   -0.08    0.54
  -1  -4  13   -0.10    0.35
   0   4 -13    8.92    1.09
   0  -4  13    7.75    0.85
  -1   4 -13   30.46    1.83
   1  -4  13   28.46    1.56
  -2   4 -13   14.44    1.32
  -3   4 -13    3.26    0.84
   4   3 -13   10.36    1.14
  -4  -3  13   11.16    1.12
   3   3 -13   29.90    1.81
  -3  -3  13   27.40    1.60
   2   3 -13   14.72    1.33
  -2  -3  13   15.57    1.14
   1   3 -13    4.06    0.82
  -1  -3  13    4.91    0.73
   0   3 -13   23.64    1.54
   0  -3  13   23.04    1.37
  -1   3 -13   32.30    1.88
   1  -3  13   29.55    1.57
  -2   3 -13    4.84    0.91
  -3   3 -13    0.76    0.69
   4   2 -13   14.25    1.31
  -4  -2  13   16.93    1.21
   3   2 -13    9.90    1.17
  -3  -2  13   11.91    1.01
   2   2 -13    1.18    0.66
  -2  -2  13    1.97    0.51
   1   2 -13   16.78    1.36
  -1  -2  13   14.64    1.08
   0   2 -13   35.33    2.00
   0  -2  13   38.45    1.83
  -1   2 -13    7.12    1.00
  -2   2 -13    2.97    0.79
  -3   2 -13    5.25    1.03
   5   1 -13   19.90    2.15
   4   1 -13    8.51    1.10
  -4  -1  13    9.85    1.02
   3   1 -13   -0.10    0.58
  -3  -1  13   -0.16    0.34
   2   1 -13   15.53    1.34
  -2  -1  13   16.81    1.17
   1   1 -13   17.19    1.33
  -1  -1  13   17.78    1.18
   0   1 -13   17.52    1.37
   0  -1  13   17.38    1.14
  -1   1 -13    0.06    0.54
  -2   1 -13    7.97    1.10
   5   0 -13    4.16    0.90
   4   0 -13    0.99    0.71
  -4   0  13    1.91    0.53
   3   0 -13   11.90    1.28
  -3   0  13   15.27    1.14
   2   0 -13   16.79    1.39
  -2   0  13   17.84    1.20
   1   0 -13    7.91    0.99
  -1   0  13    9.73    0.92
   0   0 -13    0.86    0.60
   0   0  13    0.88    0.38
  -1   0 -13   14.35    1.29
  -2   0 -13   12.03    1.30
   4  -1 -13    9.22    1.20
  -4   1  13   10.15    1.09
   3  -1 -13   21.01    1.57
  -3   1  13   21.49    1.40
   2  -1 -13    4.41    0.83
  -2   1  13    4.78    0.69
   1  -1 -13    2.68    0.71
  -1   1  13    2.80    0.57
   0  -1 -13    9.81    1.13
   0   1  13    7.20    0.80
  -1  -1 -13   18.93    1.45
  -2  -1 -13    7.65    1.09
  -3   2  13   14.00    1.15
   2  -2 -13    0.94    0.65
  -2   2  13    1.24    0.48
   1  -2 -13    2.04    0.71
  -1   2  13    3.26    0.61
   0  -2 -13   18.82    1.36
   0   2  13   16.10    1.15
  -1  -2 -13    9.82    1.13
  -3   3  13   -0.17    0.49
  -2   3  13   13.39    1.15
  -1   3  13    9.85    1.00
  -2   4  13    9.83    1.19
  -1   4  13    8.22    0.93
   1  11 -14   -0.77    0.69
   0  11 -14   10.84    1.36
  -1  11 -14   16.57    1.69
   1 -11  14   23.49    1.42
   2 -11  14    4.91    0.78
   2  10 -14    0.44    0.94
   1  10 -14   11.09    1.34
  -1 -10  14   10.09    1.08
   0  10 -14   18.98    1.68
   0 -10  14   20.57    1.36
  -1  10 -14    3.49    0.95
   1 -10  14    4.41    0.71
  -2  10 -14    0.11    0.78
   2 -10  14    1.21    0.51
  -3  10 -14    3.64    1.00
   2   9 -14    8.76    1.23
  -2  -9  14   11.06    1.19
   1   9 -14   21.16    1.69
  -1  -9  14   20.02    1.37
   0   9 -14    7.09    1.12
   0  -9  14    6.93    0.86
  -1   9 -14    0.08    0.71
   1  -9  14    0.65    0.46
  -2   9 -14    8.86    1.27
   2  -9  14    9.42    1.01
  -3   9 -14    9.22    1.35
   2   8 -14   18.81    1.59
  -2  -8  14   19.91    1.36
   1   8 -14   11.83    1.36
  -1  -8  14   12.46    1.09
   0   8 -14    0.55    0.70
   0  -8  14    1.06    0.47
  -1   8 -14   12.31    1.41
   1  -8  14   13.10    1.10
  -2   8 -14   19.45    1.70
  -3   8 -14    3.89    1.01
   3   7 -14   19.01    1.57
  -3  -7  14   20.16    1.39
   2   7 -14   14.00    1.49
  -2  -7  14   14.93    1.16
   1   7 -14    1.06    0.70
  -1  -7  14    0.25    0.43
   0   7 -14   11.88    1.33
   0  -7  14   12.52    1.06
  -1   7 -14   29.94    1.92
   1  -7  14   27.95    1.62
  -2   7 -14   12.23    1.46
  -3   7 -14    0.70    0.96
   3   6 -14   12.30    1.31
  -3  -6  14   13.28    1.14
   2   6 -14    1.54    0.73
  -2  -6  14    0.64    0.44
   1   6 -14    8.51    1.16
  -1  -6  14   11.06    1.07
   0   6 -14   25.91    1.73
   0  -6  14   26.43    1.54
  -1   6 -14   27.34    1.85
   1  -6  14   28.62    1.61
  -2   6 -14    1.38    0.76
  -3   6 -14    2.16    1.34
   3   5 -14   -0.39    0.52
  -3  -5  14    0.86    0.47
   2   5 -14    9.64    1.26
  -2  -5  14   10.44    1.07
   1   5 -14   18.30    1.52
  -1  -5  14   18.96    1.28
   0   5 -14    8.74    1.10
   0  -5  14   11.00    1.06
  -1   5 -14    0.58    0.66
   1  -5  14   -0.02    0.40
  -2   5 -14    1.86    0.77
   3   4 -14    4.71    0.97
  -3  -4  14    5.23    0.79
   2   4 -14   35.28    2.18
  -2  -4  14   40.01    2.02
   1   4 -14   14.56    1.42
  -1  -4  14   12.92    1.11
   0   4 -14   -0.12    0.56
   0  -4  14    1.07    0.46
  -1   4 -14    5.58    0.97
   1  -4  14    4.18    0.68
  -2   4 -14   12.22    1.31
   4   3 -14    2.77    1.03
   3   3 -14   24.82    1.81
  -3  -3  14   25.65    1.55
   2   3 -14   33.19    2.05
  -2  -3  14   32.83    1.79
   1   3 -14    1.87    0.73
  -1  -3  14    2.62    0.59
   0   3 -14    8.06    1.11
   0  -3  14    8.03    0.90
  -1   3 -14   16.90    1.46
  -2   3 -14    9.78    1.21
   4   2 -14   11.17    1.33
   3   2 -14   22.60    1.75
  -3  -2  14   24.12    1.48
   2   2 -14    2.17    0.80
  -2  -2  14    3.43    0.64
   1   2 -14    4.13    0.86
  -1  -2  14    4.15    0.69
   0   2 -14   23.74    1.60
   0  -2  14   20.43    1.33
  -1   2 -14   18.73    1.51
  -2   2 -14    3.43    0.82
   4   1 -14   13.95    1.53
   3   1 -14    6.65    1.07
  -3  -1  14    7.96    0.93
   2   1 -14    2.21    0.78
  -2  -1  14    1.81    0.55
   1   1 -14   22.65    1.59
  -1  -1  14   21.40    1.35
   0   1 -14   20.75    1.54
   0  -1  14   19.62    1.28
  -1   1 -14    4.45    0.85
  -2   1 -14    0.31    0.82
   4   0 -14    3.62    0.94
   3   0 -14    1.99    0.81
  -3   0  14    2.64    0.61
   2   0 -14   12.60    1.32
  -2   0  14    9.73    1.03
   1   0 -14   15.42    1.33
  -1   0  14   15.37    1.13
   0   0 -14    1.98    0.69
   0   0  14    2.26    0.53
  -1   0 -14    1.86    0.71
   3  -1 -14   12.27    1.38
   2  -1 -14   25.21    1.68
  -2   1  14   23.88    1.49
   1  -1 -14    6.67    1.01
  -1   1  14    6.54    0.80
   0  -1 -14    1.08    0.62
  -1  -1 -14    8.63    1.15
  -2   2  14    7.71    0.97
  -1   2  14    0.20    0.41
   0  -2 -14    7.50    1.45
   0  10 -15   10.95    1.46
  -1  10 -15   12.70    1.63
   1 -10  15   11.63    1.19
   1   9 -15   11.63    1.75
   0   9 -15   18.13    1.65
   0  -9  15   20.01    1.40
  -1   9 -15    1.87    0.89
   1  -9  15    2.59    0.65
   1   8 -15   18.08    1.67
  -1  -8  15   20.65    1.43
   0   8 -15    7.08    1.19
   0  -8  15    7.47    0.92
  -1   8 -15    1.97    0.84
   1  -8  15    1.34    0.54
   2   7 -15   26.24    2.81
  -2  -7  15   23.34    1.88
   1   7 -15   16.12    1.58
  -1  -7  15   16.09    1.27
   0   7 -15   -0.37    0.68
   0  -7  15    0.23    0.46
  -1   7 -15   22.33    1.70
   1  -7  15   21.03    1.44
   2   6 -15    7.63    1.21
  -2  -6  15    7.96    0.96
   1   6 -15   -0.83    0.60
  -1  -6  15    0.98    0.52
   0   6 -15   10.18    1.25
   0  -6  15   10.74    1.11
  -1   6 -15   19.68    1.67
   1  -6  15   18.21    1.33
   2   5 -15   -0.02    0.69
  -2  -5  15    1.16    0.55
   1   5 -15    5.46    1.06
  -1  -5  15    7.81    0.96
   0   5 -15   21.08    1.64
   0  -5  15   20.71    1.45
  -1   5 -15    8.67    1.25
   2   4 -15   10.29    1.33
  -2  -4  15    7.13    0.91
   1   4 -15   29.94    1.95
  -1  -4  15   29.47    1.71
   0   4 -15    9.30    1.19
   0  -4  15    8.27    0.93
  -1   4 -15   -0.35    0.60
   2   3 -15   19.46    1.67
  -2  -3  15   18.69    1.33
   1   3 -15   14.72    1.53
  -1  -3  15   15.54    1.20
   0   3 -15    1.50    0.71
   0  -3  15    1.21    0.53
  -1   3 -15    4.54    0.97
   3   2 -15   16.88    2.12
   2   2 -15   19.24    1.64
  -2  -2  15   20.40    1.38
   1   2 -15    0.76    0.69
  -1  -2  15    0.59    0.45
   0   2 -15    2.78    0.83
   0  -2  15    2.79    0.59
   3   1 -15    9.88    1.46
   2   1 -15    1.44    0.78
  -2  -1  15    1.41    0.53
   1   1 -15    2.37    0.77
  -1  -1  15    2.20    0.56
   0   1 -15    8.87    1.14
   0  -1  15    9.47    0.93
   2   0 -15    4.69    0.94
   1   0 -15    6.51    1.03
  -1   0  15    7.09    0.88
   0   0 -15    9.53    1.25
   1  -1 -15   11.38    1.26
  -1   1  15   14.07    1.59
   0  -7  16    7.42    0.96
   1  -7  16    2.61    0.64
   0  -6  16    0.14    0.51
  -1  -5  16    0.47    0.66
   0  -5  16   14.21    1.25
  -1  -4  16    6.57    1.18
   0  -4  16   16.70    1.30
  -1  -3  16   19.35    2.00
   0  -3  16    4.97    0.78
   0   0   0    0.00    0.00
;
_shelx_hkl_checksum              12330
loop_
_space_group_symop_operation_xyz
'x, y, z'
'-x, -y, -z'
loop_
_atom_site_label
_atom_site_type_symbol
_atom_site_fract_x
_atom_site_fract_y
_atom_site_fract_z
_atom_site_U_iso_or_equiv
_atom_site_adp_type
_atom_site_occupancy
_atom_site_site_symmetry_order
_atom_site_calc_flag
_atom_site_refinement_flags_posn
_atom_site_refinement_flags_adp
_atom_site_refinement_flags_occupancy
_atom_site_disorder_assembly
_atom_site_disorder_group
Sm1 Sm 1.87723(5) 0.88638(3) 0.59608(3) 0.02420(15) Uani 1 1 d . . . . .
O1W O 2.0897(10) 0.7347(5) 0.6018(6) 0.0554(16) Uani 1 1 d . . . . .
H1WA H 1.9891 0.6513 0.5650 0.083 Uiso 1 1 d R U . . .
H1WB H 2.2192 0.7442 0.5623 0.083 Uiso 1 1 d R U . . .
O2 O 0.1100(9) 0.0943(5) 0.1973(4) 0.0448(13) Uani 1 1 d . . . . .
O2W O 2.2554(8) 1.0122(5) 0.6926(4) 0.0392(12) Uani 1 1 d . . . . .
H2WA H 2.3560 0.9862 0.6532 0.059 Uiso 1 1 d R U . . .
H2WB H 2.2792 1.0068 0.7580 0.059 Uiso 1 1 d R U . . .
O3 O 0.4353(9) 0.2062(5) 0.3166(4) 0.0427(13) Uani 1 1 d . . . . .
O4 O 1.6430(10) 0.6825(5) 0.4454(5) 0.0487(14) Uani 1 1 d . . . . .
O5 O 1.5387(8) 0.8516(4) 0.4579(4) 0.0323(10) Uani 1 1 d . . . . .
O6 O 1.0664(8) 0.8960(4) 0.4375(4) 0.0311(11) Uani 1 1 d . . . . .
O7 O 1.2484(9) 0.9251(4) 0.3006(4) 0.0355(11) Uani 1 1 d . . . . .
N1 N 0.4161(19) 0.1328(8) -0.0774(6) 0.095(4) Uani 1 1 d . . . . .
O1 O 1.021(2) 0.3439(11) 0.0938(12) 0.049(4) Uani 0.399(8) 1 d . . P A 1
C1 C 0.691(4) 0.1960(18) -0.0381(17) 0.048(6) Uani 0.399(8) 1 d . . P A 1
H1 H 0.7872 0.1832 -0.0934 0.058 Uiso 0.399(8) 1 calc R U P A 1
C2 C 0.791(3) 0.2686(17) 0.0749(17) 0.041(5) Uani 0.399(8) 1 d . . P A 1
C3 C 0.669(4) 0.2638(18) 0.1582(17) 0.039(5) Uani 0.399(8) 1 d . . P A 1
H3 H 0.7350 0.3054 0.2351 0.046 Uiso 0.399(8) 1 calc R U P A 1
O1A O 0.7689(15) 0.4468(8) 0.0592(6) 0.037(2) Uani 0.601(8) 1 d . . P A 2
C1A C 0.542(2) 0.2494(12) -0.0597(10) 0.037(3) Uani 0.601(8) 1 d . . P A 2
H1A H 0.5670 0.2738 -0.1216 0.044 Uiso 0.601(8) 1 calc R U P A 2
C2A C 0.6335(19) 0.3326(10) 0.0499(9) 0.027(3) Uani 0.601(8) 1 d . . P A 2
C3A C 0.566(2) 0.3003(11) 0.1398(9) 0.024(2) Uani 0.601(8) 1 d . . P A 2
H3A H 0.6226 0.3568 0.2145 0.029 Uiso 0.601(8) 1 calc R U P A 2
C4 C 0.4159(15) 0.1865(7) 0.1212(7) 0.046(2) Uani 1 1 d . . . . .
C5 C 0.3293(15) 0.1127(7) 0.0095(7) 0.050(2) Uani 1 1 d . . . . .
H5 H 0.2017 0.0442 -0.0063 0.059 Uiso 1 1 calc R U . . .
C6 C 1.0886(19) 0.4607(8) 0.1789(9) 0.063(3) Uani 1 1 d . . . . .
H6 H 1.0725 0.3755 0.1397 0.075 Uiso 0.601(8) 1 calc R U P A 2
C7 C 1.2702(16) 0.5320(8) 0.2655(9) 0.054(2) Uani 1 1 d . . . . .
H7 H 1.3762 0.4936 0.2863 0.064 Uiso 1 1 calc R U . . .
C8 C 1.3014(12) 0.6592(6) 0.3229(6) 0.0335(16) Uani 1 1 d . . . . .
C9 C 1.1372(11) 0.7163(6) 0.2938(6) 0.0288(15) Uani 1 1 d . . . . .
C10 C 0.9532(14) 0.6453(7) 0.2083(6) 0.0421(18) Uani 1 1 d . . . . .
H10 H 0.8437 0.6825 0.1885 0.050 Uiso 1 1 calc R U . . .
C11 C 0.9296(18) 0.5191(9) 0.1514(7) 0.059(3) Uani 1 1 d . . . . .
H11 H 0.8040 0.4720 0.0932 0.070 Uiso 0.399(8) 1 calc R U P A 1
C12 C 0.3118(12) 0.1587(7) 0.2163(6) 0.0332(16) Uani 1 1 d . . . . .
C13 C 1.5053(12) 0.7364(6) 0.4140(6) 0.0292(15) Uani 1 1 d . . . . .
C14 C 1.1585(11) 0.8550(6) 0.3503(6) 0.0266(14) Uani 1 1 d . . . . .
O3W O 0.758(4) 0.4834(13) 0.4620(17) 0.171(6) Uani 1 1 d G . . . .
H3WA H 0.8362 0.4882 0.4095 0.257 Uiso 1 1 d G U . . .
H3WB H 0.6848 0.5398 0.4771 0.257 Uiso 1 1 d G U . . .
loop_
_atom_site_aniso_label
_atom_site_aniso_U_11
_atom_site_aniso_U_22
_atom_site_aniso_U_33
_atom_site_aniso_U_23
_atom_site_aniso_U_13
_atom_site_aniso_U_12
Sm1 0.0231(2) 0.0243(2) 0.0258(2) 0.01171(15) 0.00752(14) 0.00261(14)
O1W 0.044(4) 0.039(3) 0.083(5) 0.022(3) 0.001(3) 0.013(3)
O2 0.031(3) 0.061(4) 0.040(3) 0.027(3) 0.006(2) -0.006(3)
O2W 0.027(3) 0.054(3) 0.032(3) 0.017(2) 0.008(2) -0.002(2)
O3 0.032(3) 0.055(3) 0.038(3) 0.024(3) 0.004(2) -0.006(2)
O4 0.046(3) 0.028(3) 0.068(4) 0.013(3) -0.001(3) 0.013(2)
O5 0.031(3) 0.024(2) 0.038(3) 0.009(2) 0.003(2) 0.006(2)
O6 0.030(3) 0.033(3) 0.029(3) 0.009(2) 0.015(2) 0.008(2)
O7 0.041(3) 0.032(3) 0.035(3) 0.015(2) 0.018(2) 0.006(2)
N1 0.130(8) 0.063(5) 0.032(4) -0.008(4) 0.031(5) -0.057(5)
O1 0.054(9) 0.018(6) 0.050(9) -0.008(6) 0.016(7) -0.010(6)
C1 0.064(15) 0.033(10) 0.030(10) -0.003(8) 0.020(10) -0.004(10)
C2 0.030(10) 0.030(10) 0.042(11) 0.000(8) 0.002(8) -0.011(8)
C3 0.048(13) 0.029(10) 0.028(10) 0.012(8) -0.001(9) -0.013(9)
O1A 0.041(5) 0.036(5) 0.020(4) 0.013(4) -0.012(3) -0.017(4)
C1A 0.033(7) 0.041(7) 0.020(6) 0.009(5) 0.001(5) -0.018(6)
C2A 0.021(5) 0.025(6) 0.024(6) 0.005(5) -0.002(4) -0.010(4)
C3A 0.026(6) 0.031(6) 0.017(5) 0.014(5) 0.000(4) 0.003(5)
C4 0.055(5) 0.036(4) 0.034(4) 0.010(3) 0.017(4) -0.010(4)
C5 0.056(5) 0.038(4) 0.041(4) 0.013(4) 0.012(4) -0.013(4)
C6 0.070(7) 0.025(4) 0.058(6) -0.014(4) 0.023(5) -0.012(4)
C7 0.045(5) 0.030(4) 0.073(6) 0.008(4) 0.016(4) 0.001(4)
C8 0.032(4) 0.025(4) 0.037(4) 0.006(3) 0.014(3) 0.004(3)
C9 0.026(4) 0.028(3) 0.023(3) 0.004(3) 0.010(3) -0.004(3)
C10 0.041(4) 0.041(4) 0.031(4) 0.010(3) 0.004(3) -0.008(3)
C11 0.064(6) 0.046(5) 0.030(4) -0.001(4) 0.014(4) -0.032(5)
C12 0.034(4) 0.033(4) 0.035(4) 0.018(3) 0.009(3) 0.004(3)
C13 0.029(4) 0.022(3) 0.037(4) 0.011(3) 0.013(3) 0.005(3)
C14 0.021(3) 0.024(3) 0.031(4) 0.009(3) 0.004(3) 0.000(3)
O3W 0.200(17) 0.090(8) 0.232(19) 0.071(11) 0.013(12) 0.044(9)
loop_
_atom_type_symbol
_atom_type_description
_atom_type_scat_dispersion_real
_atom_type_scat_dispersion_imag
_atom_type_scat_source
C C 0.0033 0.0016 'International Tables Vol C Tables 4.2.6.8 and 6.1.1.4'
H H 0.0000 0.0000 'International Tables Vol C Tables 4.2.6.8 and 6.1.1.4'
N N 0.0061 0.0033 'International Tables Vol C Tables 4.2.6.8 and 6.1.1.4'
O O 0.0106 0.0060 'International Tables Vol C Tables 4.2.6.8 and 6.1.1.4'
Sm Sm -0.1638 3.4418 'International Tables Vol C Tables 4.2.6.8 and 6.1.1.4'
loop_
_geom_angle_atom_site_label_1
_geom_angle_atom_site_label_2
_geom_angle_atom_site_label_3
_geom_angle
_geom_angle_site_symmetry_1
_geom_angle_site_symmetry_3
O2W Sm1 O6 79.05(17) . 1_655
O2W Sm1 O1W 75.8(2) . .
O6 Sm1 O1W 85.29(19) 1_655 .
O2W Sm1 O5 148.00(17) . .
O6 Sm1 O5 80.99(17) 1_655 .
O1W Sm1 O5 127.05(19) . .
O2W Sm1 O7 84.84(18) . 2_876
O6 Sm1 O7 115.05(15) 1_655 2_876
O1W Sm1 O7 148.8(2) . 2_876
O5 Sm1 O7 81.28(17) . 2_876
O2W Sm1 O3 126.12(17) . 2_766
O6 Sm1 O3 153.17(18) 1_655 2_766
O1W Sm1 O3 91.9(2) . 2_766
O5 Sm1 O3 79.49(17) . 2_766
O7 Sm1 O3 79.88(17) 2_876 2_766
O2W Sm1 O4 145.91(18) . .
O6 Sm1 O4 80.88(18) 1_655 .
O1W Sm1 O4 75.32(19) . .
O5 Sm1 O4 52.13(16) . .
O7 Sm1 O4 128.82(18) 2_876 .
O3 Sm1 O4 72.6(2) 2_766 .
O2W Sm1 O2 73.86(16) . 2_766
O6 Sm1 O2 151.17(17) 1_655 2_766
O1W Sm1 O2 78.8(2) . 2_766
O5 Sm1 O2 127.70(16) . 2_766
O7 Sm1 O2 72.43(17) 2_876 2_766
O3 Sm1 O2 52.26(16) 2_766 2_766
O4 Sm1 O2 117.29(18) . 2_766
O2W Sm1 O6 73.61(16) . 2_876
O6 Sm1 O6 64.98(16) 1_655 2_876
O1W Sm1 O6 140.56(18) . 2_876
O5 Sm1 O6 75.35(15) . 2_876
O7 Sm1 O6 50.11(14) 2_876 2_876
O3 Sm1 O6 126.31(16) 2_766 2_876
O4 Sm1 O6 121.18(17) . 2_876
O2 Sm1 O6 115.08(16) 2_766 2_876
O2W Sm1 C13 159.76(18) . .
O6 Sm1 C13 80.73(18) 1_655 .
O1W Sm1 C13 101.7(2) . .
O5 Sm1 C13 25.68(17) . .
O7 Sm1 C13 104.65(18) 2_876 .
O3 Sm1 C13 73.71(18) 2_766 .
O4 Sm1 C13 26.47(18) . .
O2 Sm1 C13 125.83(17) 2_766 .
O6 Sm1 C13 98.51(17) 2_876 .
O2W Sm1 C12 99.43(19) . 2_766
O6 Sm1 C12 170.16(18) 1_655 2_766
O1W Sm1 C12 84.9(2) . 2_766
O5 Sm1 C12 104.28(19) . 2_766
O7 Sm1 C12 74.28(18) 2_876 2_766
O3 Sm1 C12 26.70(19) 2_766 2_766
O4 Sm1 C12 95.7(2) . 2_766
O2 Sm1 C12 25.56(19) 2_766 2_766
O6 Sm1 C12 124.13(18) 2_876 2_766
C13 Sm1 C12 100.4(2) . 2_766
O2W Sm1 C14 76.45(18) . 2_876
O6 Sm1 C14 90.35(16) 1_655 2_876
O1W Sm1 C14 152.3(2) . 2_876
O5 Sm1 C14 78.93(16) . 2_876
O7 Sm1 C14 24.85(16) 2_876 2_876
O3 Sm1 C14 103.69(18) 2_766 2_876
O4 Sm1 C14 131.01(18) . 2_876
O2 Sm1 C14 92.70(18) 2_766 2_876
O6 Sm1 C14 25.38(15) 2_876 2_876
C13 Sm1 C14 104.61(18) . 2_876
C12 Sm1 C14 98.77(18) 2_766 2_876
Sm1 O1W H1WA 109.3 . .
Sm1 O1W H1WB 109.3 . .
H1WA O1W H1WB 109.5 . .
C12 O2 Sm1 92.1(4) . 2_766
Sm1 O2W H2WA 109.6 . .
Sm1 O2W H2WB 109.4 . .
H2WA O2W H2WB 109.3 . .
C12 O3 Sm1 93.3(4) . 2_766
C13 O4 Sm1 91.5(4) . .
C13 O5 Sm1 95.5(4) . .
C14 O6 Sm1 156.3(4) . 1_455
C14 O6 Sm1 88.6(4) . 2_876
Sm1 O6 Sm1 115.02(16) 1_455 2_876
C14 O7 Sm1 99.3(4) . 2_876
C5 N1 C1A 117.8(8) . .
C5 N1 C1 108.5(10) . .
C6 O1 C2 120.2(13) . .
C2 C1 N1 122.5(16) . .
C2 C1 H1 118.7 . .
N1 C1 H1 118.7 . .
C3 C2 C1 119.5(18) . .
C3 C2 O1 124.0(18) . .
C1 C2 O1 116.5(17) . .
C2 C3 C4 116.7(16) . .
C2 C3 H3 121.7 . .
C4 C3 H3 121.7 . .
C11 O1A C2A 122.0(8) . .
N1 C1A C2A 119.8(10) . .
N1 C1A H1A 120.1 . .
C2A C1A H1A 120.1 . .
O1A C2A C1A 115.7(10) . .
O1A C2A C3A 125.4(10) . .
C1A C2A C3A 118.5(10) . .
C4 C3A C2A 121.1(10) . .
C4 C3A H3A 119.5 . .
C2A C3A H3A 119.5 . .
C5 C4 C3A 115.7(8) . .
C5 C4 C12 121.4(7) . .
C3A C4 C12 121.3(8) . .
C5 C4 C3 121.2(9) . .
C12 C4 C3 112.8(9) . .
N1 C5 C4 123.7(7) . .
N1 C5 H5 118.2 . .
C4 C5 H5 118.2 . .
C7 C6 O1 139.0(13) . .
C7 C6 C11 117.9(8) . .
O1 C6 C11 102.4(11) . .
C7 C6 H6 121.0 . .
C11 C6 H6 121.0 . .
C6 C7 C8 122.1(9) . .
C6 C7 H7 118.9 . .
C8 C7 H7 118.9 . .
C7 C8 C9 118.9(7) . .
C7 C8 C13 121.4(7) . .
C9 C8 C13 119.8(6) . .
C10 C9 C8 119.4(7) . .
C10 C9 C14 117.9(7) . .
C8 C9 C14 122.7(6) . .
C9 C10 C11 120.2(9) . .
C9 C10 H10 119.9 . .
C11 C10 H10 119.9 . .
O1A C11 C10 123.5(11) . .
O1A C11 C6 114.7(9) . .
C10 C11 C6 121.4(9) . .
C10 C11 H11 119.3 . .
C6 C11 H11 119.3 . .
O2 C12 O3 122.3(6) . .
O2 C12 C4 119.5(7) . .
O3 C12 C4 118.2(6) . .
O2 C12 Sm1 62.3(4) . 2_766
O3 C12 Sm1 60.0(3) . 2_766
C4 C12 Sm1 178.0(5) . 2_766
O5 C13 O4 120.8(7) . .
O5 C13 C8 120.0(6) . .
O4 C13 C8 119.2(6) . .
O5 C13 Sm1 58.8(4) . .
O4 C13 Sm1 62.1(4) . .
C8 C13 Sm1 176.9(5) . .
O7 C14 O6 121.4(6) . .
O7 C14 C9 117.5(6) . .
O6 C14 C9 120.7(5) . .
O7 C14 Sm1 55.9(3) . 2_876
O6 C14 Sm1 66.0(3) . 2_876
C9 C14 Sm1 164.9(5) . 2_876
H3WA O3W H3WB 109.5 . .
loop_
_geom_bond_atom_site_label_1
_geom_bond_atom_site_label_2
_geom_bond_distance
_geom_bond_site_symmetry_2
Sm1 O2W 2.382(5) .
Sm1 O6 2.394(4) 1_655
Sm1 O1W 2.431(5) .
Sm1 O5 2.440(5) .
Sm1 O7 2.467(5) 2_876
Sm1 O3 2.476(5) 2_766
Sm1 O4 2.509(6) .
Sm1 O2 2.529(5) 2_766
Sm1 O6 2.687(5) 2_876
Sm1 C13 2.839(7) .
Sm1 C12 2.855(7) 2_766
Sm1 C14 2.941(7) 2_876
O1W H1WA 0.9600 .
O1W H1WB 0.9600 .
O2 C12 1.233(9) .
O2 Sm1 2.529(5) 2_766
O2W H2WA 0.8530 .
O2W H2WB 0.8522 .
O3 C12 1.285(9) .
O3 Sm1 2.476(5) 2_766
O4 C13 1.266(9) .
O5 C13 1.236(8) .
O6 C14 1.261(7) .
O6 Sm1 2.394(4) 1_455
O6 Sm1 2.687(5) 2_876
O7 C14 1.252(8) .
O7 Sm1 2.467(5) 2_876
N1 C5 1.317(10) .
N1 C1A 1.342(14) .
N1 C1 1.61(2) .
O1 C6 1.368(14) .
O1 C2 1.42(2) .
C1 C2 1.39(3) .
C1 H1 0.9300 .
C2 C3 1.33(3) .
C3 C4 1.53(2) .
C3 H3 0.9300 .
O1A C11 1.338(12) .
O1A C2A 1.366(13) .
C1A C2A 1.373(16) .
C1A H1A 0.9300 .
C2A C3A 1.374(15) .
C3A C4 1.366(13) .
C3A H3A 0.9300 .
C4 C5 1.362(11) .
C4 C12 1.491(9) .
C5 H5 0.9300 .
C6 C7 1.367(14) .
C6 C11 1.383(15) .
C6 H6 0.9300 .
C7 C8 1.380(11) .
C7 H7 0.9300 .
C8 C9 1.404(10) .
C8 C13 1.490(11) .
C9 C10 1.368(10) .
C9 C14 1.508(9) .
C10 C11 1.377(12) .
C10 H10 0.9300 .
C11 H11 0.9300 .
C12 Sm1 2.854(7) 2_766
C14 Sm1 2.941(7) 2_876
O3W H3WA 0.8500 .
O3W H3WB 0.8500 .
loop_
_geom_torsion_atom_site_label_1
_geom_torsion_atom_site_label_2
_geom_torsion_atom_site_label_3
_geom_torsion_atom_site_label_4
_geom_torsion
_geom_torsion_site_symmetry_1
_geom_torsion_site_symmetry_4
C5 N1 C1 C2 -28(2) . .
N1 C1 C2 C3 16(3) . .
N1 C1 C2 O1 -164.4(16) . .
C6 O1 C2 C3 -37(3) . .
C6 O1 C2 C1 143.4(19) . .
C1 C2 C3 C4 -6(3) . .
O1 C2 C3 C4 174.6(17) . .
C5 N1 C1A C2A 19(2) . .
C11 O1A C2A C1A -156.5(12) . .
C11 O1A C2A C3A 30.1(18) . .
N1 C1A C2A O1A 176.7(12) . .
N1 C1A C2A C3A -9(2) . .
O1A C2A C3A C4 175.2(11) . .
C1A C2A C3A C4 1.9(19) . .
C2A C3A C4 C5 -4.0(17) . .
C2A C3A C4 C12 -170.0(10) . .
C2 C3 C4 C5 9(3) . .
C2 C3 C4 C12 165.1(16) . .
C1A N1 C5 C4 -22.3(19) . .
C1 N1 C5 C4 31.3(16) . .
C3A C4 C5 N1 14.6(16) . .
C12 C4 C5 N1 -179.5(10) . .
C3 C4 C5 N1 -25.2(19) . .
C2 O1 C6 C7 134.3(17) . .
C2 O1 C6 C11 -55.9(18) . .
O1 C6 C7 C8 167.0(13) . .
C11 C6 C7 C8 -1.7(14) . .
C6 C7 C8 C9 2.0(12) . .
C6 C7 C8 C13 -177.6(8) . .
C7 C8 C9 C10 -1.0(10) . .
C13 C8 C9 C10 178.6(6) . .
C7 C8 C9 C14 -178.9(7) . .
C13 C8 C9 C14 0.7(9) . .
C8 C9 C10 C11 0.0(10) . .
C14 C9 C10 C11 178.0(6) . .
C2A O1A C11 C10 -132.2(10) . .
C2A O1A C11 C6 54.5(13) . .
C9 C10 C11 O1A -172.6(7) . .
C9 C10 C11 C6 0.3(12) . .
C7 C6 C11 O1A 174.1(8) . .
C7 C6 C11 C10 0.6(13) . .
O1 C6 C11 C10 -171.8(9) . .
Sm1 O2 C12 O3 -0.9(8) 2_766 .
Sm1 O2 C12 C4 -178.9(6) 2_766 .
Sm1 O3 C12 O2 0.9(8) 2_766 .
Sm1 O3 C12 C4 178.9(6) 2_766 .
C5 C4 C12 O2 -21.9(13) . .
C3A C4 C12 O2 143.2(10) . .
C3 C4 C12 O2 -178.2(11) . .
C5 C4 C12 O3 160.0(8) . .
C3A C4 C12 O3 -34.9(13) . .
C3 C4 C12 O3 3.7(14) . .
Sm1 O5 C13 O4 -3.5(7) . .
Sm1 O5 C13 C8 176.7(5) . .
Sm1 O4 C13 O5 3.4(7) . .
Sm1 O4 C13 C8 -176.8(5) . .
C7 C8 C13 O5 174.3(7) . .
C9 C8 C13 O5 -5.2(10) . .
C7 C8 C13 O4 -5.5(11) . .
C9 C8 C13 O4 174.9(6) . .
Sm1 O7 C14 O6 -8.3(7) 2_876 .
Sm1 O7 C14 C9 164.1(5) 2_876 .
Sm1 O6 C14 O7 -176.5(7) 1_455 .
Sm1 O6 C14 O7 7.5(6) 2_876 .
Sm1 O6 C14 C9 11.3(15) 1_455 .
Sm1 O6 C14 C9 -164.7(6) 2_876 .
Sm1 O6 C14 Sm1 176.0(11) 1_455 2_876
C10 C9 C14 O7 -82.1(8) . .
C8 C9 C14 O7 95.8(8) . .
C10 C9 C14 O6 90.4(8) . .
C8 C9 C14 O6 -91.7(8) . .
C10 C9 C14 Sm1 -22.0(19) . 2_876
C8 C9 C14 Sm1 156.0(13) . 2_876
