#------------------------------------------------------------------------------
#$Date: 2019-11-24 10:01:59 +0200 (Sun, 24 Nov 2019) $
#$Revision: 237558 $
#$URL: file:///home/coder/svn-repositories/cod/cif/7/23/72/7237287.cif $
#------------------------------------------------------------------------------
#
# This file is available in the Crystallography Open Database (COD),
# http://www.crystallography.net/
#
# All data on this site have been placed in the public domain by the
# contributors.
#
data_7237287
loop_
_publ_author_name
'Wang, Sha-Sha'
'Chen, Xiao-Xian'
'Huang, Bo'
'Su, Yu-Jun'
'Zhang, Wei-Xiong'
'Zeng, Ming-Hua'
'Chen, Xiao-Ming'
_publ_section_title
;
 Bromocholine bromide is a molecular ferroelectric with moderate phase
 transition temperature
;
_journal_issue                   9
_journal_name_full               'Journal of Materials Chemistry C'
_journal_page_first              2221
_journal_paper_doi               10.1039/C8TC00419F
_journal_volume                  6
_journal_year                    2018
_chemical_formula_moiety         'C5 H13 Br N, Br'
_chemical_formula_sum            'C5 H13 Br2 N'
_chemical_formula_weight         246.98
_chemical_name_common            'bromocholine bromide'
_chemical_name_systematic        '(2-Bromoethyl)trimethylammonium bromide '
_space_group_crystal_system      monoclinic
_space_group_IT_number           4
_space_group_name_Hall           'P 2yb'
_space_group_name_H-M_alt        'P 1 21 1'
_atom_sites_solution_hydrogens   geom
_atom_sites_solution_primary     direct
_audit_creation_date             2017-10-03
_audit_creation_method
;
Olex2 1.2
(compiled 2017.08.10 svn.r3458 for OlexSys, GUI svn.r5381)
;
_audit_update_record
;
2018-01-24 deposited with the CCDC.
2018-02-07 downloaded from the CCDC.
;
_cell_angle_alpha                90
_cell_angle_beta                 108.893(4)
_cell_angle_gamma                90
_cell_formula_units_Z            2
_cell_length_a                   7.2735(3)
_cell_length_b                   8.5710(3)
_cell_length_c                   7.4768(3)
_cell_measurement_reflns_used    6424
_cell_measurement_temperature    295(2)
_cell_measurement_theta_max      31.0450
_cell_measurement_theta_min      2.3870
_cell_volume                     441.00(3)
_computing_molecular_graphics    'Olex2 (Dolomanov et al., 2009)'
_computing_publication_material  'Olex2 (Dolomanov et al., 2009)'
_computing_structure_refinement  'ShelXL (Sheldrick, 2015)'
_computing_structure_solution    'XS (Sheldrick, 2008)'
_diffrn_ambient_temperature      295(2)
_diffrn_measured_fraction_theta_full 1.000
_diffrn_measured_fraction_theta_max 1.000
_diffrn_measurement_device_type  'multiwire proportional'
_diffrn_measurement_method       'phi and omega scans'
_diffrn_radiation_monochromator  graphite
_diffrn_radiation_type           MoK\a
_diffrn_radiation_wavelength     0.71073
_diffrn_reflns_av_R_equivalents  0.0651
_diffrn_reflns_av_unetI/netI     0.0330
_diffrn_reflns_Laue_measured_fraction_full 1.000
_diffrn_reflns_Laue_measured_fraction_max 1.000
_diffrn_reflns_limit_h_max       8
_diffrn_reflns_limit_h_min       -8
_diffrn_reflns_limit_k_max       10
_diffrn_reflns_limit_k_min       -10
_diffrn_reflns_limit_l_max       9
_diffrn_reflns_limit_l_min       -9
_diffrn_reflns_number            7405
_diffrn_reflns_point_group_measured_fraction_full 0.997
_diffrn_reflns_point_group_measured_fraction_max 0.997
_diffrn_reflns_theta_full        25.242
_diffrn_reflns_theta_max         26.000
_diffrn_reflns_theta_min         2.879
_exptl_absorpt_coefficient_mu    9.109
_exptl_absorpt_correction_type   none
_exptl_crystal_colour            colorless
_exptl_crystal_density_diffrn    1.860
_exptl_crystal_description       block
_exptl_crystal_F_000             240
_exptl_crystal_recrystallization_method
'Re-crystallisation from solvent: methanol'
_refine_diff_density_max         1.050
_refine_diff_density_min         -0.616
_refine_diff_density_rms         0.118
_refine_ls_abs_structure_details
;
 Flack x determined using 739 quotients [(I+)-(I-)]/[(I+)+(I-)]
 (Parsons, Flack and Wagner, Acta Cryst. B69 (2013) 249-259).
;
_refine_ls_abs_structure_Flack   0.073(19)
_refine_ls_extinction_coef       0.053(5)
_refine_ls_extinction_expression Fc^*^=kFc[1+0.001xFc^2^\l^3^/sin(2\q)]^-1/4^
_refine_ls_extinction_method     'SHELXL-2014/7 (Sheldrick 2014'
_refine_ls_goodness_of_fit_ref   1.075
_refine_ls_hydrogen_treatment    constr
_refine_ls_matrix_type           full
_refine_ls_number_parameters     77
_refine_ls_number_reflns         1716
_refine_ls_number_restraints     1
_refine_ls_restrained_S_all      1.074
_refine_ls_R_factor_all          0.0316
_refine_ls_R_factor_gt           0.0300
_refine_ls_shift/su_max          0.000
_refine_ls_shift/su_mean         0.000
_refine_ls_structure_factor_coef Fsqd
_refine_ls_weighting_details
'w=1/[\s^2^(Fo^2^)+(0.0585P)^2^] where P=(Fo^2^+2Fc^2^)/3'
_refine_ls_weighting_scheme      calc
_refine_ls_wR_factor_gt          0.0779
_refine_ls_wR_factor_ref         0.0786
_reflns_Friedel_coverage         0.861
_reflns_Friedel_fraction_full    0.995
_reflns_Friedel_fraction_max     0.993
_reflns_number_gt                1657
_reflns_number_total             1716
_reflns_threshold_expression     'I > 2\s(I)'
_cod_data_source_file            c8tc00419f2.cif
_cod_data_source_block           LT
_cod_database_code               7237287
_shelx_shelxl_version_number     2014/7
_shelx_space_group_comment
;
The symmetry employed for this shelxl refinement is uniquely defined
by the following loop, which should always be used as a source of
symmetry information in preference to the above space-group names.
They are only intended as comments.
;
_olex2_refinement_description
;
1. Fixed Uiso
 At 1.2 times of:
  All C(H,H) groups
 At 1.5 times of:
  All C(H,H,H) groups
2.a Secondary CH2 refined with riding coordinates:
 C4(H4A,H4B), C5(H5A,H5B)
2.b Idealised Me refined as rotating group:
 C1(H1A,H1B,H1C), C2(H2A,H2B,H2C), C3(H3A,H3B,H3C)
;
_shelx_res_file
;
    a.res created by SHELXL-2014/7

TITL LT in P21 #4
REM reset to P21 #4
CELL 0.71073 7.2735 8.571 7.4768 90 108.893 90
ZERR 2 0.0003 0.0003 0.0003 0 0.004 0
LATT -1
SYMM -X,0.5+Y,-Z
SFAC C H Br N
UNIT 10 26 4 2

L.S. 20
PLAN  20
fmap 2
acta
OMIT -3 52
OMIT 4 2 2
REM <olex2.extras>
REM <HklSrc "%.\\a.hkl">
REM </olex2.extras>

WGHT    0.058500
EXTI    0.053172
FVAR       0.41906
BR1   3    0.521049    0.694697    0.043864    11.00000    0.03852    0.07936 =
         0.03771   -0.00613    0.01634   -0.00445
BR2   3    0.829740    0.647892    0.754681    11.00000    0.03750    0.04313 =
         0.03499    0.00003    0.01187   -0.00214
N1    4    0.218854    0.618036    0.429493    11.00000    0.03134    0.04197 =
         0.02816    0.00346    0.00892   -0.00046
C1    1    0.247839    0.773114    0.530785    11.00000    0.06091    0.03377 =
         0.04752    0.00112    0.02480    0.00728
AFIX 137
H1A   2    0.161045    0.780709    0.603586    11.00000   -1.50000
H1B   2    0.221267    0.856123    0.439755    11.00000   -1.50000
H1C   2    0.379630    0.781074    0.613395    11.00000   -1.50000
AFIX   0
C2    1    0.010461    0.602654    0.305488    11.00000    0.02412    0.07634 =
         0.04517    0.00720    0.00737   -0.00211
AFIX 137
H2A   2   -0.005654    0.507374    0.234565    11.00000   -1.50000
H2B   2   -0.023582    0.689546    0.220050    11.00000   -1.50000
H2C   2   -0.072329    0.601229    0.382738    11.00000   -1.50000
AFIX   0
C3    1    0.267151    0.492126    0.576297    11.00000    0.05087    0.03815 =
         0.04204    0.00538    0.01561    0.00314
AFIX 137
H3A   2    0.399366    0.503792    0.656655    11.00000   -1.50000
H3B   2    0.251034    0.392037    0.515531    11.00000   -1.50000
H3C   2    0.182012    0.499843    0.650804    11.00000   -1.50000
AFIX   0
C4    1    0.352620    0.602080    0.313915    11.00000    0.02727    0.04731 =
         0.03294   -0.00098    0.00651    0.00383
AFIX  23
H4A   2    0.340191    0.497478    0.261815    11.00000   -1.20000
H4B   2    0.485538    0.614784    0.396435    11.00000   -1.20000
AFIX   0
C5    1    0.313687    0.718742    0.153177    11.00000    0.03784    0.05636 =
         0.03418    0.00094    0.01294   -0.00090
AFIX  23
H5A   2    0.312946    0.824110    0.200279    11.00000   -1.20000
H5B   2    0.188591    0.698263    0.058789    11.00000   -1.20000
AFIX   0
HKLF 4

REM  LT in P21 #4
REM R1 =  0.0300 for    1657 Fo > 4sig(Fo)  and  0.0316 for all    1716 data
REM     77 parameters refined using      1 restraints

END

WGHT      0.0585      0.0000

REM Highest difference peak  1.050,  deepest hole -0.616,  1-sigma level  0.118
Q1    1   0.5225  0.5953  0.0478  11.00000  0.05    1.05
Q2    1   0.8318  0.7399  0.7551  11.00000  0.05    0.62
Q3    1   0.4963  0.8872  0.5063  11.00000  0.05    0.33
Q4    1   0.6515  0.7767 -0.1396  11.00000  0.05    0.26
Q5    1  -0.0015  0.8143 -0.0471  11.00000  0.05    0.26
Q6    1   0.3581  0.6921  0.3168  11.00000  0.05    0.25
Q7    1   0.2456  0.6883 -0.0043  11.00000  0.05    0.25
Q8    1  -0.0031  0.4948 -0.0341  11.00000  0.05    0.24
Q9    1   0.5005  0.5017  0.4307  11.00000  0.05    0.24
Q10   1   0.3363  0.8649 -0.0848  11.00000  0.05    0.24
Q11   1   0.3428  0.5783  0.1867  11.00000  0.05    0.24
Q12   1   0.3536  0.9974  0.2529  11.00000  0.05    0.24
Q13   1   0.1454  0.4315  0.7942  11.00000  0.05    0.24
Q14   1   0.2027  0.3990  0.0437  11.00000  0.05    0.23
Q15   1   0.1784  0.8963 -0.0197  11.00000  0.05    0.23
Q16   1   0.3394  0.4631  0.3095  11.00000  0.05    0.23
Q17   1  -0.0545  0.5615  0.3211  11.00000  0.05    0.23
Q18   1   0.3646  0.9934  0.3778  11.00000  0.05    0.22
Q19   1   0.7253  0.8527  0.1104  11.00000  0.05    0.22
Q20   1  -0.0061  0.8824  0.2392  11.00000  0.05    0.22
;
_shelx_res_checksum              48835
_shelx_hkl_file
;
   0 -11   1   12.14    2.10
   0 -11  -1   13.46    2.14
   0 -11   2    0.57    1.79
   0 -10   0    2.11    0.85
   0 -10   0    0.72    1.54
   0 -10  -1    0.54    0.82
   0 -10  -1    1.56    1.56
   0 -10  -2   28.36    2.41
   0 -10   2   26.35    2.19
   0 -10  -2   30.05    1.55
   0 -10  -3    7.42    1.08
   0 -10  -3    1.74    1.77
   0 -10  -4    6.91    2.04
   0 -10  -4    8.21    1.40
   0  -9   0   -0.18    0.76
   0  -9   0   -0.01    0.73
   0  -9   0    0.28    1.29
   0  -9  -1   48.56    2.62
   0  -9  -1   51.65    1.95
   0  -9   2    3.55    1.38
   0  -9  -2    3.16    0.96
   0  -9  -2    2.97    1.47
   0  -9  -3   12.91    1.82
   0  -9  -3   13.19    1.26
   0  -9  -4    3.33    1.73
   0  -9  -4   -1.59    0.89
   0  -9  -5   22.44    2.32
   0  -8   0   19.25    1.66
   0  -8   0   22.05    1.07
   0  -8   0   20.81    1.14
   0  -8  -1   39.26    1.45
   0  -8   1   32.74    1.45
   0  -8  -1   29.94    2.07
   0  -8   1   30.90    2.00
   0  -8  -1   40.45    1.61
   0  -8  -1   34.68    1.51
   0  -8   1   37.85    1.22
   0  -8  -2   68.73    3.05
   0  -8  -2   71.46    2.54
   0  -8  -3   10.91    0.93
   0  -8  -3    8.95    1.50
   0  -8  -3   10.56    1.15
   0  -8  -4   26.09    1.36
   0  -8  -4   25.33    2.11
   0  -8  -5    0.39    1.66
   0  -8  -6   18.72    2.23
   0  -7   0    0.04    0.51
   0  -7   0    0.16    0.53
   0  -7  -1  136.43    2.88
   0  -7   1  141.33    2.84
   0  -7  -1  133.01    3.53
   0  -7  -2   16.58    0.94
   0  -7  -2   14.88    1.05
   0  -7  -2   14.22    1.38
   0  -7  -3   41.87    2.27
   0  -7  -3   41.82    1.62
   0  -7  -4    5.05    1.30
   0  -7  -4    6.57    0.93
   0  -7  -5   71.78    2.46
   0  -7  -5   61.50    2.90
   0  -7  -6    9.47    1.74
   0  -6   0  181.25    4.56
   0  -6   0  180.25    4.91
   0  -6  -1  122.26    2.66
   0  -6  -1  147.65    2.66
   0  -6  -1  119.44    2.51
   0  -6  -1  144.67    2.53
   0  -6   1  115.95    2.91
   0  -6   2  154.97    2.92
   0  -6  -2  180.74    2.45
   0  -6  -3   18.34    1.00
   0  -6  -3   18.11    1.39
   0  -6  -4   61.36    2.66
   0  -6  -4   59.75    2.14
   0  -6  -5    5.51    1.29
   0  -6  -6   52.58    2.65
   0  -6  -7    1.64    1.61
   0  -6  -8    7.27    1.94
   0  -5   0    0.09    0.55
   0  -5   0   -0.01    0.39
   0  -5   0    1.50    0.56
   0  -5   1  173.86    4.27
   0  -5  -1  167.77    4.89
   0  -5   1  155.54    4.78
   0  -5  -1  173.87    4.72
   0  -5   1  162.22    4.50
   0  -5  -2  104.72    2.17
   0  -5  -2  102.73    1.81
   0  -5  -3  244.58    6.61
   0  -5  -3  237.87    7.02
   0  -5  -4   37.68    1.94
   0  -5  -5   79.68    3.05
   0  -5  -6   29.55    1.93
   0  -5   6   26.75    0.87
   0  -5  -7   42.29    2.48
   0  -5   7   39.90    1.32
   0  -5   7   39.16    1.32
   0  -5  -7   40.66    2.32
   0  -5  -8    3.97    1.67
   0  -5  -8    4.04    1.74
   0  -5  -9   15.01    2.25
   0  -5  -9   17.96    2.10
   0  -4   0  604.55    3.40
   0  -4   0  653.02    3.27
   0  -4   0  618.68    3.60
   0  -4   0  672.80    4.18
   0  -4  -1  304.63    7.51
   0  -4   1  281.94    7.75
   0  -4   1  291.95    7.53
   0  -4  -1  298.24    7.84
   0  -4  -1  295.42    7.66
   0  -4   2  292.12    7.88
   0  -4  -2  295.06    7.99
   0  -4  -2  296.90    7.85
   0  -4  -3   32.48    1.55
   0  -4  -3   36.19    1.49
   0  -4   4  164.44    4.25
   0  -4   4  167.85    4.25
   0  -4  -4  173.97    4.98
   0  -4   5    9.64    0.56
   0  -4   5   11.91    0.61
   0  -4   5    9.96    0.59
   0  -4   6   67.40    2.07
   0  -4  -6   68.10    2.65
   0  -4   7    6.42    0.79
   0  -4  -7    5.13    1.36
   0  -4  -7    4.97    1.33
   0  -4  -8    7.70    1.74
   0  -4  -8    7.69    1.58
   0  -4   8    7.22    0.95
   0  -4   8    6.35    0.89
   0  -4  -9    3.71    1.83
   0  -4  -9    4.29    1.81
   0  -3   0   -0.02    0.23
   0  -3   0    0.11    0.22
   0  -3   0    0.09    0.32
   0  -3   0    0.07    0.19
   0  -3   0   -0.03    0.23
   0  -3  -1  105.77    2.72
   0  -3  -1   98.77    2.84
   0  -3  -1  103.40    2.73
   0  -3  -1   94.36    2.68
   0  -3   1   96.33    2.77
   0  -3   1  100.49    2.64
   0  -3  -1   94.88    2.58
   0  -3  -2  157.79    1.94
   0  -3  -2  155.18    2.20
   0  -3  -3  863.36   20.50
   0  -3  -3  890.34   20.46
   0  -3   4   96.43    2.72
   0  -3  -4  124.93    3.39
   0  -3  -4   86.38    3.03
   0  -3   4  111.20    2.77
   0  -3  -4  103.94    3.11
   0  -3  -5   41.13    1.83
   0  -3   5   40.62    1.60
   0  -3   5   43.03    1.47
   0  -3   6   44.99    1.80
   0  -3   6   46.32    1.70
   0  -3   7  177.64    4.40
   0  -3   7  131.60    4.16
   0  -3   8   -1.77    0.58
   0  -3  -8   21.80    1.93
   0  -3  -9   13.68    1.99
   0  -3   9   14.89    1.39
   0  -3  -9   12.64    2.00
   0  -3 -10    1.13    1.83
   0  -2   0 1523.65   31.77
   0  -2   0 1533.30   31.95
   0  -2   0 1496.00   31.76
   0  -2   0 1615.84   31.84
   0  -2  -1  474.10    3.18
   0  -2  -1  460.69    2.81
   0  -2  -2  243.53    5.74
   0  -2  -2  246.76    5.70
   0  -2  -2  217.34    5.70
   0  -2   2  228.02    5.42
   0  -2  -2  216.56    5.64
   0  -2   2  208.49    5.43
   0  -2   3  120.82    3.01
   0  -2  -3  109.26    3.22
   0  -2  -3  128.39    3.33
   0  -2   3  115.35    3.01
   0  -2  -3  124.09    3.27
   0  -2   3  103.03    3.06
   0  -2  -4  417.14    9.90
   0  -2  -4  358.12    9.80
   0  -2   5    8.06    0.69
   0  -2   5    7.93    0.74
   0  -2  -5    7.66    0.95
   0  -2   6   92.54    2.95
   0  -2   6   89.17    2.92
   0  -2  -6   91.66    3.32
   0  -2  -7    6.34    1.33
   0  -2   7    8.67    0.97
   0  -2   8    2.47    1.10
   0  -2   9    3.98    1.20
   0  -2  -9    2.60    1.74
   0  -2 -10   21.63    2.00
   0  -1   0    3.10    0.18
   0  -1   0   -0.16    0.04
   0  -1  -1   63.28    0.83
   0  -1  -1   62.30    0.77
   0  -1   1   60.87    0.67
   0  -1  -1   63.71    0.82
   0  -1  -2  102.43    1.42
   0  -1  -2   91.52    1.37
   0  -1   2  100.63    1.13
   0  -1   2  101.79    1.15
   0  -1   2   89.16    1.16
   0  -1  -3  884.71   22.39
   0  -1   3  905.12   22.27
   0  -1   3  899.39   22.28
   0  -1  -3  920.60   22.41
   0  -1  -4  267.33    7.55
   0  -1   4  285.55    7.43
   0  -1  -4  313.99    7.61
   0  -1   4  289.97    7.41
   0  -1   4  308.70    7.45
   0  -1  -5   11.77    1.03
   0  -1   5   11.36    0.82
   0  -1   6   47.27    1.91
   0  -1  -6   42.75    2.13
   0  -1  -7  234.42    6.26
   0  -1   7  184.47    5.56
   0  -1  -8   45.10    2.58
   0  -1   8   45.25    2.07
   0  -1   9    5.01    1.33
   0  -1  -9    4.38    1.79
   0  -1  10    1.91    1.47
   0   0   1   76.79    2.31
   0   0  -1  104.75    2.35
   0   0   1  104.14    2.36
   0   0  -1   97.88    2.34
   0   0   1   99.40    2.34
   0   0  -1  103.77    2.38
   0   0   1   74.11    2.31
   0   0  -2    6.94    0.38
   0   0   2    7.46    0.39
   0   0   2    7.54    0.43
   0   0   2    7.16    0.40
   0   0  -2    6.47    0.42
   0   0  -3  122.33    3.52
   0   0  -3  133.21    3.48
   0   0   3  123.12    3.44
   0   0   3  133.93    3.47
   0   0   3  132.78    3.49
   0   0  -4  496.67   12.12
   0   0   4  501.19   12.11
   0   0   4  498.96   12.12
   0   0   5   18.52    0.98
   0   0   5   19.34    1.07
   0   0  -6  106.01    3.61
   0   0   6  104.97    3.36
   0   0  -7    3.60    1.22
   0   0  -8    0.23    1.47
   0   0   8   -0.42    1.11
   0   0   9    2.09    1.35
   0   0  -9    2.84    1.79
   0   0  10   28.91    2.22
   0   1   0    0.27    0.10
   0   1   1   58.61    1.58
   0   1   1   63.31    1.54
   0   1   1   62.15    1.58
   0   1   2  118.76    2.82
   0   1   2  109.76    2.82
   0   1  -2   97.52    2.80
   0   1   2   99.96    2.80
   0   1  -2   93.85    2.70
   0   1  -2  108.42    2.67
   0   1   3  960.05    4.95
   0   1   3  966.64    2.92
   0   1  -3  974.80    4.71
   0   1  -3  834.76    4.01
   0   1  -3  866.05    5.00
   0   1   3 1032.08    5.00
   0   1   4  293.16    7.28
   0   1   4  314.48    7.34
   0   1  -4  297.09    7.12
   0   1   4  326.50    7.35
   0   1   5   16.39    1.08
   0   1   5   12.83    0.93
   0   1   5   16.46    1.13
   0   1  -5   16.18    1.04
   0   1   6   52.61    2.12
   0   1  -6   46.42    2.19
   0   1  -7  217.90    6.55
   0   1   7  226.54    6.38
   0   1  -8   44.97    2.58
   0   1   8   49.56    2.36
   0   1  -9    7.11    1.94
   0   1   9    6.78    1.55
   0   2   0 1576.05   36.33
   0   2   0 1568.02   36.21
   0   2   0 1551.94   36.16
   0   2   0 1449.86   36.17
   0   2   0 1412.43   36.22
   0   2   0 1582.03   36.26
   0   2   1  465.50   11.95
   0   2   1  501.73   11.87
   0   2  -1  498.55   11.96
   0   2  -1  507.22   11.91
   0   2   1  477.55   11.94
   0   2   1  492.52   11.95
   0   2   2  225.60    5.98
   0   2  -2  212.79    5.84
   0   2  -2  233.45    5.89
   0   2  -2  249.12    5.97
   0   2   2  242.10    6.00
   0   2   2  263.15    5.95
   0   2  -2  234.36    5.71
   0   2  -3   86.39    2.76
   0   2   3  110.91    2.82
   0   2   3   93.82    2.83
   0   2   3  108.67    2.90
   0   2  -3   98.87    2.54
   0   2  -3   86.02    2.62
   0   2   4  422.22   10.00
   0   2  -4  372.53    9.80
   0   2  -4  352.48    9.93
   0   2   4  427.69    9.93
   0   2  -4  388.38    9.43
   0   2  -5   -0.02    0.15
   0   2   5    8.68    0.43
   0   2  -5   11.00    0.82
   0   2   5   -0.29    0.20
   0   2   5   10.95    1.09
   0   2   6   87.85    2.91
   0   2  -6   87.29    3.03
   0   2   7    9.13    1.29
   0   2  -7    8.31    1.41
   0   2  -8    2.84    1.45
   0   2  -9    3.19    1.75
   0   2   9    5.02    1.57
   0   3   0    0.07    0.27
   0   3   0    0.07    0.34
   0   3   0    0.04    0.24
   0   3   0    0.10    0.21
   0   3   0   -0.08    0.22
   0   3  -1  109.40    3.00
   0   3  -1  111.08    2.90
   0   3   1  107.91    2.96
   0   3   1  114.77    2.92
   0   3   1  101.43    2.91
   0   3  -1  103.61    2.95
   0   3   1  112.15    2.85
   0   3  -1  106.97    2.93
   0   3  -2  190.19    4.85
   0   3  -2  171.61    4.74
   0   3   2  181.24    4.89
   0   3   2  194.91    4.90
   0   3   2  198.13    4.79
   0   3  -2  183.74    4.83
   0   3  -3  821.00   20.37
   0   3   3  886.41   20.56
   0   3  -3  844.88   20.39
   0   3  -3  863.57   20.48
   0   3  -3  754.84   20.45
   0   3   3  969.62   20.49
   0   3   3  742.38   20.51
   0   3   4  106.77    2.43
   0   3  -4   91.70    2.03
   0   3  -4   98.91    2.34
   0   3  -4  110.99    2.38
   0   3  -4  102.57    2.08
   0   3  -5   43.41    1.80
   0   3  -5   44.98    1.11
   0   3   5   40.49    1.18
   0   3  -5   53.11    1.40
   0   3   5   53.75    1.80
   0   3   6   53.01    1.66
   0   3  -6   57.58    2.23
   0   3   6   53.39    2.34
   0   3  -6   52.99    2.36
   0   3   7  123.05    3.26
   0   3   7  120.68    4.18
   0   3  -7  130.78    4.46
   0   3  -8   23.70    2.13
   0   3   8   25.73    2.02
   0   4   0  705.67   15.58
   0   4   0  611.16   15.19
   0   4   0  608.12   15.27
   0   4   0  664.22   15.19
   0   4   0  570.93   15.33
   0   4  -1  256.42    7.50
   0   4   1  281.27    7.61
   0   4  -1  346.95    7.81
   0   4   1  302.64    7.56
   0   4  -1  316.12    7.56
   0   4   1  345.68    7.60
   0   4  -1  331.95    7.71
   0   4  -1  285.50    7.26
   0   4   2  277.88    7.72
   0   4   2  328.16    7.77
   0   4  -2  316.43    7.77
   0   4  -2  292.12    7.76
   0   4   2  293.94    7.76
   0   4  -2  310.12    7.69
   0   4  -3   25.85    1.10
   0   4  -3   29.60    1.24
   0   4   3   28.84    1.33
   0   4  -3   25.42    1.21
   0   4   3   30.26    1.33
   0   4  -4  201.06    3.17
   0   4  -4  195.89    2.86
   0   4  -5   11.75    0.95
   0   4  -5   12.59    0.77
   0   4   5   12.77    1.24
   0   4  -5   10.00    1.20
   0   4   5   13.26    1.10
   0   4   5   10.44    0.75
   0   4  -5   10.29    0.98
   0   4   6   73.74    2.35
   0   4  -6   79.04    2.73
   0   4  -6   81.51    2.26
   0   4  -6   74.02    3.05
   0   4   6   77.77    3.00
   0   4  -6   78.77    2.62
   0   4  -7    6.12    0.97
   0   4   7    4.68    0.62
   0   4  -7    5.19    1.46
   0   4   7    5.60    1.26
   0   4  -8   10.12    1.81
   0   4   8    8.90    1.75
   0   5   0    0.10    0.65
   0   5   0    0.13    0.52
   0   5   1  169.81    4.81
   0   5  -1  184.28    4.82
   0   5   1  177.42    4.72
   0   5  -1  169.41    4.40
   0   5  -1  179.44    4.38
   0   5  -1  171.30    4.81
   0   5  -2   99.59    2.20
   0   5   2  108.62    2.20
   0   5   2  127.93    2.38
   0   5  -2  107.24    2.28
   0   5  -2  127.18    2.44
   0   5   2  116.67    1.95
   0   5   3  233.88    6.83
   0   5   3  282.11    6.66
   0   5   3  301.34    7.04
   0   5  -3  258.93    6.81
   0   5  -3  214.42    6.81
   0   5  -4   40.44    1.90
   0   5  -4   36.12    1.58
   0   5  -4   36.77    1.70
   0   5   4   40.02    1.87
   0   5   5   71.84    2.45
   0   5  -5   83.47    2.65
   0   5  -5   79.43    2.46
   0   5   5   74.06    2.89
   0   5  -5   73.79    2.85
   0   5  -5   74.72    2.60
   0   5  -6   34.38    1.68
   0   5   6   30.51    1.97
   0   5  -6   30.23    1.94
   0   5  -6   29.58    0.95
   0   5   6   29.45    1.30
   0   5  -6   32.91    1.29
   0   5  -7   43.10    2.48
   0   5  -7   43.99    1.43
   0   5   7   41.49    1.65
   0   5   7   41.39    2.36
   0   5  -7   48.81    2.21
   0   5  -8    3.92    1.86
   0   5   8    6.96    1.82
   0   5  -8    5.29    1.70
   0   6   0  169.26    4.17
   0   6   0  152.17    4.16
   0   6   0  151.21    4.24
   0   6   0  138.79    4.40
   0   6   0  182.65    4.78
   0   6  -1  112.61    3.73
   0   6   1  122.55    3.85
   0   6   1  143.85    3.71
   0   6  -1  131.02    3.35
   0   6  -1  148.59    3.84
   0   6  -1  162.52    4.16
   0   6  -1  127.27    3.38
   0   6   2  190.35    4.59
   0   6  -2  181.91    4.83
   0   6   3   15.58    1.22
   0   6  -3   20.26    1.31
   0   6  -3   20.98    1.24
   0   6   3   20.60    1.05
   0   6  -3   16.39    1.21
   0   6   4   76.01    2.26
   0   6  -4   57.18    2.46
   0   6  -4   69.41    2.41
   0   6   4   61.30    2.46
   0   6  -4   57.34    2.20
   0   6  -5    3.19    1.18
   0   6  -5    4.41    0.87
   0   6   5    5.80    0.98
   0   6   5    5.20    1.22
   0   6  -5    4.49    0.92
   0   6  -5    4.86    1.00
   0   6  -6   60.22    2.12
   0   6  -6   53.19    2.71
   0   6   6   58.00    2.78
   0   6  -6   55.25    2.33
   0   6  -7    2.24    1.61
   0   6  -7    2.83    0.91
   0   6  -7    2.28    1.29
   0   6   7    3.00    1.46
   0   7   0   -0.43    0.85
   0   7   0    0.02    0.49
   0   7   0    0.06    0.55
   0   7   0    0.18    0.58
   0   7   1  149.15    4.26
   0   7   1  167.21    4.25
   0   7  -1  143.79    4.40
   0   7  -1  148.66    3.89
   0   7  -1  162.71    4.44
   0   7  -1  145.66    3.82
   0   7   1  140.60    4.44
   0   7   1  159.14    4.11
   0   7  -2   13.30    1.20
   0   7   2   15.55    0.86
   0   7  -2   11.51    1.17
   0   7   2   11.91    1.25
   0   7   2   17.02    1.15
   0   7  -2   16.89    1.19
   0   7  -3   50.14    2.05
   0   7  -3   48.68    2.27
   0   7  -3   42.83    1.85
   0   7  -3   41.95    1.92
   0   7   3   52.14    1.70
   0   7  -4    5.44    1.21
   0   7   4    6.29    1.26
   0   7   4    7.48    0.94
   0   7  -4    5.90    1.04
   0   7  -4    5.98    1.22
   0   7  -5   66.15    2.60
   0   7  -5   66.51    2.53
   0   7  -5   61.68    2.68
   0   7   5   60.32    2.44
   0   7   5   68.72    2.90
   0   7  -5   56.98    2.57
   0   7  -6    9.56    1.35
   0   7   6   10.25    1.23
   0   7   6    9.58    1.63
   0   7  -6    8.40    1.61
   0   7  -6    9.55    1.19
   0   7  -7    6.05    1.75
   0   7  -7    6.80    1.60
   0   7   7    7.22    1.86
   0   7  -7    5.80    1.20
   0   7   7    5.21    1.13
   0   7  -8    1.35    1.65
   0   8   0   13.96    1.32
   0   8   0   17.59    0.96
   0   8   0   16.07    1.05
   0   8   0   15.81    0.99
   0   8  -1   32.08    1.14
   0   8  -1   35.85    1.71
   0   8  -1   30.75    1.78
   0   8   1   40.95    1.60
   0   8   1   35.04    1.35
   0   8   1   32.60    1.49
   0   8   1   27.99    1.78
   0   8  -2   79.63    2.97
   0   8   2   88.21    2.38
   0   8  -2   85.92    2.85
   0   8   2   66.68    2.86
   0   8  -2   65.58    2.79
   0   8   2   77.88    2.77
   0   8   3   13.44    0.90
   0   8   3   11.83    1.35
   0   8  -3   11.21    1.27
   0   8  -3   10.73    1.14
   0   8  -3   11.23    1.37
   0   8  -4   21.01    1.68
   0   8  -4   25.02    1.65
   0   8  -4   23.76    1.61
   0   8  -4   26.53    2.01
   0   8  -5    0.81    1.35
   0   8   5   -0.54    1.43
   0   8  -5   -0.11    1.18
   0   8  -5    0.25    1.53
   0   8  -5    0.79    1.43
   0   8  -5    0.72    1.24
   0   8   5    0.55    1.17
   0   8   6   18.79    2.01
   0   8  -6   18.51    1.65
   0   8  -6   18.38    1.88
   0   8  -6   18.74    1.84
   0   8  -6   18.66    1.64
   0   8  -6   18.98    2.17
   0   8   6   16.68    1.50
   0   8  -7    3.61    1.96
   0   8  -7    2.89    1.36
   0   8   7    2.75    1.22
   0   8  -7    1.93    1.56
   0   9   0   -0.36    1.23
   0   9   0   -0.06    0.68
   0   9   0    0.50    0.76
   0   9   0    0.25    0.72
   0   9  -1   52.35    2.45
   0   9  -1   47.07    1.57
   0   9   1   57.54    2.15
   0   9  -1   56.21    2.18
   0   9   1   62.12    2.10
   0   9   1   51.05    2.41
   0   9  -2    2.84    0.92
   0   9  -2    2.51    1.11
   0   9   2    2.80    0.57
   0   9   2    3.20    1.13
   0   9   2    2.54    1.35
   0   9  -3   13.25    1.23
   0   9  -3   11.98    1.54
   0   9   3   13.29    1.45
   0   9  -3   11.36    1.54
   0   9  -3   13.17    1.40
   0   9   4    5.72    1.38
   0   9   4    3.16    1.54
   0   9  -4    4.81    1.42
   0   9  -4    4.33    1.31
   0   9  -4    4.10    1.61
   0   9  -4    4.15    1.35
   0   9  -4    5.33    1.71
   0   9   5   23.15    1.82
   0   9  -5   22.95    2.16
   0   9  -5   24.60    2.05
   0   9  -5   25.08    1.93
   0   9  -5   24.65    2.32
   0   9   5   26.87    2.18
   0   9  -5   23.65    1.95
   0   9  -6    1.65    1.54
   0   9  -6    2.12    1.59
   0   9  -6    2.32    1.55
   0   9   6    1.80    1.30
   0   9  -6    1.84    1.92
   0   9  -6    3.39    1.66
   0   9  -7    0.44    1.72
   0   9   7   -0.50    1.42
   0  10   0    1.94    1.36
   0  10   0    1.37    0.82
   0  10  -1    0.88    0.36
   0  10   1    1.91    1.51
   0  10  -1    1.50    0.82
   0  10   1    1.36    1.08
   0  10  -1    1.45    0.40
   0  10  -1    1.59    1.10
   0  10   2   27.28    2.12
   0  10  -2   29.90    1.56
   0  10   2   30.98    1.86
   0  10  -2   33.86    2.00
   0  10  -2   27.51    2.06
   0  10   3    2.72    1.42
   0  10   3    3.29    1.33
   0  10  -3    3.26    1.45
   0  10  -3    2.43    1.29
   0  10  -3    2.72    1.47
   0  10  -3    2.55    1.44
   0  10  -4    8.32    1.57
   0  10  -4    9.69    1.84
   0  10   4    8.85    1.62
   0  10  -4   10.48    1.48
   0  10  -4    8.86    1.71
   0  10   4    9.78    1.79
   0  10  -4    8.66    1.58
   0  10  -5    0.22    1.78
   0  10  -5    1.84    1.56
   0  10  -5    0.41    1.50
   0  10   5    0.08    1.71
   0  10  -5    0.46    1.69
   0  10  -5    0.25    1.87
   0  10   5   -0.23    1.42
   0  10  -6    5.76    1.77
   0  10  -6    5.64    1.91
   0  11   1   16.00    1.50
   0  11   1   14.49    2.06
   0  11  -1   15.28    2.05
   0  11   1   14.41    1.96
   0  11  -1   15.89    1.44
   0  11  -2   -1.72    1.73
   0  11  -2    0.15    1.67
   0  11   2   -0.25    1.28
   0  11  -2    0.12    1.27
   0  11  -3    5.58    1.63
   0  11   3    5.89    1.64
   0  11  -3    7.00    1.82
   0  11  -3    5.05    1.66
   0  11  -4   -0.34    1.76
   0  11   4    1.16    1.82
   0  11  -4    1.06    1.58
   0  11  -5    9.74    2.24
   0  11  -5    7.55    1.87
   1 -11  -3    2.86    1.29
  -1 -11   3    1.68    1.79
  -1 -11   2    3.12    1.68
   1 -11  -2    4.42    1.23
   1 -11  -1    3.81    1.93
  -1 -11   1    3.29    1.79
   1 -11  -1    4.43    1.22
   1 -11   0   12.58    2.13
   1 -11   0   11.69    1.34
  -1 -11  -1    0.35    1.76
   1 -10  -6    0.29    1.66
   1 -10  -5   12.57    1.77
   1 -10  -4    4.16    1.90
   1 -10  -4    5.11    1.43
  -1 -10   3    2.84    1.57
   1 -10  -3    3.25    1.25
   1 -10  -3    2.99    1.75
   1 -10  -2    2.71    1.07
  -1 -10   2    0.86    1.44
   1 -10  -2   -0.50    1.67
   1 -10  -1   24.53    2.26
  -1 -10   1   24.63    2.10
   1 -10   0   14.75    2.01
   1 -10   0   21.43    1.40
  -1 -10  -1    4.55    0.62
   1 -10   1    4.27    1.16
  -1 -10  -1    4.27    1.72
  -1 -10  -2   -1.42    1.70
  -1 -10  -2    0.30    0.67
  -1 -10  -3   12.15    2.01
   1  -9  -5    1.20    1.80
   1  -9  -4   27.14    2.33
   1  -9  -4   27.05    1.92
   1  -9  -3   16.22    1.90
   1  -9  -3   18.65    1.42
  -1  -9   3   15.36    1.64
  -1  -9   2   16.62    1.65
   1  -9  -2   14.99    1.84
   1  -9  -1    7.35    1.02
  -1  -9   1    5.35    0.77
   1  -9  -1    4.91    1.57
   1  -9  -1    5.49    0.97
  -1  -9   0   26.70    2.04
   1  -9   0   26.85    2.09
   1  -9   0   32.19    1.27
  -1  -9   0   37.64    1.60
   1  -9   0   34.64    1.58
  -1  -9  -1    2.53    1.33
  -1  -9  -1    3.56    0.58
  -1  -9  -1    3.13    0.92
   1  -9   1    3.07    1.52
  -1  -9  -2   37.56    2.48
  -1  -9  -2   43.36    1.65
  -1  -9  -3   14.05    1.85
  -1  -9  -3   15.77    1.18
  -1  -9  -4    1.54    1.09
  -1  -9  -4    2.23    1.72
   1  -8  -7   10.62    2.11
   1  -8  -6   -0.51    1.69
   1  -8  -5   30.01    2.26
   1  -8  -4   16.02    1.75
   1  -8  -3   18.31    1.80
  -1  -8   3   21.72    1.44
  -1  -8   2    3.72    1.14
   1  -8  -2    4.10    1.33
   1  -8  -2    4.09    0.93
   1  -8  -1  108.60    2.97
  -1  -8   1  100.97    2.73
   1  -8  -1   79.36    3.45
   1  -8  -1   83.50    3.00
  -1  -8   1   76.21    3.25
   1  -8   0   53.52    2.15
  -1  -8   0   48.22    2.49
  -1  -8   0   61.64    2.17
   1  -8   0   61.11    1.87
   1  -8   0   50.97    2.61
  -1  -8   0   65.98    2.10
  -1  -8   0   58.23    1.79
  -1  -8  -1    9.27    1.11
   1  -8   1    7.64    0.96
   1  -8   1    8.84    0.46
  -1  -8  -1    8.72    0.69
  -1  -8  -1    7.05    1.33
   1  -8   1    7.49    1.37
  -1  -8  -2    5.78    0.76
  -1  -8  -2    4.05    1.33
  -1  -8  -2    6.42    1.05
  -1  -8  -3   45.73    1.93
  -1  -8  -3   48.52    2.60
  -1  -8  -4    8.87    1.65
  -1  -8  -5   10.28    1.83
  -1  -8  -6    5.54    1.82
   1  -7  -8   21.95    2.43
   1  -7  -7   10.11    1.87
   1  -7  -6   12.78    1.79
   1  -7  -5   10.62    1.57
   1  -7  -5   11.18    0.90
   1  -7  -4   64.22    2.87
  -1  -7   3   34.60    1.71
   1  -7  -3   36.21    2.07
   1  -7  -2   74.42    3.07
   1  -7  -2   68.71    2.73
   1  -7  -1    9.83    0.96
   1  -7  -1   10.62    1.22
   1  -7  -1   12.85    0.92
  -1  -7   1   11.11    0.78
   1  -7   0   67.37    1.84
  -1  -7   0   61.17    2.08
  -1  -7   0   57.45    1.95
  -1  -7   0   55.00    1.70
  -1  -7   0   66.68    1.98
   1  -7   0   54.59    2.46
   1  -7   0   54.87    2.06
   1  -7   1   28.63    1.77
  -1  -7  -1   31.39    1.48
   1  -7   1   31.89    0.96
   1  -7   1   31.86    1.52
  -1  -7  -1   30.19    1.87
  -1  -7  -1   36.21    1.26
  -1  -7  -1   36.62    1.50
  -1  -7  -1   37.05    1.50
   1  -7   2  116.79    3.64
  -1  -7  -2  115.82    3.39
  -1  -7  -2  105.78    3.93
  -1  -7  -3   38.36    2.34
  -1  -7  -3   52.46    1.98
  -1  -7  -4   20.04    1.82
  -1  -7  -5   10.14    1.67
  -1  -7  -6   16.23    2.02
   1  -6  -9   11.14    2.12
   1  -6  -8    0.29    1.69
   1  -6  -7   17.48    1.85
   1  -6  -5   73.80    3.03
   1  -6  -4   34.63    1.30
   1  -6  -4   35.15    2.02
   1  -6  -3  106.25    3.66
   1  -6  -3  110.89    2.90
  -1  -6   3  102.36    3.32
   1  -6  -2   43.99    1.54
  -1  -6   2   32.56    1.53
  -1  -6   2   40.95    1.07
  -1  -6   2   36.17    1.02
   1  -6  -1  227.51    3.58
   1  -6  -1  209.74    3.81
  -1  -6   1  219.26    3.81
  -1  -6   1  218.35    3.36
  -1  -6   1  231.22    3.37
  -1  -6   0  141.47    3.16
   1  -6   0  139.82    3.07
  -1  -6   0  119.85    3.25
   1  -6   0  150.79    2.68
  -1  -6   0  141.19    2.81
  -1  -6   0  157.42    3.20
  -1  -6   0  133.05    2.50
   1  -6   1   77.41    2.23
  -1  -6  -1   87.79    1.99
  -1  -6  -1   81.85    2.29
  -1  -6  -1   98.13    2.39
   1  -6   1   90.21    1.68
   1  -6   1   78.75    2.58
   1  -6   2   63.02    1.82
  -1  -6  -2   64.03    1.91
  -1  -6  -2   68.99    1.80
  -1  -6  -3   90.49    3.10
  -1  -6  -3   89.87    3.35
  -1  -6  -3  100.06    3.00
  -1  -6  -4   28.09    1.50
  -1  -6  -4   24.29    1.78
  -1  -6  -5   26.01    1.98
  -1  -6  -6    7.24    1.63
   1  -5  -9    3.61    1.72
   1  -5  -8   33.54    2.23
   1  -5  -7   19.88    1.78
  -1  -5   7   19.99    0.92
  -1  -5   6   70.73    1.78
  -1  -5   6   53.04    1.70
   1  -5  -5   68.17    2.63
  -1  -5   5   65.77    1.76
   1  -5  -4   99.94    3.36
   1  -5  -3   42.51    1.95
   1  -5  -3   43.41    1.76
   1  -5  -3   43.63    1.36
   1  -5  -3   48.40    1.83
  -1  -5   2  207.94    4.07
   1  -5  -2  182.92    4.02
   1  -5  -2  196.73    4.48
  -1  -5   2  183.37    3.98
   1  -5  -2  186.19    4.50
  -1  -5   2  172.69    4.50
  -1  -5   1   54.13    1.66
   1  -5  -1   53.44    1.66
   1  -5  -1   46.98    1.69
  -1  -5   1   47.75    1.72
  -1  -5   1   54.42    1.41
   1  -5   0  192.07    2.84
  -1  -5   0  198.96    2.99
  -1  -5   0  173.77    3.10
   1  -5   0  170.19    2.79
  -1  -5   0  171.46    2.52
   1  -5   1   68.01    2.28
   1  -5   1   87.95    1.65
   1  -5   1   77.10    1.58
   1  -5   1   69.13    2.04
  -1  -5  -1   71.66    2.09
  -1  -5  -1   70.93    2.07
  -1  -5  -1   86.35    2.12
  -1  -5  -2  137.24    2.53
  -1  -5  -2  137.67    2.77
   1  -5   2  134.68    2.68
  -1  -5  -3   -0.18    0.46
  -1  -5  -3   94.51    1.91
  -1  -5  -4  117.41    3.58
  -1  -5  -4  128.35    3.89
  -1  -5  -5   41.36    1.85
  -1  -5  -6   16.62    1.35
   1  -5   6   20.36    0.78
   1  -5   7   17.05    0.80
   1  -5   7   15.61    0.76
  -1  -5  -7   16.99    1.70
  -1  -5  -8   10.77    1.85
  -1  -5  -8    9.94    1.86
  -1  -5  -9    2.23    1.90
   1  -4 -10    1.78    1.71
   1  -4  -9   22.17    2.40
   1  -4  -9   25.08    2.22
   1  -4  -8    5.96    1.62
   1  -4  -8    7.21    1.53
  -1  -4   8    7.12    0.96
  -1  -4   8    6.77    1.00
  -1  -4   7   20.14    1.15
   1  -4  -7   18.55    1.57
  -1  -4   7   19.52    1.14
   1  -4  -7   18.24    1.70
  -1  -4   6   11.88    0.83
  -1  -4   6   11.22    0.79
  -1  -4   5  130.65    3.81
  -1  -4   5  160.32    3.96
   1  -4  -5  140.16    4.38
  -1  -4   5  159.81    3.89
  -1  -4   4   21.66    0.80
  -1  -4   4   26.43    0.87
   1  -4  -4   24.51    1.32
   1  -4  -4   25.51    1.41
  -1  -4   3  257.35    6.47
   1  -4  -3  258.43    7.08
   1  -4  -3  275.40    6.95
   1  -4  -2  331.12    8.51
  -1  -4   2  310.98    8.49
   1  -4  -2  327.97    8.73
  -1  -4   1  338.19    8.67
   1  -4  -1  346.29    8.62
  -1  -4   1  361.94    8.46
  -1  -4   1  350.55    8.44
   1  -4  -1  311.36    8.72
   1  -4  -1  323.84    8.83
  -1  -4   1  315.04    8.69
   1  -4  -1  370.94    8.61
  -1  -4   0  206.65    5.56
  -1  -4   0  231.58    5.74
   1  -4   0  208.76    5.75
   1  -4   0  237.28    5.49
   1  -4   0  194.82    5.82
  -1  -4   0  219.23    5.73
   1  -4   0  224.15    5.64
  -1  -4   0  215.31    5.37
  -1  -4   0  216.96    5.82
  -1  -4   0  229.43    5.58
  -1  -4  -1  637.86   13.47
   1  -4   1  550.36   13.37
   1  -4   1  559.90   13.56
  -1  -4  -1  567.92   13.37
  -1  -4  -1  620.47   13.38
  -1  -4  -1  610.67   13.37
  -1  -4  -2  198.27    5.61
  -1  -4  -2  209.66    5.54
  -1  -4  -2  212.24    5.59
   1  -4   2  199.28    5.58
  -1  -4  -3   60.32    1.57
  -1  -4  -3   65.79    1.72
  -1  -4  -4   57.68    1.84
   1  -4   4   57.35    1.35
   1  -4   5   69.19    1.98
   1  -4   5   71.21    1.98
  -1  -4  -6    8.41    1.15
   1  -4   6    6.10    0.68
   1  -4   6    7.14    0.73
   1  -4   7   26.30    1.25
  -1  -4  -7   24.94    1.83
  -1  -4  -8   14.19    1.82
   1  -4   8   15.00    1.08
  -1  -4  -9    3.13    1.89
   1  -3 -10   12.98    1.75
  -1  -3   9   10.56    1.32
   1  -3  -9    9.65    1.64
   1  -3  -9   11.09    1.95
  -1  -3   9    9.47    1.20
   1  -3  -8   28.34    1.82
   1  -3  -7   25.52    1.91
   1  -3  -7   29.02    1.81
  -1  -3   7   25.02    1.34
  -1  -3   7   34.16    1.61
  -1  -3   7   30.77    1.39
  -1  -3   6  250.88    6.88
  -1  -3   6  266.43    6.88
   1  -3  -6  247.05    7.43
   1  -3  -6  262.56    7.26
   1  -3  -5  149.12    4.33
  -1  -3   5  142.47    3.93
   1  -3  -5  138.55    4.39
  -1  -3   5  135.67    3.87
   1  -3  -4   91.79    3.25
   1  -3  -4  106.84    3.28
   1  -3  -4  125.53    3.41
   1  -3  -4  113.95    3.29
  -1  -3   4  107.84    2.93
   1  -3  -3   19.27    1.04
   1  -3  -3   16.62    0.94
   1  -3  -2  454.95   10.94
   1  -3  -2  461.75   10.98
   1  -3  -2  422.37   11.07
  -1  -3   2  428.21   10.83
  -1  -3   2  441.34   10.66
  -1  -3   1  192.38    4.94
  -1  -3   1  207.92    5.19
   1  -3  -1  204.74    5.09
  -1  -3   1  194.76    5.14
   1  -3  -1  191.13    5.25
   1  -3  -1  203.40    5.09
  -1  -3   1  201.54    4.95
  -1  -3   0  459.94   10.76
   1  -3   0  407.28   10.77
  -1  -3   0  429.01   10.45
   1  -3   0  426.04   10.63
  -1  -3   0  450.83   10.77
  -1  -3   0  434.23   10.63
  -1  -3   0  445.68   10.68
   1  -3   0  454.27   10.57
   1  -3   0  414.62   10.84
  -1  -3  -1  169.92    3.91
   1  -3   1  169.06    3.57
  -1  -3  -1  171.22    3.91
   1  -3   1  161.30    3.91
  -1  -3  -2   69.12    2.09
  -1  -3  -2   76.87    2.28
   1  -3   3  118.61    2.92
  -1  -3  -3  115.70    3.21
   1  -3   4  391.28    3.10
  -1  -3  -4  406.86    4.12
   1  -3   5  184.03    4.97
   1  -3   5  175.40    5.19
   1  -3   6   18.25    1.05
   1  -3   6   21.18    1.15
  -1  -3  -6   17.01    1.44
   1  -3   7   19.50    1.27
  -1  -3  -7   17.01    1.60
   1  -3   7   18.36    1.22
   1  -3   8   37.23    1.67
  -1  -3  -8   29.66    2.24
  -1  -3  -9    9.58    1.99
  -1  -2  10    7.44    1.50
   1  -2  -9   41.46    2.15
  -1  -2   9   37.78    2.00
  -1  -2   8   20.27    1.40
   1  -2  -8   19.32    1.81
   1  -2  -8   19.38    1.54
  -1  -2   7   23.90    1.33
  -1  -2   7   24.66    1.26
   1  -2  -7   23.63    1.73
   1  -2  -6   26.19    1.60
  -1  -2   6   24.69    1.25
  -1  -2   6   23.25    1.12
   1  -2  -5  125.35    3.39
  -1  -2   5   89.29    2.82
  -1  -2   5  126.80    3.16
   1  -2  -5   91.46    3.24
  -1  -2   4   35.08    1.27
   1  -2  -4   36.75    1.40
   1  -2  -4   35.42    1.54
   1  -2  -3  556.72   14.62
  -1  -2   3  600.09   14.35
   1  -2  -3  613.54   14.56
  -1  -2   3  576.22   14.33
   1  -2  -3  590.84   14.62
  -1  -2   3  606.28   14.53
  -1  -2   3  593.66   14.27
  -1  -2   2  792.01   18.67
   1  -2  -2  760.45   18.88
  -1  -2   2  784.84   18.79
  -1  -2   2  797.49   18.66
  -1  -2   1  159.10    4.21
  -1  -2   1  169.76    4.18
   1  -2  -1  163.79    4.37
  -1  -2   1  171.35    4.15
   1  -2  -1  167.04    4.23
  -1  -2   1  173.73    4.36
   1  -2  -1  176.59    4.27
  -1  -2   1  163.15    4.16
  -1  -2   0  212.29    1.93
   1  -2   0  201.16    2.00
   1  -2   0  204.53    1.46
  -1  -2   0  199.05    1.75
   1  -2   0  214.39    1.43
  -1  -2   0  212.40    1.68
   1  -2   0   36.24    0.97
  -1  -2  -1 1433.86   33.70
  -1  -2  -1 1570.06   33.65
   1  -2   1 1581.80   33.43
   1  -2   1 1469.87   33.69
  -1  -2  -1 1491.23   33.46
   1  -2   2  443.94   10.86
   1  -2   2  463.25   11.04
   1  -2   2  473.71   10.86
  -1  -2  -2  468.06   11.17
  -1  -2  -2  479.30   11.07
  -1  -2  -3   49.20    1.66
   1  -2   3   45.61    1.63
   1  -2   3   52.09    1.55
  -1  -2  -3   48.68    1.78
  -1  -2  -3   53.37    1.70
   1  -2   4   51.76    1.61
  -1  -2  -4   43.15    1.77
  -1  -2  -4   49.10    1.73
  -1  -2  -4   54.20    1.91
   1  -2   4   40.03    1.61
  -1  -2  -4   41.94    1.69
   1  -2   5   87.35    2.72
  -1  -2  -5   89.27    2.99
  -1  -2  -5   82.43    2.97
   1  -2   6    8.78    0.96
  -1  -2  -6    8.68    1.16
  -1  -2  -8   25.54    2.13
   1  -2   8   27.16    1.61
   1  -2   9    0.96    1.19
  -1  -2  -9    1.48    1.82
  -1  -1  10   18.91    1.76
   1  -1  -9   20.91    1.60
   1  -1  -9   22.89    2.17
  -1  -1   9   20.80    1.70
  -1  -1   8    9.90    1.23
   1  -1  -8    8.39    1.62
   1  -1  -7   52.08    2.56
  -1  -1   7   65.35    2.24
  -1  -1   6  442.65   11.17
  -1  -1   6  482.58   11.38
   1  -1  -5  319.35    6.79
  -1  -1   5  258.72    6.30
  -1  -1   5  310.01    6.80
  -1  -1   5  259.88    6.46
   1  -1  -4   38.48    1.28
  -1  -1   4   35.73    1.24
  -1  -1   3    6.72    0.50
   1  -1  -3    9.80    0.63
  -1  -1   3   10.22    0.64
   1  -1  -3    9.52    0.41
  -1  -1   3    7.75    0.39
  -1  -1   2 1146.19   25.99
   1  -1  -2  978.87   26.09
  -1  -1   2 1088.98   25.84
   1  -1  -2 1101.24   25.94
   1  -1  -2  986.64   26.00
   1  -1  -2 1049.43   26.17
  -1  -1   2  990.45   26.05
   1  -1  -1   42.13    0.75
  -1  -1   1   44.54    0.70
   1  -1  -1   44.68    0.79
   1  -1  -1   45.01    0.70
  -1  -1   1   45.81    0.86
  -1  -1   1   44.49    0.72
  -1  -1   0   52.64    0.78
  -1  -1   0   52.47    0.85
   1  -1   0   54.02    0.76
   1  -1   0   50.49    0.69
  -1  -1   0   55.61    0.80
  -1  -1   0   53.17    0.75
   1  -1   0   56.88    0.76
  -1  -1  -1  540.70   15.78
   1  -1   1  667.22   15.70
   1  -1   1  676.76   15.86
   1  -1   1  717.25   15.81
   1  -1   1  569.05   15.68
   1  -1   1  710.87   15.71
  -1  -1  -1  730.48   15.75
  -1  -1  -1  660.66   15.82
  -1  -1  -2   42.58    1.40
   1  -1   2   39.17    1.35
   1  -1   2   43.94    1.18
   1  -1   2   45.90    1.33
   1  -1   2   46.20    1.31
  -1  -1  -2   46.44    1.44
  -1  -1  -2   41.12    1.35
  -1  -1  -2   44.90    1.34
   1  -1   3   63.64    2.04
   1  -1   3   73.87    2.00
  -1  -1  -3   76.50    2.15
  -1  -1  -3   62.47    2.03
  -1  -1  -3   58.34    2.02
   1  -1   3   61.01    1.90
  -1  -1  -4  556.77   15.26
  -1  -1  -4  583.13   15.29
   1  -1   4  684.41   15.35
   1  -1   4  588.42   15.13
  -1  -1  -4  701.79   15.43
   1  -1   5  348.40    7.96
  -1  -1  -5  252.30    7.85
  -1  -1  -5  354.89    8.15
  -1  -1  -5  275.74    7.97
  -1  -1  -6    2.86    1.00
   1  -1   6    3.51    0.78
   1  -1   7    4.08    1.09
  -1  -1  -7    4.48    1.27
  -1  -1  -8   61.71    3.07
   1  -1   8   63.91    2.63
   1  -1   9   17.34    1.71
   1  -1  10    1.78    1.55
  -1   0  10    9.83    1.64
   1   0  -9   49.96    2.86
  -1   0   9   46.36    2.42
  -1   0   8   26.36    1.77
   1   0  -8   27.96    2.12
   1   0  -7   31.32    1.98
  -1   0   6   27.92    1.42
  -1   0   6   28.45    1.34
   1   0  -5   57.48    1.73
  -1   0   5   50.82    1.65
  -1   0   5   52.61    1.64
   1   0  -4    0.54    0.59
  -1   0   4    1.42    0.51
   1   0  -4    1.34    0.54
  -1   0   4    1.22    0.40
  -1   0   4    1.53    0.51
  -1   0   4    1.20    0.55
   1   0  -3 1053.26   25.60
   1   0  -3 1024.07   25.71
   1   0  -3 1037.77   25.34
  -1   0   3 1074.01   25.61
   1   0  -2  726.06   17.74
   1   0  -2  753.99   17.69
  -1   0   2  702.82   17.76
   1   0  -2  736.56   17.50
   1   0  -2  728.27   17.56
  -1   0   1    4.68    0.28
   1   0  -1    4.20    0.26
  -1   0   1    4.98    0.31
   1   0  -1    5.45    0.29
   1   0  -1    4.60    0.27
  -1   0   1    5.09    0.29
   1   0  -1    7.03    0.30
  -1   0   1    4.51    0.28
  -1   0   0  130.27    3.35
   1   0   0  137.59    3.37
   1   0   0  133.15    3.34
   1   0   0  138.06    3.36
   1   0   0  141.77    3.37
  -1   0   0  127.74    3.35
  -1   0   0  142.50    3.37
  -1   0   0  130.97    3.36
  -1   0  -1 1494.88    8.03
   1   0   1 1966.30    8.42
  -1   0  -1 1716.13    8.55
  -1   0  -1 1175.00    7.75
   1   0   1 1395.43    7.89
  -1   0  -1 1113.28    7.79
   1   0   1 1382.65    7.65
   1   0   2  807.16   19.36
   1   0   2  934.01   19.65
  -1   0  -2  725.64   19.56
   1   0   2  861.31   19.59
   1   0   2  752.21   19.57
  -1   0  -2  809.86   19.58
  -1   0  -2  812.55   19.69
  -1   0  -3   57.39    1.71
   1   0   3   47.34    1.61
   1   0   3   57.28    1.72
   1   0   3   50.07    1.68
  -1   0  -3   49.40    1.65
  -1   0  -4   20.91    1.06
  -1   0  -4   16.81    0.99
   1   0   4   19.17    1.00
   1   0   4   19.70    1.07
  -1   0  -4   21.20    1.09
   1   0   4   19.41    1.06
   1   0   5   84.25    1.98
   1   0   5   79.95    1.95
  -1   0  -6   14.73    1.35
   1   0   7   58.28    2.38
  -1   0  -7   54.73    2.63
  -1   0  -8   29.96    2.26
   1   0   8   32.70    1.89
   1   0   9    0.12    1.44
  -1   1  10   17.47    1.96
   1   1  -9   21.37    2.15
  -1   1   9   19.91    1.83
   1   1  -8   12.21    1.69
  -1   1   7   51.15    2.21
   1   1  -7   53.05    2.50
   1   1  -6  489.81    9.75
  -1   1   6  513.80    9.84
  -1   1   5  331.80    4.57
   1   1  -5  278.81    2.96
  -1   1   5  332.82    4.57
  -1   1   5  259.83    4.14
   1   1  -4   38.51    1.17
  -1   1   4   39.55    1.36
  -1   1   4   39.83    1.33
   1   1  -3    7.47    0.52
  -1   1   3    6.79    0.60
  -1   1   3    6.48    0.49
   1   1  -3    6.13    0.53
  -1   1   3    6.10    0.36
   1   1  -2 1181.45   26.13
  -1   1   2  961.28   26.33
  -1   1   2 1101.57   26.21
  -1   1   2 1131.44   26.39
   1   1  -2  999.33   26.33
   1   1  -2 1101.42   26.26
   1   1  -2 1044.72   26.37
  -1   1   1   61.87    1.64
   1   1  -1   59.86    1.64
  -1   1   1   60.04    1.67
   1   1  -1   54.04    1.72
   1   1  -1   63.46    1.62
  -1   1   1   63.38    1.68
   1   1  -1   61.95    1.65
   1   1   0   60.90    1.62
  -1   1   0   64.55    1.69
  -1   1   0   60.45    1.62
   1   1   0   63.09    1.67
  -1   1   0   57.25    1.57
  -1   1   0   56.32    1.65
   1   1   0   59.60    1.60
   1   1   0   60.94    1.60
   1   1   1  521.75   14.83
  -1   1  -1  664.89   14.90
  -1   1  -1  592.95   14.72
  -1   1  -1  652.48   14.74
   1   1   1  603.87   14.85
  -1   1  -1  700.44   14.89
  -1   1  -1  590.65   14.72
  -1   1  -2   45.04    1.46
   1   1   2   51.80    1.55
  -1   1  -2   44.81    1.31
   1   1   2   48.99    1.47
  -1   1  -2   42.72    1.32
   1   1   2   45.45    1.45
  -1   1  -2   44.17    1.23
  -1   1  -2   39.01    1.41
  -1   1  -3   60.97    2.12
   1   1   3   73.91    2.18
  -1   1  -3   62.41    1.97
   1   1   3   73.43    2.21
  -1   1  -3   73.62    2.03
  -1   1  -4  621.90    5.03
   1   1   4  735.40    5.46
  -1   1  -4  556.70    4.18
   1   1   4  573.42    4.75
   1   1   4  693.51    5.07
   1   1   5  286.92    8.29
  -1   1  -5  352.85    8.32
  -1   1  -6    2.26    1.08
   1   1   6    3.20    0.99
  -1   1  -7    6.08    1.43
   1   1   8   60.63    2.72
  -1   1  -8   58.08    2.96
   1   1   9   19.65    1.94
   1   2  -9   38.49    2.71
  -1   2   8   23.92    1.86
   1   2  -8   23.71    2.09
  -1   2   7   27.05    1.71
   1   2  -7   29.74    1.95
   1   2  -6   31.03    1.37
  -1   2   6   24.87    1.53
  -1   2   6   26.01    0.96
   1   2  -6   26.20    1.60
   1   2  -5   98.48    2.50
   1   2  -5  120.62    2.25
  -1   2   5   91.26    1.74
  -1   2   5  121.06    2.63
  -1   2   5  125.96    2.76
  -1   2   4   38.59    1.55
  -1   2   4   40.01    1.59
  -1   2   4   43.49    1.66
   1   2  -3  566.41   14.69
   1   2  -3  632.76   14.51
  -1   2   3  677.53   14.82
  -1   2   3  659.63   14.79
   1   2  -3  580.15   14.43
  -1   2   3  566.52   14.51
   1   2  -3  613.36   14.42
  -1   2   3  511.39   14.69
  -1   2   2  794.43   18.19
  -1   2   2  662.82   18.09
   1   2  -2  756.87   17.91
   1   2  -2  726.47   18.05
   1   2  -2  775.49   17.86
   1   2  -2  673.84   17.92
   1   2  -2  768.01   18.18
   1   2  -2  795.16   17.94
  -1   2   2  740.57   17.97
   1   2  -1  181.77    4.52
  -1   2   1  183.85    4.64
   1   2  -1  190.06    4.76
  -1   2   1  171.87    4.61
   1   2  -1  173.75    4.54
   1   2  -1  192.74    4.54
  -1   2   1  196.13    4.77
   1   2   0  219.09    5.22
  -1   2   0  200.35    5.23
  -1   2   0  221.55    5.35
  -1   2   0  202.66    5.15
  -1   2   0  213.50    5.16
   1   2   0  211.61    5.29
  -1   2   0  214.58    5.35
   1   2   0  192.75    5.25
   1   2   0  206.41    5.22
  -1   2   0  214.42    5.16
  -1   2  -1 1506.57    3.27
  -1   2  -1 1461.58    5.53
  -1   2  -1 1405.60    4.46
   1   2   1 1417.39    5.37
  -1   2  -1 1537.83    5.43
  -1   2  -1 1574.38    5.24
   1   2   1 1372.32    5.03
  -1   2  -2  474.34   11.31
   1   2   2  486.23   11.53
  -1   2  -2  451.64   11.25
  -1   2  -2  458.80   11.24
  -1   2  -2  503.64   11.55
  -1   2  -2  464.61   11.51
   1   2   2  441.36   11.49
   1   2   3   52.65    1.72
  -1   2  -3   48.56    1.70
  -1   2  -3   46.25    1.42
   1   2   3   45.22    1.65
  -1   2  -4   55.86    1.32
  -1   2  -4   53.44    1.66
  -1   2  -4   51.96    1.65
  -1   2  -4   -0.01    0.63
   1   2   4   -0.17    0.63
   1   2   4   60.75    1.85
   1   2   4   55.51    1.70
  -1   2  -4   47.95    0.95
   1   2   5   81.90    2.42
  -1   2  -5   89.66    2.54
   1   2   5   88.54    1.69
   1   2   6    8.99    1.11
  -1   2  -6   11.89    1.03
  -1   2  -6    9.48    1.30
   1   2   7   49.15    2.27
  -1   2  -7   47.42    2.41
  -1   2  -8   25.68    2.19
   1   2   9    2.92    1.63
   1   3  -9    9.88    2.06
  -1   3   9    8.44    1.67
  -1   3   8   27.79    2.02
   1   3  -8   27.37    2.08
  -1   3   7   28.38    1.14
   1   3  -7   25.51    1.82
  -1   3   7   26.95    1.80
   1   3  -7   28.11    1.27
  -1   3   6  262.05    6.91
  -1   3   6  260.43    7.52
   1   3  -6  282.88    7.00
   1   3  -6  255.29    7.56
  -1   3   5  145.45    2.62
   1   3  -5  155.76    2.82
   1   3  -5  148.09    3.29
   1   3  -5  157.57    2.65
   1   3  -4  114.50    1.99
   1   3  -4  119.31    2.01
  -1   3   4  122.40    2.55
   1   3  -4  110.75    2.58
   1   3  -4  105.66    2.43
  -1   3   3   13.45    0.69
   1   3  -3   12.13    0.60
  -1   3   3   16.25    0.88
  -1   3   3   16.65    0.96
  -1   3   3   14.78    0.90
   1   3  -3   14.96    0.93
   1   3  -3   13.20    0.81
   1   3  -2  477.21   11.12
  -1   3   2  497.34   11.51
  -1   3   2  434.69   11.38
   1   3  -2  478.86   11.52
  -1   3   2  445.93   11.30
   1   3  -2  469.27   11.10
   1   3  -2  469.17   11.23
   1   3  -2  420.65   11.09
   1   3  -2  467.87   11.24
  -1   3   2  483.97   11.41
   1   3  -2  434.58   11.27
  -1   3   2  475.78   11.44
   1   3  -1  209.98    5.15
   1   3  -1  195.48    5.38
   1   3  -1  210.04    5.13
   1   3  -1  226.81    5.17
  -1   3   1  209.94    5.34
  -1   3   1  197.81    5.29
  -1   3   1  193.87    5.31
   1   3  -1  217.71    5.46
   1   3  -1  194.95    5.14
  -1   3   1  231.90    5.52
  -1   3   0  435.23   10.55
  -1   3   0  462.50   10.87
   1   3   0  407.13   10.71
  -1   3   0  429.04   10.62
  -1   3   0  423.56   10.71
  -1   3   0  441.66   10.52
  -1   3   0  446.65   10.80
   1   3   0  394.72   10.73
   1   3   0  446.89   10.65
   1   3   0  452.02   10.61
  -1   3  -1  160.17    4.02
  -1   3  -1  173.71    4.45
  -1   3  -1  166.76    4.31
  -1   3  -1  153.63    4.19
   1   3   1  180.52    4.36
   1   3   1  173.84    4.38
  -1   3  -1  182.22    4.45
   1   3   1  159.84    4.34
   1   3   2   83.82    2.32
  -1   3  -2   79.03    2.33
  -1   3  -2   75.61    2.13
  -1   3  -2   72.63    2.29
  -1   3  -2   66.48    2.20
   1   3   2   69.47    2.26
   1   3   3  108.77    3.55
  -1   3  -3  122.39    3.59
  -1   3  -3  131.06    3.65
   1   3   3  143.84    3.70
  -1   3  -3  127.26    3.19
  -1   3  -3  117.87    3.52
  -1   3  -4  379.03    3.38
  -1   3  -4  339.58    4.21
  -1   3  -4  360.85    3.33
  -1   3  -4  402.06    4.65
   1   3   5  186.35    5.48
  -1   3  -5  187.28    4.77
  -1   3  -5  174.05    5.37
   1   3   6   18.98    1.47
   1   3   6   16.81    0.71
  -1   3  -6   18.77    1.51
  -1   3  -6   18.94    1.61
  -1   3  -6   21.85    1.12
   1   3   7   18.58    1.64
  -1   3  -7   16.80    1.81
   1   3   8   31.40    2.26
  -1   3  -8   28.06    2.26
  -1   4   8    7.85    1.56
   1   4  -8    9.25    1.68
  -1   4   8    7.77    0.74
   1   4  -8    9.26    1.66
  -1   4   7   19.67    1.71
   1   4  -7   20.61    1.77
   1   4  -7   20.13    1.78
   1   4  -7   22.83    0.86
  -1   4   7   21.78    1.10
   1   4  -7   24.24    1.18
   1   4  -6   12.07    1.34
  -1   4   6   12.26    0.87
   1   4  -6   12.88    1.05
   1   4  -6   13.41    0.88
   1   4  -6   12.19    1.42
  -1   4   6   11.43    1.36
   1   4  -5  161.56    3.88
  -1   4   5  135.55    4.00
   1   4  -5  150.15    4.00
   1   4  -5  140.58    4.01
   1   4  -5  136.68    4.49
   1   4  -5  137.86    4.38
  -1   4   5  136.10    4.36
  -1   4   5  174.39    4.49
   1   4  -4   21.89    0.98
  -1   4   4   25.30    1.38
   1   4  -4   20.18    0.95
   1   4  -4   19.22    1.18
   1   4  -4   19.99    0.77
   1   4  -4   24.81    0.81
   1   4  -4   19.16    1.27
  -1   4   4   19.14    0.97
  -1   4   4   23.66    1.23
   1   4  -3  282.55    7.46
   1   4  -3  281.75    7.26
  -1   4   3  269.35    7.18
  -1   4   3  263.24    7.32
   1   4  -3  268.59    6.87
   1   4  -3  293.68    6.90
   1   4  -2  304.26    8.03
   1   4  -2  295.90    7.70
  -1   4   2  328.09    8.07
  -1   4   2  338.74    7.92
  -1   4   2  291.02    7.85
  -1   4   2  274.62    7.79
   1   4  -2  333.08    7.84
  -1   4   2  318.24    7.91
  -1   4   1  326.20    8.68
  -1   4   1  325.22    8.65
  -1   4   1  355.25    9.02
  -1   4   1  375.44    8.68
   1   4  -1  367.80    8.52
   1   4  -1  343.24    8.47
   1   4  -1  347.54    8.84
   1   4  -1  323.61    8.78
   1   4  -1  351.06    8.53
  -1   4   0  251.57    6.13
   1   4   0  232.37    5.76
  -1   4   0  225.21    5.93
  -1   4   0  237.46    5.71
   1   4   0  243.53    5.83
   1   4   0  219.53    5.90
   1   4   0  202.26    5.88
  -1   4   0  221.04    5.68
  -1   4   0  211.30    5.81
  -1   4   0  234.72    5.68
  -1   4  -1  609.66   14.42
  -1   4  -1  553.86   14.21
   1   4   1  545.31   14.34
   1   4   1  645.68   14.36
  -1   4  -1  613.28   14.49
   1   4   1  547.56   14.27
  -1   4  -2  258.52    3.29
   1   4   2  267.66    3.21
   1   4   2  230.27    3.05
  -1   4  -2  223.24    2.92
  -1   4  -2  255.71    3.24
  -1   4  -2  244.12    2.86
  -1   4  -2  225.34    2.74
   1   4   3   62.74    2.09
   1   4   3   54.48    2.07
  -1   4  -3   57.91    2.05
  -1   4  -4   67.67    1.90
  -1   4  -4   71.70    1.91
  -1   4  -4   67.08    1.49
  -1   4  -5   71.74    2.09
   1   4   5   65.70    2.66
  -1   4  -5   66.59    2.39
  -1   4  -5   61.56    2.54
  -1   4  -5   68.71    1.98
  -1   4  -6    6.77    1.40
  -1   4  -6    6.94    1.27
  -1   4  -6    6.94    0.54
   1   4   6    7.35    1.33
  -1   4  -6    7.99    0.75
   1   4   6    6.07    0.66
   1   4   7   27.56    1.06
  -1   4  -7   26.51    2.16
  -1   4  -7   32.19    2.06
   1   4   7   28.24    2.01
  -1   4  -8   16.54    2.12
   1   4   8   17.03    2.02
   1   5  -8   31.50    2.37
   1   5  -8   30.49    2.37
  -1   5   8   32.52    2.29
  -1   5   8   30.54    1.47
   1   5  -7   17.94    0.96
  -1   5   7   20.65    1.19
   1   5  -7   22.21    1.95
   1   5  -7   26.93    1.05
   1   5  -7   23.85    1.45
   1   5  -7   21.94    1.95
  -1   5   7   19.13    1.81
   1   5  -7   22.34    1.12
   1   5  -7   25.95    1.26
  -1   5   6   66.10    2.26
  -1   5   6   66.06    2.81
   1   5  -6   75.20    2.28
   1   5  -6   64.20    2.76
   1   5  -6   66.40    2.37
   1   5  -6   58.22    1.88
   1   5  -6   77.48    1.95
   1   5  -6   65.33    2.85
  -1   5   5   74.76    2.79
   1   5  -5   72.73    2.65
   1   5  -5   82.65    2.37
   1   5  -5   65.38    1.86
   1   5  -5   69.83    2.26
  -1   5   5   69.60    2.31
   1   5  -5   75.26    2.82
   1   5  -4   96.84    3.03
   1   5  -4  116.66    3.33
  -1   5   4  130.85    3.47
  -1   5   4  107.64    3.48
  -1   5   4   98.85    3.15
   1   5  -4  107.97    3.54
   1   5  -4  127.56    3.29
   1   5  -4  101.87    3.32
   1   5  -3   47.85    1.66
  -1   5   3   39.68    1.64
  -1   5   3   49.51    1.81
   1   5  -3   50.20    2.06
   1   5  -3   42.16    1.14
  -1   5   3   46.29    1.72
   1   5  -3   47.08    1.62
  -1   5   3   45.98    1.78
   1   5  -2  198.00    4.84
  -1   5   2  178.45    4.98
  -1   5   2  205.76    5.03
   1   5  -2  185.25    5.20
   1   5  -2  180.18    4.56
   1   5  -2  167.89    5.04
  -1   5   2  173.57    5.02
   1   5  -2  187.28    4.58
  -1   5   2  175.99    4.97
   1   5  -1   61.86    2.19
   1   5  -1   61.07    1.77
   1   5  -1   65.01    1.85
  -1   5   1   61.93    1.96
   1   5  -1   57.69    2.09
  -1   5   1   56.75    1.99
   1   5   0  178.78    5.03
   1   5   0  189.88    5.01
   1   5   0  178.80    4.50
  -1   5   0  195.55    4.71
  -1   5   0  183.26    4.93
   1   5   0  186.71    4.85
  -1   5  -1   75.74    1.25
  -1   5  -1   64.05    1.21
  -1   5  -1   64.83    1.67
   1   5   1   68.95    1.76
  -1   5  -1   77.55    2.10
  -1   5  -1   77.05    2.01
   1   5   1   82.57    1.88
  -1   5  -2  133.93    2.68
  -1   5  -2  159.96    2.98
   1   5   2  136.05    2.74
  -1   5  -2  144.59    2.64
  -1   5  -2  163.11    2.96
   1   5   2  166.55    2.83
  -1   5  -2  128.35    2.40
  -1   5  -2  137.75    2.62
   1   5   3   96.93    3.12
  -1   5  -3  106.13    3.15
  -1   5  -4  146.69    4.12
   1   5   4  142.82    4.48
  -1   5  -4  155.73    4.41
  -1   5  -5   43.56    2.03
  -1   5  -5   42.59    2.14
   1   5   5   47.18    2.27
  -1   5  -5   48.65    1.75
  -1   5  -6   31.67    2.06
   1   5   6   29.76    1.37
  -1   5  -6   31.92    1.29
   1   5   6   28.87    1.96
  -1   5  -6   30.13    1.93
  -1   5  -7   20.90    2.02
   1   5   7   19.87    1.11
  -1   5  -7   21.41    1.82
   1   5   7   19.51    1.93
   1   6  -8    1.17    1.66
   1   6  -7   16.73    1.91
   1   6  -7   19.60    1.20
   1   6  -7   21.29    1.40
  -1   6   7   18.60    1.87
   1   6  -6    1.26    0.87
  -1   6   6    0.64    1.30
   1   6  -6    1.29    1.30
   1   6  -6    1.29    0.87
  -1   6   6    0.98    0.66
   1   6  -5   69.65    1.96
  -1   6   5   77.44    2.52
   1   6  -5   90.55    2.16
   1   6  -5   75.39    2.65
   1   6  -5   72.77    2.34
  -1   6   5   94.73    2.44
   1   6  -4   32.33    1.44
  -1   6   4   43.90    1.74
   1   6  -4   37.29    2.02
  -1   6   4   37.08    1.87
   1   6  -4   41.80    1.72
   1   6  -4   41.57    1.64
   1   6  -4   36.01    1.73
   1   6  -3  131.71    3.55
   1   6  -3  115.81    3.73
   1   6  -3  114.61    3.35
  -1   6   3  108.80    3.51
   1   6  -3   99.76    3.53
  -1   6   3  120.09    3.44
   1   6  -3  109.29    3.33
   1   6  -2   39.55    1.00
   1   6  -2   33.90    1.20
   1   6  -2   43.79    1.68
   1   6  -2   38.28    1.32
   1   6  -2   33.30    0.93
   1   6  -2   34.50    1.63
   1   6  -2   29.61    1.47
  -1   6   2   29.74    1.43
  -1   6   2   35.15    1.46
  -1   6   2   41.24    1.48
   1   6  -1  203.44    5.21
  -1   6   1  215.95    5.36
  -1   6   1  194.91    5.51
   1   6  -1  198.04    5.11
   1   6  -1  186.55    5.58
   1   6  -1  214.00    5.19
  -1   6   0  151.15    4.15
   1   6   0  135.86    3.60
  -1   6   0  130.57    3.53
   1   6   0  125.84    3.26
  -1   6   0  110.69    3.68
  -1   6   0  148.05    3.55
  -1   6   0  142.79    3.59
   1   6   1  102.37    2.46
  -1   6  -1  108.12    2.89
  -1   6  -1  102.21    2.67
  -1   6  -1   90.25    2.37
  -1   6  -1   76.19    1.82
  -1   6  -1   98.68    1.93
  -1   6  -1   79.28    2.35
  -1   6  -1   94.03    1.85
  -1   6  -2   63.15    1.79
   1   6   2   71.37    1.99
  -1   6  -2   67.28    1.92
  -1   6  -3   88.78    3.07
   1   6   3   97.82    3.26
  -1   6  -3   92.80    2.96
   1   6   3   99.51    3.22
   1   6   4   28.21    1.70
  -1   6  -4   25.58    1.44
  -1   6  -4   27.33    1.41
  -1   6  -5   27.05    1.44
   1   6   5   24.27    1.75
  -1   6  -5   26.31    1.74
  -1   6  -5   23.42    1.74
  -1   6  -6    9.15    1.48
   1   6   6    6.90    1.54
  -1   6  -6    7.99    1.02
  -1   6  -6    7.59    1.70
  -1   6  -7   14.12    1.94
   1   6   7   16.58    1.05
   1   6   7   10.93    1.82
  -1   6  -7   13.62    1.83
  -1   6  -8    7.86    1.79
  -1   7   7    9.14    1.80
  -1   7   7    8.85    1.29
   1   7  -7    8.65    1.77
   1   7  -7    8.91    1.96
   1   7  -7   10.45    1.32
   1   7  -7   10.98    1.29
  -1   7   6   12.63    1.74
   1   7  -6   14.45    1.58
  -1   7   6   14.71    1.35
   1   7  -6   15.64    1.82
   1   7  -6   14.54    1.21
  -1   7   5   10.72    1.42
   1   7  -5   11.77    1.20
  -1   7   5   10.39    1.17
   1   7  -5   11.51    1.14
   1   7  -5   10.77    1.38
  -1   7   4   81.62    2.59
   1   7  -4   68.12    2.56
  -1   7   4   68.34    2.79
   1   7  -4   61.40    2.72
   1   7  -4   64.88    2.35
   1   7  -4   72.61    2.56
   1   7  -4   83.80    2.66
   1   7  -3   50.86    2.03
   1   7  -3   46.28    1.77
   1   7  -3   41.92    1.69
  -1   7   3   36.40    1.80
   1   7  -3   37.46    1.92
  -1   7   3   41.72    1.74
  -1   7   2   70.70    2.60
  -1   7   2   73.19    2.51
   1   7  -2   66.90    1.97
   1   7  -2   71.48    1.95
  -1   7   2   68.12    2.57
   1   7  -2   67.68    2.68
   1   7  -2   82.41    2.42
  -1   7   2   80.49    2.53
   1   7  -2   75.85    2.27
  -1   7   1   13.07    1.15
  -1   7   1   17.57    1.02
   1   7  -1   16.00    0.84
   1   7  -1   16.33    0.81
   1   7  -1   15.13    0.72
  -1   7   1   15.06    0.99
   1   7  -1   14.94    1.22
   1   7  -1   13.47    1.19
  -1   7   0   70.83    2.07
   1   7   0   71.57    2.20
   1   7   0   69.29    2.33
   1   7   0   56.52    1.76
  -1   7   0   64.67    2.34
   1   7   0   73.07    2.15
  -1   7   0   77.05    2.05
   1   7   0   63.34    2.49
   1   7   0   66.14    1.72
  -1   7   0   64.69    2.02
  -1   7  -1   22.92    0.82
  -1   7  -1   30.59    0.91
   1   7   1   34.20    1.43
   1   7   1   24.01    1.55
   1   7   1   29.27    1.41
  -1   7  -1   30.07    1.37
  -1   7  -2  119.26    3.73
  -1   7  -2  122.46    3.86
  -1   7  -2  143.01    3.98
   1   7   2   98.79    3.72
  -1   7  -3   43.82    1.92
  -1   7  -3   43.98    2.01
   1   7   3   50.30    2.17
   1   7   3   46.21    2.21
   1   7   4   22.08    1.66
  -1   7  -4   18.88    1.53
  -1   7  -4   21.71    1.46
  -1   7  -4   20.89    1.47
  -1   7  -4   19.78    1.46
  -1   7  -5    9.06    1.47
  -1   7  -5    9.42    1.30
  -1   7  -5   10.27    1.40
   1   7   5   10.26    1.50
  -1   7  -5    9.43    1.32
  -1   7  -6   17.13    1.94
  -1   7  -6   18.01    1.67
   1   7   6   18.73    1.87
  -1   7  -6   18.82    1.78
  -1   7  -6   21.61    1.51
   1   7   6   18.19    1.41
  -1   7  -7   18.11    2.16
   1   7   7   13.75    1.23
  -1   7  -7   14.59    1.66
  -1   7  -7   15.69    2.04
  -1   7  -8    1.69    1.64
  -1   7  -8    0.86    1.82
   1   8  -7   14.40    2.49
   1   8  -7   10.97    1.91
   1   8  -7   13.53    2.06
   1   8  -7   13.37    1.53
  -1   8   7   12.17    1.54
   1   8  -6   -0.40    1.48
   1   8  -6    0.88    1.06
   1   8  -6   -0.33    1.81
   1   8  -6    0.38    1.41
  -1   8   6    0.97    1.21
  -1   8   6    0.25    1.46
  -1   8   5   29.25    1.82
   1   8  -5   30.70    1.62
   1   8  -5   30.30    1.96
   1   8  -5   33.03    2.30
   1   8  -5   28.08    2.01
  -1   8   4   17.70    1.59
   1   8  -4   17.19    1.36
   1   8  -4   17.66    1.34
  -1   8   4   23.13    1.41
   1   8  -4   18.15    1.84
   1   8  -3   25.14    1.44
   1   8  -3   22.37    1.30
   1   8  -3   19.94    1.69
  -1   8   3   21.63    1.56
  -1   8   3   24.02    1.41
  -1   8   3   18.64    1.46
   1   8  -3   21.54    1.71
  -1   8   2    5.11    1.02
  -1   8   2    4.36    1.14
   1   8  -2    4.89    0.73
  -1   8   2    4.08    1.10
   1   8  -2    4.57    1.21
  -1   8   2    5.51    0.96
   1   8  -2    3.71    1.16
   1   8  -2    3.91    0.39
   1   8  -1   89.03    2.45
  -1   8   1  102.27    2.83
   1   8  -1   91.03    2.55
  -1   8   1   79.78    3.07
   1   8  -1   85.34    2.58
  -1   8   1   87.04    2.81
  -1   8   1   81.87    3.03
   1   8  -1   88.83    3.02
   1   8  -1   75.99    3.08
   1   8   0   52.32    2.35
  -1   8   0   59.58    1.71
   1   8   0   44.13    1.29
   1   8   0   64.15    1.92
   1   8   0   57.89    2.10
  -1   8   0   58.19    1.77
  -1   8   0   51.92    2.24
  -1   8   0   53.05    1.72
   1   8   0   56.84    1.90
  -1   8   0   51.44    2.16
  -1   8  -1    6.98    0.37
  -1   8  -1    9.62    1.27
  -1   8  -1    9.55    0.99
   1   8   1    9.13    0.99
   1   8   1    8.30    1.30
   1   8   1    9.99    0.98
  -1   8  -2    4.68    1.06
   1   8   2    5.19    1.11
   1   8   2    5.15    1.28
  -1   8  -2    5.30    1.22
  -1   8  -2    5.72    1.11
   1   8   3   50.69    2.49
  -1   8  -3   54.95    2.58
  -1   8  -3   46.53    2.14
  -1   8  -3   46.14    2.21
  -1   8  -3   53.17    2.37
  -1   8  -4   11.53    1.45
  -1   8  -4   11.86    1.46
  -1   8  -4   12.38    1.42
  -1   8  -4   12.48    1.45
  -1   8  -4   12.58    1.48
  -1   8  -5   11.62    1.73
   1   8   5   12.10    1.74
  -1   8  -5   10.53    1.42
  -1   8  -5   11.16    1.60
  -1   8  -5    9.70    1.63
  -1   8  -5    9.54    1.43
  -1   8  -6    5.81    1.54
  -1   8  -6    7.30    1.76
   1   8   6    7.09    1.85
  -1   8  -6    6.15    1.58
  -1   8  -6    6.30    1.49
  -1   8  -6    5.59    1.72
   1   8   6    5.75    1.33
  -1   8  -7    6.85    1.70
  -1   8  -7    6.20    1.71
  -1   9   7    6.65    1.59
   1   9  -7    6.72    1.89
   1   9  -6    3.58    1.68
  -1   9   6    3.40    1.76
   1   9  -6    3.65    1.28
  -1   9   6    2.82    1.45
   1   9  -6    4.65    2.22
   1   9  -6    3.76    1.54
   1   9  -5    0.09    1.29
  -1   9   5   -0.05    1.53
   1   9  -5    0.63    1.07
  -1   9   5    0.23    1.29
   1   9  -5    0.16    1.64
   1   9  -5    0.67    1.33
   1   9  -4   26.52    1.71
   1   9  -4   25.77    1.70
  -1   9   4   31.94    2.07
   1   9  -4   29.01    2.31
   1   9  -3   13.74    1.68
  -1   9   3   15.43    1.48
  -1   9   3   19.20    1.35
   1   9  -3   15.88    1.22
   1   9  -3   15.76    1.70
   1   9  -3   18.55    1.42
  -1   9   3   12.36    1.49
   1   9  -2   19.80    1.06
   1   9  -2   15.23    0.58
  -1   9   2   19.09    1.43
  -1   9   2   18.43    1.63
   1   9  -2   17.13    1.67
   1   9  -2   19.09    1.64
  -1   9   2   18.98    1.69
  -1   9   2   22.31    1.34
   1   9  -1    4.57    0.52
   1   9  -1    5.90    1.18
   1   9  -1    6.00    0.80
  -1   9   1    4.62    1.17
  -1   9   1    5.88    0.91
   1   9  -1    5.75    0.65
  -1   9   1    5.08    0.99
   1   9  -1    5.09    1.35
  -1   9   1    5.12    1.27
  -1   9   0   37.53    1.34
   1   9   0   36.70    1.52
  -1   9   0   34.60    2.06
   1   9   0   31.06    1.99
  -1   9   0   31.55    1.34
   1   9   0   35.62    1.57
  -1   9   0   31.71    1.36
  -1   9   0   35.73    1.44
   1   9   1    2.71    0.99
  -1   9  -1    2.77    1.30
   1   9   1    2.88    1.44
  -1   9  -1    2.88    0.98
  -1   9  -1    2.89    1.17
  -1   9  -2   42.20    2.31
   1   9   2   39.55    2.09
   1   9   2   38.43    2.31
  -1   9  -2   38.73    2.12
   1   9   3   14.44    1.80
  -1   9  -3   16.52    1.57
  -1   9  -3   13.81    1.68
  -1   9  -3   14.04    1.54
   1   9   3   13.60    1.57
  -1   9  -3   14.86    1.66
  -1   9  -4    1.09    1.34
  -1   9  -4    0.66    1.48
   1   9   4    1.23    1.52
  -1   9  -4    1.50    1.30
  -1   9  -4    1.98    1.45
  -1   9  -4    0.93    1.36
  -1   9  -5    2.07    1.68
   1   9   5    2.28    1.72
  -1   9  -5    2.31    1.58
  -1   9  -5    0.46    1.46
  -1   9  -5    2.75    1.71
   1   9   5    2.34    1.40
  -1   9  -5    2.59    1.50
  -1   9  -6   11.81    1.82
   1   9   6   12.43    1.64
  -1   9  -6   11.83    1.92
  -1   9  -6   13.16    1.76
  -1   9  -6   11.10    2.01
  -1   9  -6   12.69    1.98
   1  10  -6    2.32    1.74
   1  10  -6    0.90    1.73
   1  10  -5   11.39    1.61
  -1  10   5   12.07    1.87
   1  10  -5   11.03    1.52
   1  10  -5    9.84    1.86
  -1  10   5   10.35    1.63
   1  10  -5   10.61    2.25
   1  10  -4    4.35    1.67
   1  10  -4    5.18    1.40
  -1  10   4    3.42    1.50
   1  10  -4    4.61    1.31
   1  10  -4    4.46    1.82
  -1  10   3    6.13    1.58
   1  10  -3    3.55    1.57
  -1  10   3    4.88    1.42
   1  10  -3    4.30    1.10
  -1  10   2    0.48    1.14
  -1  10   2    0.97    1.44
   1  10  -2    0.37    0.73
   1  10  -2    0.84    1.37
  -1  10   2    0.68    1.58
   1  10  -2    0.03    1.46
   1  10  -1   28.72    1.28
  -1  10   1   25.98    1.53
  -1  10   1   28.12    2.07
   1  10  -1   27.53    2.13
   1  10  -1   30.69    1.83
  -1  10   0   14.79    0.97
  -1  10   0   15.74    1.00
   1  10   0   15.49    1.26
   1  10   0   14.90    1.85
  -1  10   0   15.28    1.69
  -1  10   0   16.12    1.81
   1  10   1    3.78    1.28
  -1  10  -1    3.68    1.00
   1  10   1    3.18    1.53
  -1  10  -1    3.18    1.53
  -1  10  -1    4.64    1.39
   1  10   2    0.89    1.49
  -1  10  -2    0.39    1.23
   1  10   2   -0.11    1.37
  -1  10  -2    0.13    1.37
  -1  10  -3   14.20    1.54
  -1  10  -3   15.65    1.87
  -1  10  -3   13.44    1.74
   1  10   3   15.48    1.74
  -1  10  -3   13.92    1.69
  -1  10  -3   14.01    1.73
  -1  10  -4    5.95    1.59
  -1  10  -4    6.38    1.46
  -1  10  -4    6.34    1.64
  -1  10  -4    6.79    1.71
  -1  10  -4    7.28    1.63
   1  10   4    6.78    1.75
  -1  10  -5    5.87    1.73
  -1  10  -5    7.06    1.86
  -1  10  -5    3.23    1.85
  -1  10  -5    4.45    1.71
  -1  10  -5    4.71    1.71
   1  10   5    3.74    1.63
  -1  10  -6    1.67    1.77
  -1  11   4   11.05    1.87
   1  11  -4   10.84    2.01
   1  11  -4    9.89    1.67
   1  11  -3    3.48    1.76
   1  11  -3    3.24    1.58
  -1  11   3    3.02    1.42
  -1  11   2    3.99    1.28
   1  11  -2    5.70    1.54
  -1  11   1    3.78    1.71
   1  11  -1    4.24    1.89
  -1  11   1    3.59    1.74
   1  11  -1    4.35    1.29
  -1  11   0   12.41    1.91
   1  11   0   11.71    1.97
  -1  11   0   10.45    1.78
   1  11   1   -0.09    1.27
  -1  11  -1    0.33    1.64
   1  11   1    0.14    1.73
  -1  11  -1    0.66    1.55
   1  11   2   10.17    1.62
  -1  11  -2    8.35    1.79
  -1  11  -2    9.04    1.45
  -1  11  -2    8.50    1.77
  -1  11  -3    3.20    1.33
   1  11   3    4.25    1.68
  -1  11  -3    3.21    1.59
  -1  11  -3    3.74    1.71
  -1  11  -4    1.79    1.90
  -1  11  -4    1.06    1.72
   1  12  -3    1.81    1.73
   2 -11  -5    1.16    1.73
   2 -11  -4    3.30    1.61
  -2 -11   3    5.31    1.67
   2 -11  -3    9.36    1.62
   2 -11  -2    5.53    1.46
  -2 -11   2    4.92    1.68
   2 -11  -1    3.37    1.38
  -2 -11   1    1.91    1.72
   2 -11   0    7.14    2.14
   2 -11   0    6.30    1.45
  -2 -11   0    4.40    1.78
   2 -11   1    0.35    1.29
   2 -10  -6    0.93    1.80
   2 -10  -5    2.20    1.60
   2 -10  -4    7.38    2.06
   2 -10  -4    7.54    1.66
   2 -10  -3   19.12    1.76
   2 -10  -3   21.65    2.29
  -2 -10   3   19.97    1.93
  -2 -10   2    0.16    1.47
   2 -10  -2    1.33    1.24
   2 -10  -2    1.94    1.77
  -2 -10   1    1.47    1.54
   2 -10  -1    2.24    1.18
   2 -10  -1    3.33    1.84
   2 -10   0   11.70    1.44
   2 -10   0    9.17    1.91
   2 -10   0   10.97    0.90
   2 -10   1   29.14    1.87
  -2 -10  -1   24.92    2.28
  -2 -10  -2    1.63    1.70
   2  -9  -5    2.13    1.61
   2  -9  -5   -0.43    1.76
   2  -9  -4    5.11    1.78
   2  -9  -4    3.38    1.39
   2  -9  -3   16.69    2.10
   2  -9  -3   16.78    1.63
  -2  -9   3   17.61    1.58
   2  -9  -2   18.28    2.00
  -2  -9   2   16.82    1.64
   2  -9  -2   19.02    1.62
  -2  -9   1   12.70    1.05
   2  -9  -1   13.56    1.09
  -2  -9   1    8.70    1.49
   2  -9  -1    9.00    1.78
   2  -9  -1    9.56    1.31
   2  -9   0   18.01    1.92
  -2  -9   0   23.49    1.30
   2  -9   0   20.31    1.57
   2  -9   0   22.60    1.04
  -2  -9  -1    2.60    1.36
   2  -9   1    3.34    1.18
  -2  -9  -2    6.35    1.69
   2  -9   2    8.00    1.42
  -2  -9  -2    6.13    0.36
  -2  -9  -3   10.59    1.77
  -2  -9  -3   15.52    0.91
  -2  -9  -4   18.30    2.14
   2  -8  -7    5.64    1.94
   2  -8  -5    7.92    1.83
   2  -8  -4   35.15    2.31
  -2  -8   4   37.77    1.77
   2  -8  -3   50.71    2.64
   2  -8  -3   47.46    2.35
  -2  -8   2   10.28    0.80
   2  -8  -2   13.64    1.18
  -2  -8   2   12.14    0.87
   2  -8  -2   12.50    1.60
  -2  -8   2   10.34    1.24
  -2  -8   1   31.39    1.31
  -2  -8   1   25.91    1.27
   2  -8  -1   31.45    1.33
   2  -8  -1   22.52    1.89
   2  -8   0   68.08    2.61
  -2  -8   0   68.59    2.48
   2  -8   0   79.80    2.24
  -2  -8   0   59.91    2.85
   2  -8   0   63.08    3.01
  -2  -8   0   81.65    2.54
  -2  -8  -1   49.60    2.55
   2  -8   1   53.78    1.39
   2  -8   1   54.83    2.25
  -2  -8  -2    4.64    0.50
  -2  -8  -2    3.56    1.19
  -2  -8  -2    2.61    1.31
   2  -8   2    3.77    1.18
  -2  -8  -3   11.61    1.72
  -2  -8  -4    9.18    1.80
  -2  -8  -5   10.74    1.94
   2  -7  -8    5.09    1.85
   2  -7  -7   19.39    2.06
   2  -7  -5   17.69    0.66
   2  -7  -5   17.42    1.81
   2  -7  -4   16.41    1.73
   2  -7  -3   23.78    1.81
  -2  -7   3   23.90    0.89
  -2  -7   3   24.90    1.44
   2  -7  -2   62.13    2.75
  -2  -7   2   58.96    2.44
  -2  -7   2   63.97    2.00
   2  -7  -2   73.75    2.37
  -2  -7   2   68.86    2.10
  -2  -7   1   34.04    1.38
   2  -7  -1   27.21    1.85
   2  -7  -1   33.46    1.36
  -2  -7   1   29.42    1.31
  -2  -7   1   31.43    1.60
  -2  -7   0   54.73    2.44
   2  -7   0   53.38    2.54
   2  -7   0   64.45    1.89
  -2  -7   0   68.26    2.42
  -2  -7   0   51.17    2.06
   2  -7   0   63.99    2.27
  -2  -7   0   67.49    2.17
   2  -7   1   26.14    0.84
  -2  -7  -1   19.89    1.64
  -2  -7  -1   23.84    0.72
  -2  -7  -1   30.06    1.53
  -2  -7  -2   26.55    1.79
  -2  -7  -2   26.46    1.08
  -2  -7  -3   31.36    2.08
  -2  -7  -3   32.85    1.88
  -2  -7  -4   62.45    2.73
  -2  -7  -4   62.80    2.99
  -2  -7  -5    5.97    1.65
  -2  -7  -6   10.94    2.01
   2  -6  -9    3.01    1.78
   2  -6  -8    7.34    1.75
   2  -6  -7   17.58    1.84
  -2  -6   7   16.43    0.71
  -2  -6   6   16.59    0.64
   2  -6  -5   16.74    0.81
   2  -6  -5   17.82    1.58
  -2  -6   5   17.53    0.67
  -2  -6   5   17.29    0.65
   2  -6  -4   84.46    3.09
  -2  -6   4   86.34    2.06
   2  -6  -3   97.71    3.38
  -2  -6   3   93.37    2.54
  -2  -6   3   90.84    2.93
   2  -6  -2   68.91    2.49
  -2  -6   2   81.03    2.00
   2  -6  -2   79.40    2.35
  -2  -6   2   87.78    2.07
   2  -6  -2   95.94    2.47
  -2  -6   1  129.46    3.11
   2  -6  -1  127.59    3.05
  -2  -6   1  146.12    2.71
  -2  -6   1  166.78    2.79
   2  -6  -1  162.03    2.79
  -2  -6   0  124.40    3.14
   2  -6   0  117.93    2.92
   2  -6   0  140.76    2.85
   2  -6   0  149.38    2.49
  -2  -6   0  154.41    2.85
  -2  -6  -1  109.26    2.31
  -2  -6  -1  105.73    2.94
   2  -6   1  102.21    3.00
   2  -6   1  113.00    2.42
   2  -6   1  100.30    2.32
  -2  -6  -1  119.69    3.10
  -2  -6  -2   51.52    1.64
  -2  -6  -2   41.15    1.81
  -2  -6  -3   33.64    1.82
  -2  -6  -4   13.39    1.42
  -2  -6  -5   34.36    2.10
  -2  -6  -5   29.22    1.59
  -2  -6  -7    8.89    1.53
   2  -5  -9    9.07    1.78
  -2  -5   8   25.66    1.26
   2  -5  -8   28.40    2.10
  -2  -5   7   40.02    1.42
   2  -5  -7   34.81    2.15
   2  -5  -6   47.34    2.25
  -2  -5   6   43.13    1.58
   2  -5  -5   82.36    2.97
  -2  -5   5   77.46    2.23
  -2  -5   4  116.23    3.14
   2  -5  -4  123.98    3.89
  -2  -5   3   65.75    2.14
   2  -5  -3   69.86    2.57
   2  -5  -3   73.22    2.36
   2  -5  -2   87.22    3.01
  -2  -5   2   95.93    2.57
   2  -5  -2   89.57    2.75
  -2  -5   2   90.60    2.86
  -2  -5   1   50.86    1.58
   2  -5  -1   50.55    1.71
   2  -5  -1   55.38    1.45
  -2  -5   0  101.83    2.54
  -2  -5   0  115.89    2.38
   2  -5   0  101.79    2.49
  -2  -5   0  122.34    2.58
   2  -5   0  113.77    1.99
  -2  -5  -1   73.77    2.45
   2  -5   1   79.97    2.09
  -2  -5  -1   87.88    2.59
   2  -5   1   71.37    2.03
  -2  -5  -1   86.58    2.52
   2  -5   1   68.03    2.52
   2  -5   2  167.23    4.39
  -2  -5  -2  166.28    4.39
  -2  -5  -3   91.53    3.11
  -2  -5  -3   87.11    2.63
  -2  -5  -4   56.93    1.49
  -2  -5  -4   64.74    2.17
  -2  -5  -5   31.97    1.88
  -2  -5  -5   26.62    1.37
   2  -5   6   30.54    1.09
  -2  -5  -6   41.89    1.89
  -2  -5  -7    3.25    1.33
  -2  -5  -8    9.86    1.75
   2  -4  -9    5.58    1.59
  -2  -4   9    8.50    1.05
  -2  -4   9    8.45    1.13
   2  -4  -8   20.98    1.77
  -2  -4   8   19.42    1.23
  -2  -4   8   22.44    1.35
  -2  -4   7   38.46    1.57
   2  -4  -7   33.27    1.97
  -2  -4   7   30.26    1.45
  -2  -4   7   37.52    1.68
  -2  -4   6   50.71    1.73
   2  -4  -6   45.53    2.13
  -2  -4   5   81.58    2.39
   2  -4  -4   98.05    3.28
  -2  -4   4   94.82    2.81
   2  -4  -3  116.56    3.68
   2  -4  -3  125.29    3.54
   2  -4  -3  119.80    3.07
   2  -4  -2  324.90    8.90
  -2  -4   2  320.00    8.62
   2  -4  -2  343.13    8.68
  -2  -4   2  335.63    8.51
   2  -4  -1  409.77   10.86
   2  -4  -1  463.65   10.60
  -2  -4   1  406.06   10.69
  -2  -4   1  444.73   10.56
  -2  -4   1  415.83   10.54
   2  -4  -1  397.97   10.85
   2  -4  -1  413.13   10.55
  -2  -4   1  451.03   10.83
   2  -4   0   97.36    3.17
  -2  -4   0  110.63    3.09
  -2  -4   0  110.04    2.94
  -2  -4   0   93.72    2.86
   2  -4   0   97.73    3.08
  -2  -4   0  103.44    2.98
   2  -4   0  102.34    2.81
  -2  -4  -1  196.79    5.07
  -2  -4  -1  187.32    4.99
  -2  -4  -1  195.57    4.97
   2  -4   1  168.68    5.00
  -2  -4  -1  192.13    4.95
   2  -4   1  174.97    4.59
  -2  -4  -2  182.65    4.22
  -2  -4  -2  182.78    4.14
   2  -4   2  165.96    3.63
   2  -4   2  176.92    3.61
  -2  -4  -2  193.11    4.23
   2  -4   2  157.13    4.15
   2  -4   2  151.63    3.58
  -2  -4  -2  159.44    3.69
   2  -4   3  123.67    2.03
  -2  -4  -3  132.40    2.45
   2  -4   3  127.67    2.03
   2  -4   4   13.54    0.68
  -2  -4  -4   12.36    0.97
  -2  -4  -4   13.29    1.24
  -2  -4  -5   69.60    2.57
   2  -4   5   68.51    2.14
  -2  -4  -5   67.91    2.87
   2  -4   6    5.73    0.84
   2  -4   6    5.29    0.74
  -2  -4  -6    4.98    1.18
   2  -4   7   14.32    1.06
  -2  -4  -7   14.26    1.62
  -2  -4  -8    4.72    1.54
  -2  -3  10    4.00    1.39
  -2  -3  10    1.75    1.36
   2  -3  -9   32.97    1.96
  -2  -3   9   31.65    1.90
  -2  -3   9   31.47    1.81
   2  -3  -8   57.72    2.42
   2  -3  -8   54.20    2.91
  -2  -3   7   33.15    1.55
   2  -3  -7   33.97    1.74
  -2  -3   7   31.16    1.56
   2  -3  -7   32.04    2.14
   2  -3  -6   40.27    1.76
   2  -3  -6   34.98    2.04
  -2  -3   6   38.72    1.59
  -2  -3   6   40.33    1.65
  -2  -3   5  187.08    5.07
  -2  -3   5  197.23    5.12
   2  -3  -4  547.61   12.62
  -2  -3   4  504.91   12.39
   2  -3  -3   82.40    2.62
  -2  -3   3   77.52    2.34
  -2  -3   3   85.77    2.47
  -2  -3   2  108.59    2.87
   2  -3  -2  101.21    3.11
  -2  -3   2  101.35    2.86
   2  -3  -2  106.02    2.96
   2  -3  -2  111.36    3.07
  -2  -3   2  115.49    2.96
   2  -3  -2  112.75    3.01
  -2  -3   2  114.45    3.16
  -2  -3   2   97.26    2.86
   2  -3  -1  109.44    2.04
  -2  -3   1  104.96    1.68
   2  -3  -1   99.26    1.88
   2  -3  -1  101.66    2.27
  -2  -3   1  104.31    1.98
   2  -3  -1  110.10    2.09
  -2  -3   1  114.81    2.31
  -2  -3   1   98.48    1.94
   2  -3   0  163.99    2.32
   2  -3   0  178.66    2.50
  -2  -3   0  170.72    2.63
  -2  -3   0  186.42    2.84
   2  -3   0  166.55    2.23
   2  -3   0  174.10    2.58
  -2  -3   0  177.47    2.59
  -2  -3  -1  167.63    2.10
  -2  -3  -1  178.44    2.82
  -2  -3  -1  189.19    2.78
   2  -3   1  170.77    2.26
   2  -3   1  165.06    2.26
   2  -3   1  178.84    2.38
  -2  -3  -1  177.50    2.61
  -2  -3  -2  610.42    7.48
  -2  -3  -2  609.71    7.70
   2  -3   3   99.98    2.22
   2  -3   3  103.27    1.78
   2  -3   3  100.50    1.76
  -2  -3  -3  107.31    2.20
   2  -3   4   48.47    1.53
   2  -3   4   47.78    1.49
   2  -3   5   97.74    2.85
  -2  -3  -5   92.50    3.36
   2  -3   5  100.38    2.84
  -2  -3  -5   88.53    3.08
   2  -3   6  105.93    3.28
  -2  -3  -6  101.82    3.81
  -2  -3  -6  103.36    3.66
  -2  -3  -7    7.17    1.51
   2  -3   7    2.22    0.71
  -2  -3  -8    6.58    1.82
   2  -3   8    7.28    1.16
  -2  -2  10    2.23    1.34
  -2  -2  10    1.54    1.36
   2  -2  -9    1.41    1.04
  -2  -2   9    1.46    1.14
  -2  -2   9    2.14    1.20
   2  -2  -9    1.99    1.72
  -2  -2   8   42.84    1.64
   2  -2  -8   40.66    1.84
  -2  -2   8   40.02    1.87
   2  -2  -8   39.13    2.46
  -2  -2   8   40.68    1.91
   2  -2  -7   58.11    2.76
  -2  -2   7   60.53    1.96
   2  -2  -7   63.56    2.28
  -2  -2   7   62.17    2.26
  -2  -2   7   60.56    2.19
   2  -2  -6   85.90    2.71
  -2  -2   6   86.74    2.44
  -2  -2   6   77.79    2.67
  -2  -2   6   80.46    2.72
   2  -2  -6   85.51    3.22
  -2  -2   5  219.09    5.81
   2  -2  -5  222.34    6.52
  -2  -2   4   46.49    1.68
   2  -2  -4   41.11    1.49
   2  -2  -4   48.27    1.72
  -2  -2   4   42.64    1.49
  -2  -2   4   40.19    1.46
   2  -2  -3   75.00    2.30
   2  -2  -3   78.06    2.22
  -2  -2   3   66.27    2.19
   2  -2  -3   79.70    2.17
  -2  -2   3   82.97    2.36
   2  -2  -3   88.89    2.46
  -2  -2   2  686.63   16.25
   2  -2  -2  669.85   16.09
  -2  -2   2  652.86   16.24
   2  -2  -2  640.74   16.35
  -2  -2   2  676.33   16.45
   2  -2  -2  682.03   16.25
  -2  -2   2  652.24   16.08
   2  -2  -2  718.90   16.41
   2  -2  -1  902.53   22.40
   2  -2  -1  846.51   22.46
  -2  -2   1  933.94   22.31
  -2  -2   1  890.31   22.28
  -2  -2   1  907.44   22.42
   2  -2  -1  983.75   22.30
   2  -2  -1  956.88   22.30
  -2  -2   1  898.33   22.16
   2  -2  -1  958.31   22.18
  -2  -2   0   88.73    1.70
   2  -2   0   79.01    1.18
   2  -2   0   89.46    1.55
   2  -2   0   86.00    1.45
   2  -2   0   82.89    1.52
   2  -2   0   85.93    1.47
  -2  -2   0   95.64    1.65
   2  -2   0   84.24    1.79
  -2  -2   0   88.29    1.21
  -2  -2  -1   65.92    2.09
  -2  -2  -1   74.70    1.90
   2  -2   1   67.08    1.91
   2  -2   1   69.10    1.92
  -2  -2  -1   77.57    2.12
  -2  -2  -1   72.83    2.00
   2  -2   1   66.77    1.95
   2  -2   2  289.90    7.74
   2  -2   2  284.01    7.60
  -2  -2  -2  328.69    7.71
  -2  -2  -2  307.43    7.93
   2  -2   2  309.60    7.61
  -2  -2  -2  329.97    7.85
   2  -2   2  286.93    7.87
   2  -2   2  315.36    7.59
   2  -2   3  367.58    9.38
  -2  -2  -3  428.08    9.57
  -2  -2  -3  394.17    9.32
  -2  -2  -3  353.23    9.30
  -2  -2  -3  320.14    9.40
  -2  -2  -4    4.30    0.75
   2  -2   4    3.03    0.73
   2  -2   4    3.61    0.54
   2  -2   4    4.10    0.63
  -2  -2  -4    4.29    0.83
  -2  -2  -4    4.07    0.70
  -2  -2  -5  124.65    4.31
   2  -2   5  132.64    4.01
  -2  -2  -5  158.33    4.20
   2  -2   5  156.23    4.11
   2  -2   6    4.97    0.90
  -2  -2  -6    4.26    1.21
   2  -2   7    8.44    1.14
  -2  -2  -7    6.87    1.41
   2  -2   8   12.54    1.41
  -2  -2  -8   12.80    1.90
   2  -2   9   22.33    1.82
  -2  -1  10    0.33    1.40
   2  -1  -9   55.99    2.19
  -2  -1   9   51.01    2.47
   2  -1  -9   51.80    3.06
   2  -1  -8   80.80    2.79
   2  -1  -8   84.82    3.53
  -2  -1   8   81.90    3.04
  -2  -1   7   17.66    1.00
   2  -1  -7   15.19    1.55
   2  -1  -7   15.92    1.04
  -2  -1   6   22.00    1.02
   2  -1  -6   22.10    1.11
  -2  -1   6   27.46    1.43
   2  -1  -6   23.74    1.56
  -2  -1   5  492.76    5.93
   2  -1  -5  414.17    4.94
   2  -1  -5  486.34    5.85
  -2  -1   5  394.87    5.30
  -2  -1   5  389.18    4.60
   2  -1  -5  437.39    4.68
  -2  -1   4  685.68   15.19
   2  -1  -4  688.34   15.21
   2  -1  -4  550.11   14.84
   2  -1  -4  585.33   15.30
  -2  -1   4  590.43   14.95
  -2  -1   4  611.38   15.02
  -2  -1   3    7.63    0.63
  -2  -1   3    5.97    0.24
   2  -1  -3    7.74    0.48
   2  -1  -3    8.63    0.52
   2  -1  -3    8.45    0.64
  -2  -1   3    8.00    0.58
   2  -1  -3    6.84    0.51
  -2  -1   3    7.82    0.60
  -2  -1   2  336.50    7.23
   2  -1  -2  337.23    7.14
   2  -1  -2  341.91    7.28
   2  -1  -2  330.77    7.14
  -2  -1   2  358.53    7.31
   2  -1  -2  338.73    7.14
  -2  -1   1  234.86    5.46
  -2  -1   1  246.84    5.41
   2  -1  -1  230.87    5.38
   2  -1  -1  220.41    5.25
   2  -1  -1  233.29    5.37
  -2  -1   1  235.76    5.20
   2  -1  -1  232.22    5.35
  -2  -1   0  326.83    7.66
  -2  -1   0  325.20    7.67
  -2  -1   0  293.05    7.60
   2  -1   0  309.18    7.55
   2  -1   0  301.75    7.69
  -2  -1   0  302.79    7.50
   2  -1   0  300.63    7.56
  -2  -1   0  297.36    7.57
  -2  -1  -1  422.61   10.31
  -2  -1  -1  438.43   10.25
   2  -1   1  443.33   10.32
  -2  -1  -1  394.58   10.41
   2  -1   1  396.47   10.26
   2  -1   1  430.17   10.39
   2  -1   1  418.27   10.45
  -2  -1  -1  452.02   10.46
   2  -1   1  400.76   10.34
   2  -1   2  789.39   18.97
  -2  -1  -2  826.85   18.83
  -2  -1  -2  696.17   18.98
   2  -1   2  829.95   18.87
   2  -1   2  781.86   18.76
   2  -1   2  717.12   18.87
  -2  -1  -2  791.24   18.92
  -2  -1  -2  771.37   18.99
  -2  -1  -3   23.96    1.16
   2  -1   3   24.25    0.83
  -2  -1  -3   24.58    1.10
   2  -1   3   25.71    1.16
   2  -1   3   28.33    1.13
   2  -1   3   27.98    1.14
  -2  -1  -3   31.59    1.26
  -2  -1  -4   20.92    1.01
   2  -1   4   17.97    1.00
   2  -1   4   20.41    1.17
  -2  -1  -4   23.73    1.26
  -2  -1  -4   17.62    1.09
  -2  -1  -4   17.13    1.08
   2  -1   5  243.98    3.83
  -2  -1  -5  244.59    3.73
  -2  -1  -6  137.08    3.10
  -2  -1  -6  147.60    3.28
   2  -1   7    6.20    1.14
  -2  -1  -8    4.18    1.67
   2  -1   8    3.54    1.27
   2  -1   9    4.53    1.49
  -2   0  10    0.13    1.49
   2   0  -9   -0.42    0.86
   2   0  -9    0.38    1.64
  -2   0   9   -0.26    1.28
   2   0  -8   41.95    2.44
   2   0  -8   45.24    1.70
  -2   0   8   42.64    2.09
  -2   0   7   94.76    2.85
   2   0  -7   90.49    2.70
   2   0  -7   85.54    3.36
  -2   0   6  141.43    2.86
   2   0  -6  132.67    2.58
   2   0  -6  138.04    2.38
  -2   0   6  128.29    3.08
   2   0  -5  342.42    4.65
   2   0  -5  297.37    3.71
  -2   0   5  316.64    4.07
  -2   0   5  279.92    4.37
  -2   0   5  349.86    4.93
   2   0  -5  295.81    3.72
   2   0  -4    0.41    0.62
  -2   0   4   -0.09    0.45
   2   0  -4    1.71    0.53
  -2   0   4    0.15    0.58
   2   0  -4    0.36    0.55
   2   0  -3  122.03    1.99
   2   0  -3  116.45    1.92
   2   0  -3  107.44    1.68
   2   0  -3  115.22    1.37
  -2   0   3  124.12    2.16
   2   0  -3  108.16    2.13
  -2   0   2  535.85   13.06
  -2   0   2  541.42   12.82
  -2   0   2  546.19   13.07
  -2   0   2  555.17   13.14
   2   0  -2  526.89   13.01
   2   0  -2  535.37   13.05
  -2   0   2  543.27   13.02
  -2   0   1 1010.60    4.07
  -2   0   1 1097.27    3.20
   2   0  -1 1129.16    4.36
   2   0  -1 1145.19    4.11
   2   0  -1  964.40    4.27
  -2   0   1 1021.16    4.11
   2   0  -1 1245.99    4.38
   2   0   0    1.36    0.27
   2   0   0    1.64    0.32
  -2   0   0    0.01    0.04
  -2   0   0    1.61    0.29
   2   0   0    1.48    0.30
  -2   0   0    1.19    0.27
   2   0   0    1.42    0.29
  -2   0   0    1.46    0.28
   2   0   0    1.43    0.23
  -2   0  -1   94.09    1.75
  -2   0  -1  115.85    1.75
   2   0   1   99.34    1.60
  -2   0  -1  101.03    1.68
   2   0   1  104.95    1.69
  -2   0  -1  113.38    1.28
  -2   0  -1  116.22    1.75
   2   0   1  111.57    1.77
   2   0   1  106.02    1.65
   2   0   2  278.15    6.85
  -2   0  -2  285.58    6.81
  -2   0  -2  286.75    6.84
  -2   0  -2  241.26    6.74
  -2   0  -2  246.05    6.87
   2   0   2  283.89    6.80
   2   0   2  253.57    6.77
  -2   0  -2  278.20    6.56
   2   0   2  251.29    6.61
  -2   0  -3  508.17   13.82
   2   0   3  590.89   13.94
   2   0   3  600.79   13.86
   2   0   3  540.14   13.87
  -2   0  -3  532.66   14.03
  -2   0  -3  559.99   13.82
  -2   0  -3  585.57   13.93
   2   0   4    1.99    0.76
  -2   0  -4    1.75    0.82
  -2   0  -4    1.48    0.71
  -2   0  -4    1.41    0.64
   2   0   4    1.54    0.78
   2   0   4    1.46    0.25
   2   0   4    1.13    0.59
  -2   0  -5  162.71    4.91
  -2   0  -5  160.62    4.81
  -2   0  -6    1.42    1.08
  -2   0  -7    2.95    1.36
   2   0   7    3.54    1.13
  -2   0  -8   10.98    1.93
   2   0   8   13.37    1.62
   2   0   9   32.57    2.24
  -2   1  10    0.78    1.51
   2   1  -9   54.92    1.80
  -2   1   9   48.49    2.57
   2   1  -9   52.97    2.75
   2   1  -9   50.48    2.91
   2   1  -8   89.16    2.58
   2   1  -8   82.01    3.54
   2   1  -7   14.91    1.54
  -2   1   7   14.84    1.35
   2   1  -6   27.21    1.40
   2   1  -6   22.33    1.48
   2   1  -6   22.38    0.86
  -2   1   6   25.43    1.35
   2   1  -5  396.40    8.28
   2   1  -5  419.70    9.08
   2   1  -5  428.68    8.49
  -2   1   5  396.62    8.95
   2   1  -4  699.47    4.47
  -2   1   4  719.18    5.10
   2   1  -4  593.83    4.78
  -2   1   4  590.51    3.55
  -2   1   3   10.61    0.59
  -2   1   3   10.23    0.63
   2   1  -3   10.53    0.62
   2   1  -3   10.12    0.69
  -2   1   3   10.49    0.74
  -2   1   2  375.39    8.66
   2   1  -2  325.87    8.57
   2   1  -2  333.14    8.52
   2   1  -2  341.38    8.61
   2   1  -2  376.02    8.51
   2   1  -2  368.26    8.49
  -2   1   2  299.23    8.47
  -2   1   2  336.63    8.37
  -2   1   2  322.71    8.53
  -2   1   2  342.49    8.41
   2   1  -1  213.22    5.66
   2   1  -1  211.99    5.71
  -2   1   1  233.26    5.56
  -2   1   1  220.61    5.64
   2   1  -1  223.81    5.62
  -2   1   1  210.14    5.65
  -2   1   1  245.18    5.79
  -2   1   1  222.62    5.68
   2   1  -1  228.89    5.47
   2   1   0  290.52    7.58
  -2   1   0  284.26    7.55
   2   1   0  291.00    7.44
  -2   1   0  323.02    7.68
   2   1   0  318.46    7.58
  -2   1   0  306.45    7.55
   2   1   0  329.44    7.54
  -2   1   0  325.04    7.57
  -2   1   0  300.52    7.59
   2   1   0  295.46    7.47
  -2   1  -1  337.45    9.84
   2   1   1  440.72    9.90
  -2   1  -1  399.81    9.77
  -2   1  -1  429.96    9.91
   2   1   1  413.67    9.86
  -2   1  -1  384.41    9.77
   2   1   1  393.65    9.86
  -2   1  -1  381.75    9.80
   2   1   1  405.36    9.69
   2   1   2  819.74    4.81
  -2   1  -2  755.21    4.76
  -2   1  -2  725.65    3.96
   2   1   2  787.41    4.52
  -2   1  -2  825.92    4.78
  -2   1  -2  759.07    3.99
   2   1   3   34.40    1.47
   2   1   3   32.15    1.39
  -2   1  -3   27.88    1.41
   2   1   3   34.30    1.39
  -2   1  -3   33.96    1.43
  -2   1  -3   35.69    1.29
  -2   1  -3   29.95    1.25
   2   1   4   21.40    1.21
   2   1   4   19.37    1.19
  -2   1  -4   17.46    1.22
  -2   1  -4   18.07    1.02
   2   1   4   15.57    0.68
   2   1   4   15.24    1.05
  -2   1  -4   14.46    0.91
   2   1   5  216.13    5.98
  -2   1  -5  231.41    5.81
   2   1   6  152.28    4.65
  -2   1  -6  150.06    4.78
  -2   1  -7    5.61    1.55
   2   1   7    6.47    1.34
  -2   1  -8    3.72    1.70
   2   1   8    3.93    1.49
   2   2  -9    1.94    1.67
   2   2  -9    1.53    1.55
   2   2  -8   41.29    1.37
   2   2  -8   47.85    2.50
   2   2  -8   43.42    2.45
  -2   2   8   41.38    2.26
   2   2  -7   59.30    2.70
   2   2  -7   62.11    2.66
   2   2  -7   64.22    1.75
  -2   2   7   59.64    2.60
  -2   2   6   84.46    3.06
   2   2  -6   85.24    3.16
   2   2  -6   97.03    2.55
  -2   2   6   80.48    2.58
   2   2  -6  103.09    2.98
   2   2  -6   86.56    3.14
  -2   2   5  295.28    3.76
   2   2  -5  285.76    3.06
   2   2  -5  240.61    3.51
  -2   2   5  240.43    2.50
   2   2  -4   40.99    1.73
  -2   2   4   42.37    1.67
   2   2  -4   44.10    1.74
  -2   2   4   41.49    1.45
   2   2  -3   66.62    2.17
   2   2  -3   73.84    2.37
  -2   2   3   66.01    2.04
   2   2  -3   69.76    2.04
  -2   2   3   77.39    2.18
   2   2  -3   68.04    2.08
  -2   2   3   67.22    2.22
  -2   2   3   70.88    2.29
  -2   2   2  679.44   16.01
   2   2  -2  613.60   16.11
   2   2  -2  590.91   15.92
   2   2  -2  699.34   15.89
   2   2  -2  672.38   15.98
   2   2  -2  737.19   15.94
  -2   2   2  568.21   15.97
   2   2  -1  800.38   22.02
  -2   2   1  827.23   22.04
  -2   2   1  919.14   22.12
  -2   2   1  989.12   21.83
   2   2  -1  865.36   22.18
   2   2  -1  967.66   22.00
  -2   2   1  869.32   22.07
  -2   2   1  948.47   22.06
  -2   2   0   76.94    2.35
  -2   2   0   79.34    2.33
   2   2   0   81.13    2.36
   2   2   0   80.37    2.30
   2   2   0   87.71    2.31
  -2   2   0   78.14    2.22
  -2   2   0   75.74    2.26
   2   2   0   80.09    2.27
  -2   2  -1   57.62    1.93
   2   2   1   69.96    1.99
  -2   2  -1   58.83    1.78
   2   2   1   61.07    1.87
  -2   2  -1   65.85    1.83
   2   2   1   66.97    2.00
  -2   2  -1   64.80    1.89
  -2   2  -1   70.91    2.08
  -2   2  -1   62.14    1.62
   2   2   1   77.70    2.08
  -2   2  -2  313.60    8.47
  -2   2  -2  320.12    8.21
   2   2   2  354.54    8.46
  -2   2  -2  351.04    8.51
  -2   2  -2  324.24    8.22
   2   2   2  311.79    8.28
  -2   2  -2  317.70    8.25
   2   2   2  340.73    8.53
   2   2   3  439.46    3.98
   2   2   3  422.50    4.24
  -2   2  -4    6.98    0.73
  -2   2  -4    5.70    0.66
  -2   2  -4    5.68    1.04
   2   2   5  133.94    4.12
  -2   2  -5  116.80    3.67
  -2   2  -5  117.08    4.03
  -2   2  -5  128.26    4.11
  -2   2  -6    5.47    1.30
   2   2   6    4.69    1.20
  -2   2  -7    8.21    1.63
   2   2   7    8.64    1.45
  -2   2  -8   14.54    1.99
   2   2   8   13.66    1.75
  -2   3   9   30.00    2.21
   2   3  -9   29.78    2.45
   2   3  -9   31.33    2.35
  -2   3   8   54.11    2.64
   2   3  -8   55.01    2.85
   2   3  -8   56.57    2.80
  -2   3   7   32.62    1.40
   2   3  -7   33.36    2.06
   2   3  -7   33.44    2.08
  -2   3   7   34.25    1.95
   2   3  -6   33.36    1.89
   2   3  -6   34.89    1.87
  -2   3   6   31.38    1.74
  -2   3   6   33.24    1.37
   2   3  -5  266.90    2.97
  -2   3   5    0.05    1.14
   2   3  -5  222.53    3.47
   2   3  -5   -0.02    1.14
  -2   3   5  268.17    3.71
  -2   3   5  215.47    2.64
   2   3  -4  452.64    3.87
  -2   3   4  500.83    5.53
   2   3  -4  498.01    4.68
   2   3  -4  453.81    5.25
  -2   3   4  429.48    4.57
  -2   3   3   87.71    2.83
  -2   3   3  103.49    3.02
   2   3  -3   88.93    2.66
   2   3  -3   99.41    3.09
   2   3  -3   96.32    2.82
  -2   3   3  103.54    2.95
  -2   3   3   93.71    2.73
  -2   3   2  121.79    2.14
   2   3  -2  112.69    2.23
   2   3  -2  102.99    1.56
  -2   3   2  100.64    1.84
   2   3  -2   93.29    1.58
   2   3  -2  112.00    1.70
  -2   3   1  107.81    2.96
  -2   3   1   98.15    2.76
   2   3  -1  101.51    2.97
   2   3  -1   95.56    2.72
  -2   3   1   92.93    2.80
  -2   3   1   93.99    2.73
   2   3  -1  104.98    2.71
   2   3  -1   97.37    2.84
   2   3   0  167.57    4.57
  -2   3   0  165.26    4.25
   2   3   0  165.59    4.39
  -2   3   0  166.01    4.33
  -2   3   0  177.52    4.62
   2   3   0  163.32    4.44
  -2   3   0  174.70    4.50
  -2   3   0  183.21    4.66
  -2   3  -1  167.62    4.55
  -2   3  -1  158.17    4.46
   2   3   1  158.51    4.41
  -2   3  -1  169.57    4.43
  -2   3  -1  163.35    4.22
  -2   3  -1  159.59    4.15
   2   3   1  173.23    4.52
   2   3   1  180.39    4.48
  -2   3  -1  180.92    4.61
   2   3   2  544.23   13.81
  -2   3  -2  510.22   13.86
   2   3   2  595.40   13.95
   2   3   2  559.03   13.99
  -2   3  -2  560.52   13.77
  -2   3  -2  603.57   14.03
  -2   3  -3  120.71    1.92
  -2   3  -3  104.38    1.81
   2   3   3  128.00    2.65
  -2   3  -3  107.43    2.46
  -2   3  -3  132.45    2.68
   2   3   3  147.05    2.89
  -2   3  -4   41.61    1.23
  -2   3  -4   37.45    1.22
  -2   3  -4   38.63    1.19
  -2   3  -5  107.30    3.65
  -2   3  -5   95.64    3.54
   2   3   5   99.84    3.58
   2   3   6  113.15    3.88
   2   3   6  108.86    2.94
  -2   3  -7    6.05    1.61
   2   3   7    5.75    1.45
   2   4  -9    3.62    1.84
  -2   4   9    4.61    1.70
   2   4  -9    6.00    1.78
  -2   4   8   22.02    1.89
   2   4  -8   21.65    1.93
   2   4  -8   22.93    2.13
  -2   4   8   23.33    1.26
   2   4  -7   35.62    2.17
  -2   4   7   33.83    2.06
   2   4  -7   40.06    1.62
   2   4  -7   36.41    2.21
  -2   4   7   33.99    1.53
   2   4  -6   42.13    2.12
  -2   4   6   37.62    2.04
   2   4  -6   40.29    2.10
  -2   4   6   38.01    1.60
   2   4  -6   39.43    1.59
   2   4  -5  100.91    2.70
  -2   4   5   92.32    3.24
   2   4  -5   98.41    3.30
   2   4  -5   99.90    3.44
   2   4  -5   88.93    2.82
  -2   4   5   92.98    2.94
   2   4  -4  109.84    2.94
   2   4  -4  103.02    3.26
   2   4  -4  104.00    2.77
  -2   4   4  103.29    3.31
   2   4  -4   96.10    2.89
   2   4  -4  116.52    3.58
  -2   4   4  125.48    3.46
  -2   4   4  100.17    3.09
  -2   4   3  122.07    3.75
   2   4  -3  130.07    3.64
   2   4  -3  123.86    3.31
  -2   4   3  150.05    3.97
   2   4  -3  132.21    3.98
  -2   4   3  123.37    3.63
   2   4  -3  122.26    3.40
   2   4  -3  135.23    3.44
  -2   4   3  138.59    3.91
  -2   4   2  374.47    3.77
   2   4  -2  365.69    4.11
   2   4  -2  317.70    2.56
  -2   4   2  327.09    3.24
   2   4  -1  407.56   10.44
   2   4  -1  440.99   10.21
  -2   4   1  456.77   10.61
  -2   4   1  401.27   10.24
  -2   4   1  423.25   10.26
   2   4  -1  389.85   10.21
   2   4  -1  412.62   10.53
  -2   4   1  387.21   10.35
  -2   4   1  409.39   10.27
  -2   4   0  101.09    2.25
  -2   4   0   87.51    1.96
   2   4   0   95.21    2.15
   2   4   0   98.03    1.90
  -2   4   0  104.43    2.28
   2   4   0   93.31    1.94
  -2   4   0   89.61    1.72
  -2   4   0   97.52    1.86
  -2   4  -1  201.58    5.31
  -2   4  -1  180.30    5.19
   2   4   1  181.06    5.12
   2   4   1  199.46    5.14
  -2   4  -1  207.21    5.36
   2   4   1  200.83    5.27
  -2   4  -1  182.06    5.10
  -2   4  -2  182.19    5.05
  -2   4  -2  157.20    4.90
  -2   4  -2  179.29    4.50
   2   4   2  206.88    5.04
   2   4   2  177.80    5.02
  -2   4  -2  207.51    5.18
  -2   4  -2  182.98    4.87
   2   4   2  163.46    4.87
  -2   4  -3  139.94    4.09
  -2   4  -3  130.72    3.53
  -2   4  -3  145.84    3.88
  -2   4  -3  145.68    4.17
  -2   4  -3  141.65    3.57
  -2   4  -4   12.62    0.68
  -2   4  -4   12.40    1.20
  -2   4  -4   14.10    0.70
   2   4   4   13.07    1.18
  -2   4  -4   14.62    0.91
  -2   4  -5   77.94    2.37
  -2   4  -5   80.53    2.30
   2   4   5   73.41    2.94
  -2   4  -5   69.37    2.88
  -2   4  -6    5.25    0.81
  -2   4  -6    5.28    1.38
  -2   4  -6    4.81    1.44
   2   4   6    3.86    1.34
  -2   4  -7   14.40    2.00
  -2   4  -7   17.42    2.06
   2   4   7   13.74    1.81
  -2   5   8   30.13    2.26
   2   5  -8   28.02    2.31
   2   5  -8   25.52    1.35
  -2   5   8   27.99    1.50
  -2   5   7   38.25    2.23
  -2   5   7   36.35    1.64
   2   5  -7   35.32    2.25
   2   5  -6   58.17    1.67
  -2   5   6   50.76    1.94
   2   5  -6   51.93    2.59
  -2   5   6   50.96    2.39
   2   5  -6   53.29    1.76
  -2   5   5   95.89    3.38
   2   5  -5   95.40    2.76
   2   5  -5  113.34    2.80
   2   5  -5  112.33    2.85
  -2   5   5   93.53    3.05
   2   5  -5  101.57    3.67
   2   5  -5  102.51    3.16
   2   5  -5   84.47    2.71
  -2   5   4  117.51    3.78
   2   5  -4  129.43    3.28
   2   5  -4  122.90    3.48
   2   5  -4  134.71    4.15
   2   5  -4  112.99    3.21
   2   5  -4  115.16    3.21
  -2   5   4  122.52    3.62
  -2   5   4  137.34    3.86
  -2   5   3   73.28    2.50
   2   5  -3   72.53    2.30
   2   5  -3   72.86    2.14
  -2   5   3   85.81    2.74
  -2   5   3   83.90    2.57
   2   5  -3   75.91    2.76
   2   5  -3   71.22    2.05
   2   5  -3   64.50    2.03
   2   5  -3   73.43    2.10
  -2   5   3   66.33    2.32
   2   5  -2   82.43    1.65
  -2   5   2  104.76    2.51
   2   5  -2   86.21    2.31
   2   5  -2   89.49    1.59
   2   5  -2   93.03    1.51
  -2   5   2   84.55    1.97
   2   5  -2    0.01    0.93
  -2   5   2    0.02    0.93
   2   5  -2   85.45    1.62
   2   5  -1   -0.01    0.28
  -2   5   1   64.16    1.86
  -2   5   1   52.00    1.29
   2   5  -1   55.46    1.62
  -2   5   1    0.01    0.28
   2   5   0  109.78    2.45
   2   5   0  116.06    2.29
  -2   5   0  109.04    2.31
  -2   5   0  105.77    1.76
  -2   5   0  110.34    2.07
  -2   5  -1   88.38    2.31
  -2   5  -1   84.02    2.24
   2   5   1   87.28    1.98
  -2   5  -1   71.60    1.37
   2   5   1   81.50    2.04
  -2   5  -1   68.29    1.84
  -2   5  -2  179.36    4.70
  -2   5  -2  160.13    4.53
  -2   5  -2  189.91    4.73
  -2   5  -2  148.69    3.79
   2   5   2  190.61    4.57
   2   5   2  161.96    4.51
  -2   5  -2  157.19    4.15
   2   5   2  122.16    4.28
  -2   5  -2  152.15    4.34
  -2   5  -3   97.08    3.22
   2   5   3   96.83    3.23
  -2   5  -3   99.40    2.90
  -2   5  -3  100.46    3.10
  -2   5  -4   70.13    2.69
   2   5   4   71.81    2.83
  -2   5  -4   65.52    2.28
  -2   5  -4   72.54    2.38
   2   5   5   36.67    2.07
  -2   5  -5   37.50    1.63
  -2   5  -6   49.00    2.59
  -2   5  -6   45.41    2.50
  -2   5  -6   55.35    1.90
   2   5   6   54.87    2.69
  -2   5  -7    4.39    1.65
   2   5   7    4.76    1.71
  -2   5  -7    4.39    1.72
  -2   6   8    6.67    1.67
   2   6  -8    6.61    1.99
  -2   6   8    7.24    1.17
   2   6  -8    8.09    1.96
  -2   6   7   16.88    1.81
  -2   6   7   17.67    1.32
   2   6  -7   14.72    0.70
   2   6  -7   19.16    2.02
   2   6  -7   18.75    1.91
   2   6  -6   17.54    1.63
   2   6  -6   22.13    1.13
  -2   6   6   18.66    1.72
   2   6  -6   22.00    1.05
   2   6  -6   18.45    1.99
   2   6  -6   16.77    0.68
  -2   6   6   17.69    1.29
   2   6  -5   19.24    1.45
   2   6  -5   22.99    0.79
   2   6  -5   20.16    1.30
  -2   6   5   21.48    1.58
   2   6  -5   21.93    1.82
   2   6  -5   18.53    0.72
  -2   6   5   19.75    1.33
   2   6  -5   20.93    1.03
   2   6  -4   82.67    2.76
  -2   6   4   83.48    3.00
   2   6  -4   89.03    2.32
   2   6  -4   88.17    2.67
   2   6  -4   79.73    2.24
  -2   6   4   79.75    2.77
  -2   6   4   93.14    3.00
   2   6  -4   89.96    3.32
   2   6  -4   80.27    2.45
   2   6  -3  111.67    3.10
   2   6  -3  105.65    3.62
   2   6  -3  103.84    2.76
   2   6  -3   89.46    2.73
   2   6  -3   95.70    3.38
  -2   6   3   89.60    3.08
  -2   6   3  106.10    3.31
   2   6  -3  108.88    2.94
   2   6  -3  108.45    2.82
  -2   6   3  116.22    3.42
   2   6  -2   84.60    1.82
  -2   6   2    0.56    1.27
  -2   6   2   94.55    2.24
   2   6  -2   87.44    2.58
   2   6  -2   87.46    1.87
   2   6  -2   83.52    1.79
   2   6  -2    9.11    1.48
   2   6  -2   92.92    1.78
  -2   6   1  124.82    2.33
  -2   6   1  143.99    2.27
   2   6  -1    0.02    1.07
   2   6  -1  126.41    2.72
   2   6  -1  141.31    2.16
   2   6  -1  142.03    2.29
  -2   6   1  124.64    2.26
  -2   6   1   -0.03    1.07
  -2   6   0  144.34    2.58
   2   6   0  124.96    3.13
   2   6   0  143.97    2.83
  -2   6   0  141.58    2.53
  -2   6   0  122.47    2.53
  -2   6   0  121.99    2.55
  -2   6   0  131.38    3.07
  -2   6  -1  114.43    3.45
   2   6   1  118.04    3.42
  -2   6  -1  110.08    2.85
  -2   6  -1  105.39    3.12
  -2   6  -1  108.01    3.21
  -2   6  -2   48.68    2.10
  -2   6  -2   48.90    1.75
   2   6   2   48.60    2.00
   2   6   2   46.90    2.04
  -2   6  -2   48.03    1.92
   2   6   3   34.74    1.84
   2   6   3   35.04    1.85
  -2   6  -3   33.92    1.49
  -2   6  -3   33.05    1.75
  -2   6  -3   36.80    1.67
   2   6   4   13.45    1.42
  -2   6  -4   12.47    1.06
  -2   6  -4   16.75    1.28
  -2   6  -5   36.34    2.13
   2   6   5   35.49    2.12
  -2   6  -5   36.08    1.72
  -2   6  -5   37.06    1.69
  -2   6  -5   33.37    2.08
  -2   6  -6    8.35    1.62
   2   6   6    6.84    1.59
  -2   6  -6    9.25    1.16
  -2   6  -6    8.04    1.68
  -2   6  -6    8.13    1.19
  -2   6  -7    9.57    1.95
   2   7  -8    7.05    1.84
  -2   7   8    5.81    1.28
   2   7  -7   21.63    2.14
  -2   7   7   20.48    1.60
  -2   7   7   23.10    2.15
   2   7  -7   22.41    2.56
   2   7  -7   20.89    1.33
   2   7  -6   48.53    2.41
  -2   7   6   47.90    2.56
   2   7  -6   45.93    1.77
  -2   7   6   46.69    2.16
   2   7  -6   53.68    2.87
   2   7  -5   19.20    1.54
  -2   7   5   19.29    1.72
   2   7  -5   19.45    1.12
   2   7  -5   19.45    1.93
  -2   7   5   18.77    1.45
   2   7  -4   18.62    1.23
   2   7  -4   16.93    1.03
   2   7  -4   15.74    0.54
   2   7  -4   18.92    1.83
   2   7  -4   17.32    1.58
  -2   7   4   17.38    1.28
   2   7  -4   20.67    1.17
   2   7  -3   28.32    1.30
   2   7  -3   23.35    0.94
   2   7  -3   24.64    1.67
   2   7  -3   27.58    1.84
   2   7  -3   28.95    1.23
   2   7  -3   26.36    0.95
  -2   7   3   23.45    1.45
  -2   7   3   31.45    1.65
   2   7  -2   63.33    1.90
  -2   7   2   58.55    2.34
   2   7  -2   59.39    1.92
   2   7  -2   56.60    2.45
  -2   7   2   63.01    2.29
  -2   7   1   29.38    1.35
  -2   7   1   32.52    1.32
   2   7  -1   29.06    1.27
   2   7  -1   32.22    1.28
  -2   7   1   27.55    1.32
   2   7  -1   27.23    1.60
  -2   7   1   30.16    1.59
  -2   7   0   54.17    1.79
   2   7   0   55.41    2.24
  -2   7   0   59.99    1.76
   2   7   0   55.21    1.98
   2   7   0   59.85    1.97
  -2   7   0   52.82    1.78
  -2   7   0   54.94    1.74
   2   7   0   52.50    2.32
  -2   7   0   55.73    2.25
   2   7   1   23.61    1.57
  -2   7  -1   21.10    1.22
  -2   7  -1   20.43    0.73
  -2   7  -1   26.16    1.29
  -2   7  -1   22.65    1.43
  -2   7  -2   28.42    1.72
  -2   7  -2   27.48    1.37
   2   7   2   27.79    1.73
  -2   7  -2   27.70    1.60
  -2   7  -2   25.75    1.40
  -2   7  -3   27.84    1.77
  -2   7  -3   28.05    1.44
   2   7   3   33.91    1.91
  -2   7  -3   28.34    1.62
   2   7   3   29.21    1.86
  -2   7  -3   32.66    1.79
  -2   7  -4   65.66    2.92
  -2   7  -4   73.01    2.54
   2   7   4   71.52    3.01
  -2   7  -4   68.42    2.82
  -2   7  -4   77.09    2.76
   2   7   5    4.63    1.57
  -2   7  -5    5.92    1.34
  -2   7  -5    4.68    1.60
  -2   7  -5    4.03    1.07
  -2   7  -6   10.13    1.78
   2   7   6   10.48    1.90
  -2   7  -6   12.28    1.41
  -2   7  -6    9.59    1.40
  -2   7  -7    5.04    1.93
  -2   8   8    3.66    1.45
   2   8  -7    5.29    1.80
   2   8  -7    2.85    1.71
  -2   8   7    4.83    1.39
   2   8  -6    3.40    1.51
   2   8  -6    4.39    0.95
  -2   8   6    2.32    1.33
   2   8  -5    7.45    1.32
   2   8  -5    6.51    0.91
  -2   8   5    7.01    1.35
   2   8  -5    7.69    1.63
   2   8  -4   37.95    1.77
   2   8  -4   35.07    1.55
  -2   8   4   32.58    1.88
  -2   8   4   37.61    2.05
   2   8  -4   33.84    2.12
   2   8  -4   41.00    1.73
   2   8  -3   61.25    2.04
   2   8  -3   57.41    1.61
   2   8  -3   49.56    2.44
   2   8  -3   58.74    2.72
  -2   8   3   55.66    2.41
   2   8  -3   50.26    1.53
   2   8  -3   65.01    2.01
  -2   8   3   51.76    2.35
  -2   8   3   69.06    2.51
   2   8  -2   12.58    1.46
  -2   8   2   12.42    1.15
   2   8  -2   12.29    0.77
   2   8  -2   10.49    1.44
   2   8  -2   10.92    0.70
  -2   8   2   12.38    1.33
   2   8  -2   13.65    0.86
  -2   8   1   25.65    1.24
   2   8  -1   22.35    1.21
   2   8  -1   22.47    1.57
   2   8  -1   23.52    1.15
  -2   8   1   20.75    1.19
   2   8  -1   22.15    1.66
  -2   8   1   21.98    1.26
  -2   8   1   20.87    1.50
   2   8   0   66.98    2.39
   2   8   0   70.47    2.29
  -2   8   0   59.08    2.02
  -2   8   0   64.05    2.07
  -2   8   0   66.68    1.96
  -2   8   0   63.07    2.44
   2   8   0   61.75    2.73
  -2   8   0   61.02    2.61
  -2   8  -1   69.09    2.06
   2   8   1   68.58    2.38
   2   8   1   61.33    2.52
  -2   8  -1   64.78    2.24
  -2   8  -1   62.52    2.42
  -2   8  -2    5.61    1.18
  -2   8  -2    4.97    1.29
   2   8   2    5.33    1.17
  -2   8  -2    4.52    1.09
   2   8   2    4.12    1.30
  -2   8  -3   13.17    1.47
   2   8   3   11.91    1.63
  -2   8  -3   13.03    1.31
  -2   8  -3   12.93    1.25
  -2   8  -4   12.68    1.64
  -2   8  -4   12.69    1.50
  -2   8  -4   11.98    1.34
  -2   8  -4   13.69    1.52
  -2   8  -5    8.31    1.31
  -2   8  -5    9.98    1.77
   2   8   5    9.17    1.84
  -2   8  -5    8.76    1.51
  -2   8  -5    9.35    1.65
  -2   8  -5   10.83    1.79
  -2   8  -6    4.39    1.68
  -2   8  -6    4.42    1.35
   2   8   6    3.83    1.27
  -2   8  -6    2.45    1.67
   2   9  -7    9.31    2.01
  -2   9   7    6.63    1.70
   2   9  -6   21.19    2.02
   2   9  -6   21.18    2.63
   2   9  -6   19.09    2.15
  -2   9   6   18.04    1.88
  -2   9   6   18.64    2.02
   2   9  -5    2.64    1.38
  -2   9   5    3.01    1.65
   2   9  -5    3.03    0.95
   2   9  -5    4.01    2.14
  -2   9   5    2.06    1.45
   2   9  -4    4.92    1.19
  -2   9   4    5.01    1.42
   2   9  -4    4.67    1.00
   2   9  -4    4.04    1.72
   2   9  -4    3.65    1.59
  -2   9   4    4.34    1.41
   2   9  -3   19.57    1.18
   2   9  -3   19.41    1.82
   2   9  -3   16.01    1.68
  -2   9   3   17.85    1.63
  -2   9   3   19.12    1.56
   2   9  -2   19.72    1.04
   2   9  -2   18.81    0.94
   2   9  -2   18.28    1.65
   2   9  -2   18.63    1.72
  -2   9   2   18.45    1.63
  -2   9   2   18.80    1.41
   2   9  -2   15.48    0.73
   2   9  -1    9.85    0.98
  -2   9   1    9.89    1.33
  -2   9   1   13.92    1.11
   2   9  -1   11.31    0.97
  -2   9   1    9.53    1.05
  -2   9   1    8.91    1.06
  -2   9   1    9.78    1.44
   2   9  -1   10.04    1.52
   2   9  -1   10.29    1.55
  -2   9   0   19.12    1.52
   2   9   0   20.89    1.44
  -2   9   0   20.02    0.88
  -2   9   0   22.59    1.18
  -2   9   0   21.38    0.99
  -2   9   0   18.50    1.00
   2   9   0   18.77    1.72
  -2   9   0   19.53    1.73
  -2   9  -1    3.01    1.24
   2   9   1    3.54    1.15
   2   9   1    2.45    1.37
  -2   9  -1    4.14    0.93
  -2   9  -1    4.36    1.34
  -2   9  -2    5.57    1.19
   2   9   2    7.59    1.38
  -2   9  -2    7.12    1.14
   2   9   2    7.24    1.55
  -2   9  -3   12.01    1.66
   2   9   3   16.80    1.81
  -2   9  -3   14.74    1.62
  -2   9  -3   13.80    1.45
  -2   9  -3   13.44    1.65
   2   9   3   13.35    1.82
  -2   9  -4   22.77    1.96
   2   9   4   24.59    2.13
  -2   9  -4   24.32    2.08
  -2   9  -4   25.01    1.73
  -2   9  -4   26.97    2.16
  -2   9  -5    0.98    1.86
  -2   9  -5    0.54    1.58
  -2   9  -5   -0.68    1.27
  -2   9  -5    0.61    1.56
  -2   9  -5    0.50    1.61
   2   9   6    1.66    1.51
  -2  10   5    2.13    1.64
  -2  10   5    2.19    1.80
   2  10  -5    1.89    1.82
   2  10  -4    9.15    1.29
   2  10  -4    7.93    1.96
  -2  10   4    7.65    1.69
  -2  10   4   10.16    1.78
   2  10  -3   21.15    2.08
  -2  10   3   19.66    1.80
   2  10  -3   20.41    2.07
  -2  10   3   20.18    1.74
  -2  10   2    0.28    1.12
   2  10  -2    1.42    1.36
  -2  10   2    0.48    1.06
  -2  10   2    0.51    1.38
   2  10  -2    0.03    1.53
  -2  10   1    2.76    1.02
  -2  10   1    1.85    1.34
   2  10  -1    3.19    0.89
   2  10  -1    2.67    1.35
  -2  10   1    2.43    1.00
   2  10  -1    3.94    1.55
  -2  10   1    3.15    1.50
   2  10   0   10.69    1.27
  -2  10   0   11.68    1.68
  -2  10   0    9.17    0.75
   2  10   0   11.40    1.75
  -2  10   0   10.30    1.60
   2  10   1   27.91    1.80
  -2  10  -1   32.01    1.42
  -2  10  -1   28.96    1.90
   2  10   1   26.00    2.26
  -2  10  -1   26.66    2.06
  -2  10  -2    1.40    1.38
  -2  10  -2    1.04    1.52
   2  10   2    0.84    1.33
   2  10   2    1.85    1.61
  -2  10  -2    1.11    1.09
  -2  10  -3    4.71    1.68
   2  10   3    4.55    1.54
  -2  10  -3    4.66    1.49
  -2  10  -3    5.39    1.38
  -2  10  -3    4.20    1.79
  -2  10  -4    4.84    1.73
  -2  10  -4    5.15    1.74
   2  10   4    4.78    1.82
  -2  10  -4    5.18    1.87
  -2  10  -4    5.09    1.50
  -2  10  -4    5.08    1.75
  -2  10  -5    2.33    1.89
  -2  10  -5    3.10    2.10
  -2  11   4    1.87    1.57
   2  11  -4    0.75    1.91
  -2  11   3    6.57    1.56
   2  11  -3    4.40    1.82
   2  11  -2    6.78    1.76
  -2  11   2    5.56    1.32
  -2  11   2    6.76    1.35
  -2  11   1    3.10    1.71
   2  11   0    6.87    1.31
  -2  11   0    6.17    1.72
   2  11   1    1.76    1.37
  -2  11  -1    1.38    1.69
  -2  11  -2    2.75    1.67
   2  11   2    2.78    1.62
   2  11   3    2.30    1.59
  -2  11  -3    1.63    1.78
   2  12  -3    4.98    2.06
   3 -12  -2    6.01    1.76
   3 -12  -1    0.58    1.56
   3 -12   0    2.50    1.64
   3 -11  -5    7.91    1.98
   3 -11  -4   -0.21    1.69
  -3 -11   4    0.32    1.58
  -3 -11   3    2.31    1.57
   3 -11  -3    2.94    1.69
  -3 -11   2    0.87    1.75
   3 -11  -2   -0.13    1.51
  -3 -11   1    6.24    1.86
   3 -11  -1    8.48    1.69
  -3 -11   0   -0.37    1.79
   3 -11   0    1.29    1.51
   3 -11   1    4.50    1.62
   3 -10  -6    7.17    2.09
   3 -10  -5    0.64    1.84
  -3 -10   4    3.56    1.36
   3 -10  -4    2.15    1.66
   3 -10  -3    1.95    1.86
  -3 -10   3    2.86    1.45
   3 -10  -3    1.80    1.60
   3 -10  -2   30.58    2.61
  -3 -10   2   31.65    2.25
  -3 -10   2   31.96    1.52
   3 -10  -2   32.63    2.22
   3 -10  -1    1.30    1.91
  -3 -10   1    0.61    1.47
   3 -10  -1    1.41    1.34
  -3 -10   0    6.85    1.65
   3 -10   0    7.36    1.56
  -3 -10   0    6.15    1.29
  -3 -10  -1    4.37    1.37
   3 -10   1    3.98    1.54
  -3 -10  -2   13.94    2.15
   3  -9  -6    6.47    1.82
   3  -9  -5   25.31    2.46
   3  -9  -5   21.18    2.24
  -3  -9   4    1.41    1.12
   3  -9  -4    0.23    1.70
   3  -9  -4    0.61    1.54
   3  -9  -3   10.99    1.87
  -3  -9   3   11.02    0.93
  -3  -9   3   10.45    1.46
   3  -9  -3   11.10    1.59
   3  -9  -2    1.50    1.53
  -3  -9   2    0.99    1.28
   3  -9  -2    0.65    1.32
  -3  -9   2    2.07    0.98
  -3  -9   2    1.02    0.84
   3  -9  -1   11.20    1.89
  -3  -9   1   12.47    1.54
  -3  -9   1   16.31    1.14
   3  -9  -1   14.96    1.66
   3  -9  -1   18.15    1.22
   3  -9   0    0.88    0.71
  -3  -9   0    1.82    1.08
   3  -9   0    1.39    1.28
  -3  -9  -1   28.49    1.87
  -3  -9  -1   25.90    2.16
   3  -9   1   28.13    2.00
  -3  -9  -2    3.17    1.56
  -3  -9  -2    1.94    1.35
   3  -9   2    2.38    1.46
  -3  -9  -3    3.10    1.71
  -3  -9  -3    3.03    1.57
   3  -8  -7    0.81    1.76
   3  -8  -5    1.76    1.67
  -3  -8   4   15.88    1.32
  -3  -8   4   15.44    0.80
   3  -8  -4   14.13    1.70
   3  -8  -4   16.37    1.91
   3  -8  -3   14.42    1.82
   3  -8  -3   16.48    1.73
  -3  -8   3   16.71    0.97
  -3  -8   2   80.11    3.16
  -3  -8   2   84.44    2.75
   3  -8  -2   79.13    3.31
   3  -8  -1   10.38    1.67
  -3  -8   1   10.23    1.33
  -3  -8   1   10.72    1.03
   3  -8  -1   13.90    1.02
  -3  -8   0   28.68    1.54
   3  -8   0   31.52    1.24
   3  -8   0   33.41    1.40
   3  -8   1    6.46    0.45
  -3  -8  -1    4.85    1.35
  -3  -8  -1    6.30    1.19
  -3  -8  -2   46.15    2.58
  -3  -8  -2   49.79    2.43
  -3  -8  -3    1.09    1.49
  -3  -8  -3    1.45    0.50
  -3  -8  -4    9.41    1.83
  -3  -8  -4    8.90    1.73
   3  -7  -8    1.54    1.79
   3  -7  -7   16.10    2.06
   3  -7  -6    8.78    1.73
  -3  -7   6    7.45    0.54
   3  -7  -5   61.65    2.87
  -3  -7   5   63.90    1.92
  -3  -7   4   15.85    1.18
  -3  -7   4   15.78    0.90
   3  -7  -4   16.27    1.77
   3  -7  -3   49.88    2.52
  -3  -7   3   48.56    2.00
  -3  -7   3   47.56    1.68
  -3  -7   2    8.19    1.05
   3  -7  -2    7.61    1.39
   3  -7  -2    8.81    1.06
  -3  -7   2    8.68    0.85
   3  -7  -2    7.64    1.32
  -3  -7   2    9.28    0.98
  -3  -7   1   31.05    1.54
  -3  -7   1   36.23    1.59
   3  -7  -1   33.55    1.46
   3  -7  -1   30.11    1.88
   3  -7   0   -0.66    1.06
  -3  -7   0    0.60    1.00
  -3  -7   0    0.43    0.58
   3  -7   0    0.87    0.70
   3  -7   1  107.84    2.78
  -3  -7  -1   88.46    3.54
   3  -7   1  100.40    2.71
   3  -7   1   93.85    3.44
  -3  -7  -2    3.33    1.34
  -3  -7  -2    3.24    0.30
  -3  -7  -2    3.03    1.14
   3  -7   2    3.74    1.19
  -3  -7  -3   26.48    1.92
  -3  -7  -3   23.40    1.91
  -3  -7  -4   12.67    1.72
  -3  -7  -5   23.78    2.11
   3  -6  -9    1.29    1.70
   3  -6  -8   12.79    1.85
   3  -6  -8   12.92    1.16
   3  -6  -7    2.05    1.48
  -3  -6   7    2.40    0.68
   3  -6  -7    1.93    0.77
   3  -6  -6   42.16    2.32
   3  -6  -6   47.45    1.53
  -3  -6   5    2.21    0.57
   3  -6  -4   72.97    2.88
  -3  -6   4   67.70    2.13
  -3  -6   4   70.53    2.27
   3  -6  -3   51.87    2.33
  -3  -6   3   49.48    1.88
  -3  -6   3   49.81    1.73
   3  -6  -3   47.05    2.29
   3  -6  -2  160.44    3.95
  -3  -6   2  154.00    3.47
   3  -6  -2  190.17    3.54
  -3  -6   2  166.29    3.25
   3  -6  -2  166.79    3.37
  -3  -6   2  184.26    3.35
   3  -6  -1   15.57    1.31
   3  -6  -1   50.60    1.57
  -3  -6   1   60.66    1.68
   3  -6  -1   53.42    1.61
   3  -6  -1   -1.54    0.76
   3  -6   0  133.82    3.73
  -3  -6   0  148.90    4.09
   3  -6   0  140.91    3.86
   3  -6   0  127.98    3.82
   3  -6   1   19.52    1.38
   3  -6   1   20.01    0.91
   3  -6   1   20.66    0.85
  -3  -6  -2   87.82    3.19
   3  -6   2   94.62    2.48
  -3  -6  -2   98.65    2.55
   3  -6   2   89.59    3.27
  -3  -6  -3   17.22    0.97
  -3  -6  -3   13.31    1.36
  -3  -6  -4   18.61    1.09
  -3  -6  -4   21.91    1.83
  -3  -6  -5    2.00    0.92
  -3  -6  -5    2.10    1.47
  -3  -6  -6    4.13    0.94
  -3  -6  -6    9.75    1.78
   3  -5  -9   14.04    1.86
   3  -5  -9   13.83    1.42
   3  -5  -8   16.38    1.80
  -3  -5   8   15.26    1.19
   3  -5  -7   51.51    2.53
  -3  -5   7   47.46    1.89
   3  -5  -7   53.49    2.01
   3  -5  -6   22.05    1.67
   3  -5  -6   24.78    1.10
  -3  -5   5   82.81    2.72
   3  -5  -5  102.74    2.63
   3  -5  -4   63.41    2.47
  -3  -5   4   63.25    1.89
  -3  -5   4   57.51    1.96
   3  -5  -3  148.18    4.54
  -3  -5   3  143.73    4.04
  -3  -5   3  138.34    3.99
   3  -5  -2    2.25    0.89
  -3  -5   2    3.22    0.90
  -3  -5   2    2.59    0.68
   3  -5  -2    2.24    0.93
   3  -5  -1  156.84    2.78
  -3  -5   1  126.28    2.85
   3  -5  -1  139.62    2.58
   3  -5  -1  122.99    3.10
  -3  -5   1  135.72    2.77
  -3  -5   1  158.34    3.25
   3  -5   0   11.60    0.75
  -3  -5   0    8.64    0.84
  -3  -5   0   11.32    1.07
   3  -5   0   10.53    0.80
   3  -5   0   10.17    0.73
  -3  -5   0   11.20    0.98
   3  -5   0   11.51    1.09
   3  -5   1  146.73    2.52
  -3  -5  -1  145.38    3.17
  -3  -5  -1  156.12    3.24
  -3  -5  -1  162.57    3.17
   3  -5   1  136.09    2.41
  -3  -5  -2   15.35    1.18
   3  -5   2   14.96    0.73
   3  -5   2   17.45    1.33
  -3  -5  -2   19.01    0.80
   3  -5   2   15.59    0.71
  -3  -5  -2   13.76    0.59
  -3  -5  -3  124.85    3.50
  -3  -5  -3  128.57    4.11
   3  -5   3  125.43    3.36
   3  -5   3  135.08    3.40
  -3  -5  -4   31.53    1.45
   3  -5   4   32.80    1.13
  -3  -5  -4   28.67    1.92
  -3  -5  -5   34.41    1.68
   3  -5   5   30.09    1.16
  -3  -5  -5   34.24    2.21
   3  -5   5   35.63    1.25
   3  -5   6    6.65    0.69
  -3  -5  -6    5.83    1.55
  -3  -5  -6    7.24    1.22
  -3  -5  -7   13.98    1.67
   3  -4 -10   14.07    1.72
   3  -4  -9    0.64    1.26
   3  -4  -9   -0.32    1.21
  -3  -4   9    0.31    1.04
   3  -4  -8   18.10    1.61
   3  -4  -8   19.57    1.45
   3  -4  -7    2.02    1.12
   3  -4  -7    1.85    0.88
  -3  -4   7    2.15    0.83
   3  -4  -6   95.26    3.13
   3  -4  -6   97.46    2.80
  -3  -4   5   62.85    2.17
   3  -4  -5   57.99    1.80
   3  -4  -4  204.25    6.05
   3  -4  -4  235.60    5.54
  -3  -4   4  195.63    5.72
   3  -4  -4  224.21    6.00
  -3  -4   4  228.21    5.91
  -3  -4   3  113.15    3.16
   3  -4  -3  135.59    3.56
  -3  -4   3  100.00    3.05
   3  -4  -3  111.45    3.55
  -3  -4   3  134.55    3.63
   3  -4  -3  109.95    3.28
  -3  -4   2  199.75    3.07
   3  -4  -2  199.25    3.86
  -3  -4   2  180.97    3.31
   3  -4  -2  224.55    3.62
   3  -4  -2  214.42    3.60
  -3  -4   1  176.71    2.66
  -3  -4   1  140.12    2.48
   3  -4  -1  150.56    2.97
  -3  -4   1  183.30    3.10
   3  -4  -1  165.10    2.68
  -3  -4   0  488.82    4.51
  -3  -4   0  436.29    4.42
  -3  -4   0  478.35    4.80
   3  -4   0  445.01    3.50
   3  -4   0  457.01    4.25
  -3  -4  -1   46.76    1.19
  -3  -4  -1   51.87    1.72
   3  -4   1   51.89    1.52
  -3  -4  -1   48.10    1.76
  -3  -4  -1   52.95    1.83
   3  -4   1   47.02    1.42
   3  -4   1   47.92    1.42
  -3  -4  -1   51.08    1.25
  -3  -4  -2   53.84    1.34
   3  -4   2    0.02    0.89
  -3  -4  -2   66.90    2.03
   3  -4   2   61.07    1.45
   3  -4   2   57.21    1.43
  -3  -4  -2   -0.12    0.92
  -3  -4  -2   67.00    1.51
   3  -4   2   57.01    1.41
  -3  -4  -3   51.83    1.73
  -3  -4  -3   45.75    1.98
   3  -4   3   43.04    1.51
   3  -4   3   52.09    1.61
  -3  -4  -3   43.40    1.62
  -3  -4  -4   80.96    2.74
  -3  -4  -4   80.71    3.11
   3  -4   4   89.47    2.57
   3  -4   4   84.32    2.52
  -3  -4  -5    3.46    0.81
   3  -4   5    1.96    0.67
  -3  -4  -5    2.27    1.33
   3  -4   5    1.96    0.78
  -3  -4  -6   35.82    2.03
   3  -4   6   36.95    1.55
  -3  -4  -6   36.68    2.34
  -3  -4  -7    6.04    1.56
   3  -4   7    7.22    0.98
  -3  -4  -8    5.18    1.68
  -3  -3  10    3.67    1.41
  -3  -3  10    3.95    1.36
   3  -3 -10    3.31    1.50
   3  -3  -9    7.63    1.32
  -3  -3   9    8.64    1.31
   3  -3  -9    8.21    1.49
  -3  -3   9    7.93    1.35
   3  -3  -8   33.86    1.75
  -3  -3   8   33.97    1.82
  -3  -3   8   34.25    1.77
   3  -3  -8   36.90    1.90
   3  -3  -7  144.17    4.30
  -3  -3   7  138.94    4.22
   3  -3  -7  154.37    4.37
  -3  -3   7  145.84    4.34
   3  -3  -6   36.99    1.73
  -3  -3   6   38.33    1.62
   3  -3  -6   41.76    1.65
  -3  -3   5   75.57    2.56
   3  -3  -5   89.70    2.55
   3  -3  -4  106.82    3.34
   3  -3  -4  103.42    3.11
   3  -3  -3  361.23    9.65
  -3  -3   3  353.25    9.47
  -3  -3   3  379.10    9.81
   3  -3  -3  391.25    9.57
  -3  -3   2    1.30    0.56
   3  -3  -2    0.56    0.58
   3  -3  -2    0.37    0.55
  -3  -3   2    0.69    0.44
  -3  -3   2    1.10    0.66
   3  -3  -2    1.05    0.48
   3  -3  -2    0.76    0.49
   3  -3  -1  375.56   10.62
   3  -3  -1  411.24   10.47
  -3  -3   1  436.12   10.43
  -3  -3   1  392.83   10.38
  -3  -3   1  470.73   10.68
   3  -3  -1  416.92   10.39
   3  -3  -1  411.33   10.35
  -3  -3   0   25.44    1.20
  -3  -3   0   25.35    1.13
   3  -3   0   26.37    1.08
   3  -3   0   23.26    1.00
   3  -3   0   25.47    1.03
  -3  -3   0   28.51    1.20
   3  -3   0   22.73    1.24
   3  -3   0   22.82    1.06
   3  -3   1  129.37    1.95
  -3  -3  -1  135.55    1.69
  -3  -3  -1  149.99    2.41
  -3  -3  -1  140.77    2.45
  -3  -3  -1   -0.18    0.88
   3  -3   1  128.44    1.99
   3  -3   1   -0.60    1.00
  -3  -3  -1  139.57    2.12
  -3  -3  -2   76.54    1.51
   3  -3   2   70.71    1.45
  -3  -3  -2   65.74    1.36
  -3  -3  -2   -0.02    0.66
  -3  -3  -2   85.84    2.01
   3  -3   2    0.02    0.66
  -3  -3  -3  344.69    3.86
   3  -3   3  366.71    3.83
  -3  -3  -3  402.62    4.16
  -3  -3  -3  386.71    4.09
  -3  -3  -4   74.56    2.62
  -3  -3  -4   70.50    2.84
   3  -3   4   76.19    2.43
   3  -3   4   78.59    2.44
  -3  -3  -4   93.81    2.77
  -3  -3  -4   86.32    2.68
  -3  -3  -5   18.71    1.64
   3  -3   5   22.95    1.27
   3  -3   5   23.12    1.31
  -3  -3  -6   17.51    1.60
  -3  -3  -6   17.76    1.81
  -3  -3  -7   29.71    2.13
   3  -3   7   32.81    1.68
  -3  -3  -8    2.42    1.78
  -3  -2  10   22.97    2.05
  -3  -2  10   26.27    2.05
   3  -2 -10   27.51    2.18
   3  -2  -9    1.08    0.93
  -3  -2   9    1.42    1.19
   3  -2  -9    2.11    1.34
  -3  -2   9    1.22    1.27
   3  -2  -9    0.40    1.77
   3  -2  -8   27.49    1.44
  -3  -2   8   26.31    1.76
  -3  -2   8   26.75    1.71
   3  -2  -8   29.33    1.81
   3  -2  -8   26.73    2.17
  -3  -2   7    7.11    0.52
   3  -2  -7    7.22    0.87
   3  -2  -7    5.59    1.48
   3  -2  -6   99.26    2.92
   3  -2  -6  103.33    3.10
  -3  -2   5  155.49    4.30
   3  -2  -5  136.93    3.91
  -3  -2   5  132.36    3.99
  -3  -2   5  134.33    4.03
   3  -2  -5  150.73    3.91
  -3  -2   4  478.45   11.73
   3  -2  -4  512.69   11.86
   3  -2  -4  458.17   11.49
  -3  -2   4  424.89   11.56
  -3  -2   3  227.27    5.95
   3  -2  -3  238.02    6.04
   3  -2  -3  219.14    5.89
   3  -2  -3  229.44    5.79
  -3  -2   3  238.76    6.07
   3  -2  -3  232.40    5.89
   3  -2  -2   65.35    1.95
  -3  -2   2   79.20    2.35
  -3  -2   2   83.69    2.26
   3  -2  -2   69.08    2.14
  -3  -2   2   65.51    2.14
   3  -2  -2   72.75    2.20
  -3  -2   2   64.10    2.09
   3  -2  -1  352.82    3.13
  -3  -2   1  393.27    3.72
  -3  -2   1  376.61    3.32
   3  -2  -1  321.47    3.64
   3  -2  -1  340.38    3.30
   3  -2  -1  348.58    3.06
   3  -2  -1  342.32    3.12
   3  -2   0  755.63   19.51
  -3  -2   0  835.45   19.65
  -3  -2   0  770.86   19.58
  -3  -2   0  802.78   19.57
   3  -2   0  828.66   19.45
  -3  -2   0  781.43   19.32
   3  -2   0  862.61   19.48
   3  -2   0  747.32   19.67
   3  -2   0  821.70   19.51
  -3  -2  -1   89.06    2.59
   3  -2   1   83.53    2.40
   3  -2   1   87.97    2.53
  -3  -2  -1   89.53    2.64
   3  -2   1   82.08    2.42
   3  -2   1   76.51    2.57
  -3  -2  -1   86.90    2.39
   3  -2   1   83.60    2.45
   3  -2   2   32.54    1.21
   3  -2   2   32.02    1.28
   3  -2   2   33.21    1.07
   3  -2   3   17.32    0.85
  -3  -2  -3   19.97    0.98
  -3  -2  -3   20.09    1.30
   3  -2   3   20.68    1.06
  -3  -2  -4  138.82    4.62
   3  -2   4  180.90    4.54
   3  -2   4  144.32    4.39
  -3  -2  -4  179.67    4.49
  -3  -2  -5    0.56    0.89
  -3  -2  -5    0.52    1.02
   3  -2   5    0.58    0.74
   3  -2   6   93.90    3.05
  -3  -2  -6   84.46    3.39
  -3  -2  -6   90.50    3.32
  -3  -2  -7   11.83    1.64
   3  -2   7   10.08    1.30
  -3  -2  -8    4.88    1.80
   3  -2   8    5.72    1.39
  -3  -1  10    2.48    1.51
   3  -1 -10    4.21    1.61
  -3  -1  10    1.97    1.43
   3  -1  -9    1.34    0.78
   3  -1  -9    1.44    1.67
   3  -1  -9    1.01    1.29
  -3  -1   9    1.77    1.28
  -3  -1   9    1.71    1.22
  -3  -1   8   74.58    2.26
   3  -1  -8   67.39    2.22
  -3  -1   8   65.58    2.73
  -3  -1   8   67.19    2.69
   3  -1  -8   72.99    2.84
   3  -1  -8   66.76    3.21
  -3  -1   7  205.36    5.36
   3  -1  -7  192.78    5.40
   3  -1  -7  189.14    6.30
  -3  -1   6   96.20    2.62
   3  -1  -6  106.37    2.81
  -3  -1   6   98.79    3.13
  -3  -1   6   98.95    3.17
   3  -1  -6  108.11    2.81
  -3  -1   5   23.50    1.36
   3  -1  -5   25.87    1.36
   3  -1  -5   20.25    0.92
   3  -1  -5   22.05    1.03
  -3  -1   5   20.12    1.20
  -3  -1   5   20.79    1.25
   3  -1  -5   20.13    1.14
  -3  -1   4  106.10    2.95
  -3  -1   4   82.38    2.22
   3  -1  -4  115.58    3.01
  -3  -1   4   93.17    2.79
   3  -1  -4  121.53    3.07
   3  -1  -4  101.73    2.67
  -3  -1   4   94.71    2.80
  -3  -1   3  864.99   22.19
   3  -1  -3  831.37   22.10
  -3  -1   3  919.70   22.20
   3  -1  -3  961.20   22.12
  -3  -1   3  979.52   22.26
   3  -1  -3  920.13   22.24
  -3  -1   2   18.13    0.54
  -3  -1   2   21.39    0.91
   3  -1  -2   18.40    0.78
  -3  -1   2   23.80    1.00
   3  -1  -2   18.83    0.85
   3  -1  -2   21.04    0.86
   3  -1  -2   21.68    0.90
  -3  -1   1  477.57    3.18
  -3  -1   1  538.71    4.07
  -3  -1   1  498.30    3.83
   3  -1  -1  520.13    3.79
   3  -1  -1  541.26    3.80
  -3  -1   1  536.30    3.92
   3  -1  -1  530.83    3.88
   3  -1  -1  455.64    4.16
  -3  -1   0  123.96    3.23
   3  -1   0  120.98    3.24
   3  -1   0  121.65    3.32
  -3  -1   0  132.56    3.35
  -3  -1   0  129.43    3.39
  -3  -1   0  112.22    3.30
   3  -1   0  112.66    3.19
  -3  -1   0  108.10    3.24
   3  -1   0  110.74    3.35
   3  -1   0  119.25    3.26
  -3  -1  -1  271.39    6.31
   3  -1   1  241.51    6.17
   3  -1   1  225.16    6.22
  -3  -1  -1  227.96    6.23
   3  -1   1  249.28    6.14
  -3  -1  -1  253.32    5.97
   3  -1   1  244.68    6.19
   3  -1   1  236.21    6.09
  -3  -1  -1  257.50    6.14
   3  -1   2  201.33    5.66
   3  -1   2  205.40    5.64
  -3  -1  -2  193.41    5.71
   3  -1   2  231.50    5.68
  -3  -1  -2  230.77    5.71
  -3  -1  -2  235.67    5.80
   3  -1   3  606.96   15.01
  -3  -1  -3  566.05   15.11
   3  -1   3  555.91   14.94
  -3  -1  -3  651.52   15.11
  -3  -1  -3  629.18   14.74
  -3  -1  -3  644.93   15.04
   3  -1   3  578.48   14.66
  -3  -1  -4   75.36    2.58
   3  -1   4   71.17    2.07
  -3  -1  -4   65.63    2.56
  -3  -1  -4   83.15    2.37
   3  -1   4   84.57    2.55
  -3  -1  -5    6.81    0.90
  -3  -1  -5    4.73    1.06
   3  -1   6   21.96    1.53
  -3  -1  -7   53.44    2.76
   3  -1   7   56.17    2.49
  -3  -1  -8    4.13    1.75
   3  -1   8    4.06    1.43
   3  -1   9    1.15    1.55
  -3   0  10   31.52    2.11
   3   0 -10   33.69    2.43
  -3   0  10   31.59    2.29
  -3   0   9   -0.52    1.32
   3   0  -9   -0.49    1.66
  -3   0   9    0.84    1.23
   3   0  -9   -0.21    1.42
  -3   0   8   38.60    1.59
   3   0  -8   35.01    1.22
   3   0  -8   34.48    2.41
  -3   0   7   15.35    1.03
   3   0  -7   14.81    0.69
   3   0  -7   12.83    1.61
   3   0  -7   15.48    1.40
  -3   0   7   13.97    1.31
   3   0  -7   14.75    0.82
  -3   0   6   -1.72    0.94
   3   0  -6   73.73    1.30
   3   0  -6   81.47    1.70
   3   0  -6   51.37    1.84
   3   0  -6   62.94    2.30
  -3   0   6   -1.43    0.92
  -3   0   6   81.50    1.70
   3   0  -5  134.30    2.56
  -3   0   5  130.75    3.29
   3   0  -5  135.19    3.32
  -3   0   5  132.01    3.24
  -3   0   4  766.90   17.82
   3   0  -4  740.46   17.69
   3   0  -4  711.58   17.47
  -3   0   4  665.73   17.66
   3   0  -4  738.11   17.84
  -3   0   4  682.19   17.66
   3   0  -3  171.61    2.14
   3   0  -3  175.84    2.43
  -3   0   3  189.59    2.29
   3   0  -3  178.43    2.31
  -3   0   3  184.28    2.56
  -3   0   2   80.66    2.31
   3   0  -2   92.20    2.62
   3   0  -2   87.38    2.60
  -3   0   2   96.79    2.62
  -3   0   2   78.86    2.58
   3   0  -2   96.84    2.63
   3   0  -2   99.44    2.66
   3   0  -2   86.03    2.65
  -3   0   1  350.20    8.94
   3   0  -1  339.06    9.12
   3   0  -1  362.52    8.91
   3   0  -1  333.65    9.03
  -3   0   1  373.15    9.07
   3   0  -1  363.61    9.15
  -3   0   1  346.53    9.08
   3   0  -1  367.39    9.06
   3   0  -1  376.26    9.11
  -3   0   0  675.05   18.41
   3   0   0  802.37   18.41
   3   0   0  827.29   18.55
  -3   0   0  830.74   18.54
  -3   0   0  813.30   18.54
  -3   0   0  676.24   18.50
   3   0   0  776.83   18.47
   3   0   0  739.27   18.20
   3   0   0  720.79   18.49
  -3   0   0  788.78   18.54
   3   0   1  145.32    2.25
  -3   0  -1  159.01    2.39
  -3   0  -1  158.13    2.36
  -3   0  -1  135.33    2.27
   3   0   1  153.90    2.31
   3   0   1  149.24    2.29
   3   0   1  143.16    2.32
   3   0   1  142.86    2.30
  -3   0  -2   10.23    0.89
  -3   0  -2   11.74    0.80
  -3   0  -2   10.90    0.50
   3   0   2   11.86    0.87
  -3   0  -2   12.23    0.85
  -3   0  -2   10.01    0.81
   3   0   2   11.10    0.79
   3   0   2    9.77    0.77
   3   0   3    7.20    0.87
   3   0   3    6.21    0.58
  -3   0  -3    5.56    0.80
   3   0   3    7.44    0.78
  -3   0  -3    6.57    0.78
   3   0   3    4.70    0.77
  -3   0  -3    7.03    0.52
  -3   0  -3    6.51    0.85
  -3   0  -4  141.57    4.36
   3   0   4  151.34    4.42
   3   0   4  144.70    3.92
  -3   0  -5    1.59    1.01
  -3   0  -5    1.66    0.73
   3   0   5    1.50    0.30
  -3   0  -6  124.35    4.38
  -3   0  -6  119.17    4.16
   3   0   6  124.27    4.18
   3   0   7   17.14    1.73
   3   0   8    1.23    1.43
  -3   1  10    2.24    1.67
   3   1  -9    0.80    1.72
   3   1  -8   67.27    2.93
   3   1  -8   72.33    2.00
   3   1  -8   66.09    3.17
  -3   1   8   65.41    2.84
   3   1  -7  195.76    6.28
   3   1  -7  234.91    5.70
  -3   1   7  183.74    6.17
   3   1  -7  206.57    6.56
  -3   1   7  254.47    6.07
   3   1  -6  105.47    2.84
   3   1  -6  117.04    3.32
   3   1  -6   76.70    3.09
  -3   1   6   90.17    3.19
   3   1  -6   93.58    3.45
  -3   1   5   21.81    1.39
   3   1  -5   20.48    1.21
   3   1  -5   19.30    1.31
   3   1  -5   19.99    1.01
   3   1  -5   17.46    1.33
  -3   1   4  124.82    2.39
   3   1  -4  110.21    1.94
   3   1  -4  121.80    2.47
  -3   1   4    1.37    0.82
   3   1  -4  104.57    2.37
  -3   1   4    7.12    0.95
   3   1  -4  121.52    2.14
  -3   1   3  905.03   21.92
  -3   1   3  879.67   21.72
   3   1  -3  835.55   21.95
   3   1  -3  807.79   22.02
  -3   1   3  874.61   22.02
  -3   1   3  861.81   21.99
   3   1  -3  953.13   21.87
   3   1  -3  978.81   21.93
  -3   1   3  996.70   22.18
  -3   1   2   23.16    0.85
   3   1  -2   23.63    0.94
   3   1  -2   21.25    0.95
  -3   1   2   23.88    0.85
  -3   1   2   20.04    0.92
   3   1  -2   22.11    0.88
  -3   1   2   25.11    1.11
   3   1  -1  478.04    3.64
   3   1  -1  493.42    3.08
  -3   1   1  491.98    3.57
  -3   1   1  496.66    3.56
  -3   1   1  482.32    3.91
  -3   1   1  501.46    4.14
   3   1   0  124.14    3.16
  -3   1   0  134.51    3.40
   3   1   0  100.21    3.28
  -3   1   0  112.62    3.19
   3   1   0  113.78    3.21
  -3   1   0  112.91    3.29
  -3   1   0  134.74    3.30
   3   1   0  108.89    3.11
   3   1   0  110.97    3.02
   3   1   1  259.66    6.52
  -3   1  -1  237.85    6.57
   3   1   1  236.20    6.52
  -3   1  -1  264.02    6.50
   3   1   1  268.09    6.56
   3   1   1  248.37    6.28
  -3   1  -1  281.17    6.70
  -3   1  -1  238.57    6.48
  -3   1  -2  224.48    3.07
  -3   1  -2  219.83    3.30
  -3   1  -2  194.77    2.97
   3   1   2  211.59    3.12
  -3   1  -2  197.11    2.11
   3   1   2  208.07    3.14
   3   1   3  624.31    6.36
  -3   1  -3  627.35    6.48
  -3   1  -3  528.77    5.84
   3   1   3  644.47    6.34
   3   1   3  563.17    6.34
  -3   1  -3  609.85    4.93
   3   1   3  579.43    5.58
   3   1   4   84.62    1.89
  -3   1  -4   93.11    1.90
  -3   1  -4   85.72    2.68
  -3   1  -5    2.51    1.10
  -3   1  -5    3.87    1.20
   3   1   5    2.76    0.43
  -3   1  -5    2.95    0.90
   3   1   5    3.12    0.91
  -3   1  -5    4.32    0.73
  -3   1  -6   22.40    1.78
  -3   1  -6   22.33    1.60
  -3   1  -7   53.43    2.84
   3   1   7   54.62    2.66
   3   1   8    3.68    1.58
  -3   2   9    2.45    1.44
   3   2  -9    0.44    1.70
   3   2  -9    1.50    1.52
   3   2  -8   29.78    2.01
  -3   2   8   26.07    1.80
   3   2  -8   27.63    2.15
   3   2  -7    6.43    1.36
  -3   2   7    7.20    1.19
   3   2  -7    8.12    1.30
   3   2  -6  122.08    3.47
   3   2  -6  103.25    3.62
  -3   2   6   93.34    3.42
   3   2  -6  114.83    3.15
   3   2  -6   94.86    3.53
   3   2  -5  144.56    2.37
   3   2  -5  124.87    2.63
   3   2  -4  447.60    4.06
  -3   2   4  464.13    3.88
   3   2  -4  516.66    4.04
   3   2  -4  465.46    4.61
  -3   2   4  536.57    4.88
   3   2  -3  215.86    6.08
   3   2  -3  246.79    5.98
  -3   2   3  247.60    6.00
  -3   2   3  213.94    6.07
  -3   2   3  223.47    5.98
   3   2  -3  235.52    6.27
   3   2  -3  207.82    5.95
   3   2  -3  231.94    5.93
  -3   2   3  213.26    6.03
  -3   2   3  247.30    6.28
  -3   2   2   64.01    1.61
   3   2  -2   57.95    1.58
  -3   2   2   58.91    1.64
   3   2  -2   61.95    1.82
  -3   2   2   68.43    1.38
   3   2  -2   62.84    1.53
  -3   2   2   56.95    1.62
   3   2  -1  358.55    8.34
   3   2  -1  314.06    8.55
  -3   2   1  345.37    8.60
   3   2  -1  326.49    8.69
  -3   2   1  360.68    8.36
   3   2  -1  343.08    8.50
   3   2  -1  321.54    8.31
  -3   2   1  328.34    8.55
  -3   2   1  326.99    8.60
   3   2   0  910.28    4.69
  -3   2   0  814.18    4.99
   3   2   0  758.05    4.25
  -3   2   0  808.13    5.37
   3   2   0  862.18    4.84
  -3   2   0  793.62    4.62
   3   2   0  725.32    4.81
   3   2   0  761.24    3.52
  -3   2  -1   76.99    2.50
  -3   2  -1   84.17    2.58
  -3   2  -1   71.08    2.27
   3   2   1   78.79    2.41
  -3   2  -1   78.58    2.41
  -3   2  -1   84.93    2.36
   3   2   1   73.49    2.46
   3   2   1   74.44    2.25
   3   2   2   27.74    1.02
  -3   2  -2   28.91    1.08
   3   2   2   32.61    1.30
  -3   2  -2   32.57    1.35
  -3   2  -2   29.86    1.15
  -3   2  -3   23.08    1.21
  -3   2  -3   26.80    1.10
  -3   2  -4  137.22    4.27
   3   2   4  144.89    4.56
  -3   2  -5    1.22    1.30
  -3   2  -5   -0.06    0.77
   3   2   5    0.74    0.93
  -3   2  -5    1.10    0.89
   3   2   5    1.17    0.61
  -3   2  -6   84.35    3.37
  -3   2  -6   86.97    3.02
   3   2   6   90.88    3.39
  -3   2  -7    9.92    1.84
   3   3  -9    5.71    1.76
  -3   3   9    6.08    1.59
   3   3  -9    8.63    1.78
   3   3  -8   34.09    2.29
   3   3  -8   32.53    2.28
  -3   3   8   34.55    2.08
  -3   3   7  145.29    4.31
   3   3  -7  159.16    5.00
  -3   3   7  145.76    4.74
   3   3  -7  151.16    4.94
   3   3  -6   42.88    1.77
  -3   3   6   35.36    1.86
   3   3  -6   38.90    2.10
  -3   3   6   30.86    1.52
   3   3  -6   34.52    1.89
   3   3  -5   92.56    1.97
  -3   3   5   -0.02    0.57
   3   3  -5   -0.03    0.58
   3   3  -5   74.73    1.79
   3   3  -5   78.73    2.16
  -3   3   4  136.37    2.76
   3   3  -4    0.02    0.95
  -3   3   4  116.04    2.25
  -3   3   4    8.95    1.21
   3   3  -4  126.47    2.17
   3   3  -4  116.93    2.47
   3   3  -3  365.89    4.82
   3   3  -3  330.77    4.48
  -3   3   3  376.24    4.71
  -3   3   3  335.44    4.70
  -3   3   3  335.32    4.78
  -3   3   2    0.48    0.39
   3   3  -2    0.50    0.44
  -3   3   2    0.46    0.61
   3   3  -2    0.59    0.68
   3   3  -2    0.26    0.42
  -3   3   2    0.36    0.55
  -3   3   2    0.38    0.57
  -3   3   1  427.50   10.19
   3   3  -1  383.77   10.21
   3   3  -1  433.74    9.99
  -3   3   1  388.45    9.98
   3   3  -1  388.37   10.04
  -3   3   1  402.13   10.07
   3   3  -1  366.64    9.98
   3   3   0   24.87    1.17
  -3   3   0   28.41    1.31
  -3   3   0   24.77    1.20
   3   3   0   23.90    1.10
   3   3   0   28.86    1.20
  -3   3   0   23.50    1.04
  -3   3   0   26.61    1.22
  -3   3   0   29.89    1.36
  -3   3  -1  131.68    3.28
  -3   3  -1  131.62    3.14
   3   3   1  135.92    3.11
  -3   3  -1  116.65    2.86
   3   3   1  125.51    3.20
   3   3   1  125.08    3.01
  -3   3  -1  150.72    3.43
  -3   3  -1  118.76    2.52
   3   3   1  160.63    3.37
   3   3   2   82.14    2.26
  -3   3  -2   66.85    1.90
   3   3   2   75.03    2.12
  -3   3  -2   68.34    1.75
   3   3   2   60.75    1.83
  -3   3  -2   61.25    1.32
  -3   3  -2   77.12    2.28
  -3   3  -3  336.06    4.83
  -3   3  -3  325.75    3.91
  -3   3  -3  338.51    4.17
  -3   3  -4   85.59    3.14
  -3   3  -4   92.92    2.71
  -3   3  -4   81.25    2.59
   3   3   4   88.56    3.11
  -3   3  -4   85.31    2.68
  -3   3  -5   19.59    1.70
  -3   3  -5   21.74    1.26
  -3   3  -5   18.30    1.19
   3   3   5   18.07    1.51
  -3   3  -6   19.87    1.82
   3   3   6   20.33    1.84
  -3   3  -7   32.86    2.46
   3   3   7   32.68    2.28
   3   4  -9    0.63    1.80
  -3   4   9    0.23    1.60
   3   4  -9    0.47    1.22
   3   4  -9    0.77    1.86
   3   4  -8   19.27    2.05
   3   4  -8   17.85    1.50
  -3   4   8   17.90    1.37
   3   4  -8   16.91    1.92
  -3   4   8   18.05    1.81
   3   4  -7    1.47    1.38
   3   4  -7    1.53    0.91
   3   4  -7    2.21    0.98
  -3   4   7    1.53    1.26
   3   4  -7    1.56    1.43
  -3   4   7    1.04    0.86
   3   4  -6   93.84    3.10
  -3   4   6   96.48    3.14
  -3   4   6   94.55    3.48
   3   4  -6   89.13    3.41
   3   4  -5   45.00    1.70
  -3   4   5   40.73    1.98
   3   4  -5   40.21    1.68
  -3   4   4  224.96    3.94
   3   4  -4  211.30    3.73
   3   4  -4  260.74    3.90
  -3   4   4  216.80    4.16
  -3   4   4  272.61    4.68
  -3   4   3  121.07    3.28
   3   4  -3  119.52    2.95
   3   4  -3  112.21    2.90
  -3   4   3  100.62    3.10
  -3   4   3  106.36    3.06
  -3   4   3  103.39    3.15
   3   4  -2  199.02    3.38
  -3   4   2  196.50    2.84
  -3   4   2  194.90    2.88
   3   4  -2  190.81    2.59
  -3   4   1  171.16    4.40
  -3   4   1  162.18    3.71
   3   4  -1  153.83    4.40
   3   4  -1  166.57    4.10
  -3   4   1  144.40    4.08
   3   4  -1  151.33    4.22
  -3   4   1  164.98    4.23
   3   4  -1  143.47    4.08
  -3   4   0  465.08   11.24
  -3   4   0  433.81   11.05
   3   4   0  486.92   11.05
   3   4   0  398.27   10.97
  -3   4   0  477.19   11.32
   3   4   0  388.73   10.95
  -3   4  -1   53.71    1.85
   3   4   1   47.33    1.62
   3   4   1   56.68    1.72
  -3   4  -1   53.17    1.42
   3   4   1   52.39    1.76
  -3   4  -1   50.18    1.62
  -3   4  -1   51.79    1.21
  -3   4  -2   61.87    2.33
  -3   4  -2   62.64    1.92
   3   4   2   70.38    2.46
   3   4   2   62.54    2.19
  -3   4  -2   63.75    1.77
  -3   4  -3   54.23    2.29
  -3   4  -3   51.53    1.63
   3   4   3   49.36    2.15
  -3   4  -3   51.40    1.61
  -3   4  -3   53.30    1.89
  -3   4  -4   80.06    3.07
  -3   4  -4   86.49    2.43
  -3   4  -4   79.43    2.46
   3   4   4   81.29    3.08
  -3   4  -5    1.76    1.27
  -3   4  -5    2.06    0.73
   3   4   5    2.16    1.20
   3   4   6   39.85    2.32
  -3   4  -6   35.91    2.45
  -3   4  -7    5.98    1.85
  -3   4  -7    8.88    2.01
   3   4   7    7.11    1.84
   3   5  -9   15.55    2.25
   3   5  -8   13.54    1.23
   3   5  -8   16.67    2.35
  -3   5   8   19.98    1.31
   3   5  -8   15.86    1.99
  -3   5   8   15.55    1.86
  -3   5   7   58.97    2.21
   3   5  -7   49.38    2.05
   3   5  -7   63.67    3.36
  -3   5   7   53.92    2.68
   3   5  -7   51.79    2.68
   3   5  -6   24.65    1.25
   3   5  -6   18.87    1.14
   3   5  -6   26.27    2.05
  -3   5   6   19.23    1.26
  -3   5   6   21.57    1.72
   3   5  -6   20.40    1.61
   3   5  -5  106.68    2.89
   3   5  -5   85.54    2.77
   3   5  -5   91.86    2.39
   3   5  -5  109.00    3.80
  -3   5   5   94.90    3.32
   3   5  -5   98.15    3.29
   3   5  -4   66.46    1.84
   3   5  -4   64.54    1.38
  -3   5   4   64.90    2.23
   3   5  -4   76.67    2.70
   3   5  -4   74.26    1.87
   3   5  -4   67.02    2.06
   3   5  -3  147.30    3.45
   3   5  -3  144.96    2.50
   3   5  -3  131.77    2.20
   3   5  -3  155.61    2.62
  -3   5   3  135.24    2.97
   3   5  -3  131.51    2.50
   3   5  -3  140.59    2.71
  -3   5   2   -0.01    0.07
  -3   5   2    3.93    0.95
   3   5  -2    3.58    1.00
   3   5  -2    2.54    0.56
  -3   5   2    2.38    0.74
   3   5  -2    0.02    0.08
  -3   5   2    1.77    0.69
  -3   5   1  155.67    2.83
   3   5  -1  139.02    2.70
   3   5  -1  132.01    2.14
  -3   5   0    9.23    0.67
  -3   5   0    9.37    0.69
   3   5   0    9.87    0.90
   3   5   0   10.76    0.92
  -3   5   0    9.76    0.92
   3   5   1  150.88    3.90
  -3   5  -1  128.80    3.48
   3   5   1  145.46    4.05
  -3   5  -1  131.11    3.45
   3   5   1  125.54    3.83
  -3   5  -1  135.72    3.92
  -3   5  -2   13.98    1.21
  -3   5  -2   15.48    0.73
   3   5   2   16.02    1.34
  -3   5  -2   14.76    0.78
  -3   5  -3  144.89    4.44
  -3   5  -3  138.99    3.63
   3   5   3  133.50    4.35
  -3   5  -3  142.05    4.09
  -3   5  -3  135.25    3.68
   3   5   4   37.33    2.01
  -3   5  -4   40.99    1.79
  -3   5  -4   35.36    1.38
  -3   5  -4   36.00    1.27
  -3   5  -4   37.79    2.08
  -3   5  -5   40.01    1.85
   3   5   5   37.02    2.44
  -3   5  -5   37.33    1.36
  -3   5  -5   40.59    1.57
  -3   5  -6    9.44    1.69
   3   5   6   10.46    1.72
  -3   5  -6   10.06    1.98
  -3   5  -6   10.17    1.09
  -3   5  -7   18.58    2.36
  -3   6   8   11.61    1.42
   3   6  -8   11.02    2.23
  -3   6   8    9.32    1.83
   3   6  -8   11.33    2.07
   3   6  -7    2.14    1.50
  -3   6   7    2.33    1.52
  -3   6   7    2.38    1.17
   3   6  -7    1.40    0.69
   3   6  -7    2.51    1.69
   3   6  -6   37.26    1.45
  -3   6   6   39.31    2.26
  -3   6   6   35.80    1.86
   3   6  -6   37.31    2.04
   3   6  -5    2.40    1.07
  -3   6   5    2.94    1.18
   3   6  -5    2.73    0.68
   3   6  -5    2.10    0.40
   3   6  -5    2.15    1.38
   3   6  -5    1.65    0.62
   3   6  -5    2.31    0.78
   3   6  -4   75.73    2.17
   3   6  -4   88.23    3.37
   3   6  -4   84.35    2.42
   3   6  -4   79.19    2.38
  -3   6   4   74.94    2.83
   3   6  -4   73.79    2.34
  -3   6   4   74.34    2.76
   3   6  -4   77.35    2.65
   3   6  -3   54.24    1.93
  -3   6   3   50.94    2.18
   3   6  -3   58.14    2.61
   3   6  -3   48.53    2.28
   3   6  -3   56.86    1.84
   3   6  -3   48.81    1.77
   3   6  -3   63.09    1.95
   3   6  -3   54.59    1.64
   3   6  -2  166.75    3.89
   3   6  -2  179.71    3.17
   3   6  -2  159.38    3.13
   3   6  -2   31.34    2.61
  -3   6   2   46.69    2.72
  -3   6   1   49.82    1.85
   3   6  -1   54.34    2.27
   3   6  -1   52.88    1.83
  -3   6   1   48.19    1.82
  -3   6   1   50.11    2.05
   3   6  -1   46.78    2.02
   3   6   0  136.73    3.52
  -3   6   0  101.38    3.10
  -3   6   0  106.85    3.03
   3   6   0  111.54    3.60
  -3   6   0  115.63    3.25
  -3   6   0  124.31    3.65
  -3   6  -1   18.98    1.45
  -3   6  -1   19.09    1.37
   3   6   1   18.05    1.33
  -3   6  -1   18.41    0.85
   3   6   1   21.51    1.44
  -3   6  -1   19.16    1.03
  -3   6  -2   95.87    3.38
  -3   6  -2  102.36    2.63
   3   6   2   97.70    3.36
  -3   6  -2   99.06    2.87
   3   6   2   96.45    3.34
   3   6   3   13.80    1.38
  -3   6  -3   14.58    1.41
  -3   6  -3   13.08    0.47
   3   6   3   14.02    1.40
  -3   6  -3   14.46    0.90
  -3   6  -3   14.53    1.33
  -3   6  -4   22.84    1.89
   3   6   4   21.56    1.82
  -3   6  -4   24.15    1.64
  -3   6  -4   23.03    1.17
   3   6   5    3.09    1.59
  -3   6  -5    1.86    0.86
  -3   6  -5    2.17    1.11
  -3   6  -6   12.14    1.97
  -3   6  -6   12.02    1.96
   3   6   6   12.22    1.86
   3   7  -8    2.74    1.84
  -3   7   8    1.54    1.35
   3   7  -7   19.43    2.34
  -3   7   7   15.77    1.61
  -3   7   7   17.84    2.00
   3   7  -7   16.20    1.94
   3   7  -6   10.57    0.66
   3   7  -6    9.77    0.58
  -3   7   6    9.59    1.36
   3   7  -6    9.68    1.97
  -3   7   6   11.65    1.73
   3   7  -6   10.54    1.53
   3   7  -5   72.81    2.15
   3   7  -5   71.48    2.10
  -3   7   5   65.34    2.86
   3   7  -5   74.25    3.35
   3   7  -5   68.25    2.06
   3   7  -5   73.04    2.45
   3   7  -5   68.40    2.70
   3   7  -4   16.29    0.92
   3   7  -4   16.65    1.63
   3   7  -4   18.00    1.81
   3   7  -4   16.77    0.92
  -3   7   4   16.82    1.45
   3   7  -4   17.72    0.97
   3   7  -4   17.64    1.01
   3   7  -4   16.99    1.22
   3   7  -3   46.20    2.49
   3   7  -3   48.48    1.70
   3   7  -3   46.50    1.74
  -3   7   3   47.26    2.15
   3   7  -3   46.37    2.31
  -3   7   3   46.26    2.18
   3   7  -3   48.35    1.81
  -3   7   2    8.63    0.96
   3   7  -2    7.96    0.86
  -3   7   2    7.21    0.96
   3   7  -2    7.41    1.28
   3   7  -2    4.56    1.21
  -3   7   2    6.43    1.16
  -3   7   2    7.00    0.97
  -3   7   1   36.65    1.47
   3   7  -1   37.13    1.52
   3   7  -1   37.89    1.72
  -3   7   1   31.71    1.50
  -3   7   1   32.14    1.82
   3   7  -1   29.82    1.79
  -3   7   1   32.32    1.50
   3   7   0   -0.32    1.11
  -3   7   0   -0.01    0.55
  -3   7   0    0.36    0.45
  -3   7   0    0.14    0.76
   3   7   0    0.13    1.07
  -3   7   0    0.58    0.99
  -3   7  -1   94.24    3.38
   3   7   1   87.70    3.27
  -3   7  -1   93.86    2.53
  -3   7  -1   92.88    2.53
  -3   7  -1   85.70    2.74
  -3   7  -1   91.26    2.87
  -3   7  -1   96.76    3.30
  -3   7  -2    3.09    1.19
   3   7   2    2.85    1.12
   3   7   2    3.31    1.12
  -3   7  -2    2.69    0.80
  -3   7  -3   26.87    1.88
   3   7   3   29.78    1.87
  -3   7  -3   27.57    1.86
   3   7   3   25.60    1.86
  -3   7  -3   26.44    1.35
   3   7   4   12.07    1.76
  -3   7  -4   10.28    1.53
  -3   7  -4   12.84    1.06
  -3   7  -5   31.68    2.31
   3   7   5   30.72    2.35
  -3   7  -5   31.23    1.57
  -3   7  -5   34.68    2.05
  -3   7  -6    6.44    2.02
   3   8  -8    5.57    2.06
  -3   8   8    6.19    1.60
   3   8  -7    1.31    1.59
  -3   8   7    2.10    1.45
   3   8  -6   15.88    2.26
   3   8  -6   12.50    1.83
  -3   8   6   13.33    1.59
   3   8  -6   14.82    1.68
   3   8  -5    1.80    1.14
  -3   8   5    1.21    1.34
   3   8  -5    2.01    0.68
   3   8  -5    1.55    0.33
   3   8  -5    2.03    1.45
  -3   8   4   16.67    1.61
   3   8  -4   15.48    1.05
   3   8  -4   16.78    0.89
   3   8  -4   16.56    1.84
   3   8  -4   18.01    1.07
   3   8  -4   17.05    0.90
  -3   8   4   15.52    1.59
   3   8  -4   16.39    1.30
   3   8  -3   19.88    1.08
   3   8  -3   15.90    1.07
   3   8  -3   17.45    1.00
  -3   8   3   15.92    1.44
   3   8  -3   16.16    1.67
  -3   8   3   16.74    1.44
   3   8  -3   16.31    1.00
  -3   8   3   14.66    1.57
   3   8  -2   91.86    3.51
   3   8  -2   83.17    2.87
  -3   8   2   88.42    3.06
  -3   8   2   94.37    3.41
   3   8  -2   88.05    3.42
  -3   8   2   88.89    3.11
  -3   8   1   14.14    1.08
   3   8  -1   11.63    1.49
  -3   8   1   10.92    1.48
   3   8  -1   12.70    1.13
   3   8  -1   13.52    1.06
  -3   8   1   11.23    1.07
   3   8  -1   10.74    1.45
  -3   8   1    9.80    1.08
  -3   8   0   30.39    1.25
   3   8   0   29.83    1.65
  -3   8   0   30.77    1.05
  -3   8   0   27.69    1.25
  -3   8   0   28.52    1.58
   3   8   0   28.45    1.97
  -3   8   0   30.86    1.93
  -3   8  -1    7.18    1.46
  -3   8  -1    7.42    1.39
   3   8   1    5.89    1.12
  -3   8  -1    6.24    0.42
  -3   8  -1    7.53    0.96
  -3   8  -1    7.56    1.08
   3   8   1    6.23    1.40
  -3   8  -2   53.73    2.65
   3   8   2   51.01    2.40
  -3   8  -2   48.22    2.07
  -3   8  -2   53.59    2.09
   3   8   2   49.86    2.50
   3   8   3   -0.44    1.44
  -3   8  -3    0.87    1.09
  -3   8  -3    0.85    0.94
  -3   8  -3    1.23    1.39
  -3   8  -4    7.40    1.80
   3   8   4    8.38    1.80
  -3   8  -4    8.68    1.45
  -3   8  -4    8.59    1.14
  -3   8  -4    8.04    1.64
  -3   8  -5    0.45    1.71
  -3   8  -5    0.65    1.56
  -3   8  -5    1.13    1.54
   3   9  -7    5.50    1.75
  -3   9   7    3.64    1.59
  -3   9   6    7.08    1.93
   3   9  -6    7.66    1.57
   3   9  -6    8.33    2.33
  -3   9   6    6.97    1.69
   3   9  -5   23.07    1.26
   3   9  -5   26.68    2.49
   3   9  -5   20.61    2.07
  -3   9   5   23.30    2.05
  -3   9   5   23.40    2.04
   3   9  -5   25.24    1.75
  -3   9   4    0.68    1.28
   3   9  -4    0.77    1.02
   3   9  -4    0.16    0.86
   3   9  -4    0.98    1.71
   3   9  -4    0.36    1.57
  -3   9   4   -0.41    1.37
   3   9  -3   10.80    0.88
   3   9  -3   11.41    1.87
  -3   9   3   11.36    1.32
   3   9  -3    9.71    1.68
  -3   9   3   12.64    1.45
  -3   9   3   12.54    1.69
  -3   9   2    1.07    1.38
   3   9  -2    0.65    1.48
  -3   9   2    0.84    1.08
   3   9  -2    1.40    0.86
   3   9  -2    0.49    1.38
  -3   9   2    1.36    1.17
   3   9  -1   15.74    1.83
  -3   9   1   16.13    1.13
   3   9  -1   14.86    1.27
  -3   9   1   15.06    1.18
   3   9  -1   14.31    1.76
  -3   9   1   14.88    1.29
  -3   9   1   15.35    1.69
  -3   9   0    0.42    0.22
  -3   9   0    1.71    0.69
   3   9   0    1.55    1.08
  -3   9   0    2.37    1.14
   3   9   0    1.83    1.42
  -3   9   0    0.99    1.48
  -3   9  -1   30.82    2.21
   3   9   1   29.82    1.85
  -3   9  -1   30.81    1.39
   3   9   1   25.83    2.07
  -3   9  -1   27.17    1.71
  -3   9  -1   29.05    2.17
  -3   9  -2    2.56    1.61
   3   9   2    2.75    1.51
  -3   9  -2    3.31    1.11
   3   9   2    1.88    1.58
  -3   9  -2    2.17    1.12
  -3   9  -2    3.40    1.56
   3   9   3    3.40    1.63
  -3   9  -3    3.03    1.27
   3   9   3    4.02    1.65
  -3   9  -3    3.85    1.21
  -3   9  -3    4.49    1.71
  -3   9  -4    0.77    1.86
   3   9   4    1.09    1.73
  -3   9  -4    0.89    1.16
  -3   9  -4    0.94    1.68
  -3   9  -4    1.29    1.44
  -3   9  -5   16.61    2.02
  -3   9  -5   21.57    2.10
  -3  10   5    0.71    1.79
   3  10  -5    1.75    1.97
  -3  10   4    3.86    1.57
   3  10  -4    3.76    1.08
   3  10  -4    5.00    1.91
  -3  10   4    3.41    1.57
   3  10  -4    5.19    1.86
  -3  10   4    4.42    1.74
   3  10  -3    3.78    1.70
  -3  10   3    2.86    1.33
   3  10  -3    3.20    1.74
  -3  10   3    3.11    1.65
  -3  10   3    2.84    1.39
   3  10  -2   35.62    1.64
   3  10  -2   35.21    2.60
  -3  10   2   33.70    1.95
  -3  10   2   36.89    1.99
   3  10  -2   30.98    2.34
  -3  10   2   31.61    2.31
   3  10  -1    0.61    1.01
  -3  10   1    0.99    0.93
   3  10  -1    1.21    1.58
  -3  10   1    1.23    1.56
   3  10   0    8.13    1.32
  -3  10   0    8.42    1.49
   3  10   0    9.13    1.83
  -3  10   0    9.59    1.81
  -3  10  -1    2.59    1.77
   3  10   1    3.73    1.38
  -3  10  -1    4.01    1.33
   3  10   1    3.43    1.74
  -3  10  -1    1.72    1.78
   3  10   2   18.15    1.86
  -3  10  -2   16.22    1.62
  -3  10  -2   16.50    2.08
  -3  10  -3    0.36    1.36
   3  10   3   -0.29    1.73
  -3  10  -3   -0.22    1.79
  -3  10  -4    4.39    2.14
   3  11  -4   -0.51    2.21
  -3  11   4    0.21    1.48
  -3  11   4    0.99    1.67
   3  11  -3    4.16    2.00
  -3  11   3    2.30    1.64
  -3  11   3    3.28    1.57
   3  11  -2   -0.56    1.79
   3  11   0    1.34    1.44
   3  11   1    6.47    1.61
  -3  11  -1    7.09    1.64
   3  11   2    0.54    1.62
  -3  11  -2    1.47    1.59
  -4 -11   3   -0.66    1.57
   4 -11  -3    1.95    1.75
  -4 -11   2    2.16    1.60
   4 -11  -2    2.75    1.78
  -4 -11   1    0.51    1.75
   4 -11  -1    1.79    1.79
  -4 -11   0    2.21    1.48
   4 -11   0    3.50    1.70
  -4 -11  -1    0.52    1.45
   4 -10  -5   11.04    2.16
  -4 -10   4    5.58    1.42
   4 -10  -4    5.33    1.88
  -4 -10   3    4.35    1.50
   4 -10  -3    2.68    1.82
   4 -10  -2    0.80    1.90
  -4 -10   2    0.43    1.44
  -4 -10   2    1.58    1.09
   4 -10  -2    1.12    1.33
   4 -10  -2    1.82    1.58
   4 -10  -1   16.69    2.00
  -4 -10   1   15.08    1.89
  -4 -10   1   17.48    1.58
  -4 -10   0    7.83    1.78
  -4 -10   0    6.17    1.51
   4 -10   0    6.59    1.66
  -4 -10  -1    4.52    1.84
  -4 -10  -1    4.78    1.60
   4 -10   1    3.87    1.69
  -4 -10  -2   -0.19    1.65
   4 -10   2    0.30    1.76
   4  -9  -6    4.09    2.00
   4  -9  -5    1.05    1.81
   4  -9  -4   19.06    2.21
  -4  -9   4   21.18    1.52
  -4  -9   4   19.98    1.18
   4  -9  -4   18.14    2.13
   4  -9  -3    2.84    1.70
  -4  -9   3    1.95    1.24
  -4  -9   3    2.99    0.92
   4  -9  -3    3.45    1.64
  -4  -9   2   12.04    1.55
   4  -9  -2   11.82    2.03
   4  -9  -2   11.38    1.83
  -4  -9   1    5.14    1.51
  -4  -9   1    4.85    1.19
   4  -9  -1    4.73    1.12
   4  -9  -1    5.16    1.61
  -4  -9   0    5.84    1.59
   4  -9   0    5.87    0.82
  -4  -9   0    4.92    1.28
   4  -9   0    4.62    1.65
  -4  -9  -1    0.30    1.33
   4  -9   1   -0.11    1.53
  -4  -9  -2   18.52    2.13
  -4  -9  -2   19.96    2.04
   4  -9   2   22.37    2.14
  -4  -9  -3    6.30    1.79
   4  -8  -7    4.98    1.88
   4  -8  -6    2.49    1.70
  -4  -8   5   26.46    1.27
   4  -8  -4    9.86    1.78
  -4  -8   4   10.67    1.20
  -4  -8   4    9.48    0.97
   4  -8  -3   12.09    1.85
  -4  -8   3   12.85    1.15
  -4  -8   3   16.91    1.29
   4  -8  -2   -0.41    1.53
  -4  -8   2    0.11    1.09
  -4  -8   1   71.48    3.16
   4  -8  -1   96.42    2.83
  -4  -8   1   79.72    3.01
   4  -8  -1   89.10    2.97
  -4  -8   0   12.16    1.32
   4  -8   0   13.31    1.05
  -4  -8  -1    9.00    1.59
  -4  -8  -1   10.78    1.48
   4  -8   1   12.43    0.75
  -4  -8  -2    2.42    1.54
  -4  -8  -3   14.86    1.95
  -4  -8  -4    3.61    1.76
   4  -7  -9    0.90    1.87
   4  -7  -8   18.32    2.12
   4  -7  -7   10.59    1.83
   4  -7  -6   19.98    2.09
  -4  -7   6   20.07    1.15
  -4  -7   5    1.88    0.75
   4  -7  -4   46.23    2.45
  -4  -7   4   45.92    1.80
   4  -7  -4   40.40    2.52
  -4  -7   4   41.26    1.74
   4  -7  -3   16.74    1.74
  -4  -7   3   16.35    1.25
  -4  -7   3   16.65    1.23
   4  -7  -3   16.80    1.70
  -4  -7   3   21.67    1.39
   4  -7  -2   39.76    2.28
   4  -7  -2   35.26    2.04
  -4  -7   2   38.93    1.55
   4  -7  -1   12.61    1.04
  -4  -7   1    8.90    1.24
   4  -7  -1   11.31    1.09
   4  -7  -1   11.98    1.14
   4  -7  -1    8.04    1.52
   4  -7   0   26.06    1.27
  -4  -7   0   26.74    1.74
   4  -7   0   28.02    1.39
   4  -7   0   23.27    1.81
   4  -7   1    5.70    0.71
   4  -7   1    5.51    0.70
  -4  -7  -1    5.27    1.31
   4  -7   1    6.09    1.31
  -4  -7  -2   38.56    2.16
   4  -7   2   37.14    1.21
   4  -7   2   39.49    2.28
  -4  -7  -3   17.03    1.71
  -4  -7  -4   10.58    1.85
   4  -6  -9    7.28    1.87
   4  -6  -8    4.26    1.68
   4  -6  -7   19.43    1.86
   4  -6  -7   19.95    0.91
   4  -6  -6    3.07    1.42
  -4  -6   6    2.93    0.84
  -4  -6   5   43.04    1.70
   4  -6  -4   17.29    1.66
  -4  -6   4   16.67    1.01
  -4  -6   4   14.85    1.09
   4  -6  -4   14.28    1.59
   4  -6  -3   75.27    3.06
  -4  -6   3   73.24    2.52
  -4  -6   3   68.09    2.45
   4  -6  -3   69.22    3.06
   4  -6  -2   30.99    1.97
   4  -6  -2   38.43    1.69
  -4  -6   2   27.17    1.53
  -4  -6   2   29.42    1.53
  -4  -6   2   39.72    1.65
   4  -6  -2   28.65    1.88
   4  -6  -2   32.07    1.50
   4  -6  -1  150.34    5.07
   4  -6  -1  157.41    4.71
   4  -6  -1  157.19    4.43
   4  -6   0   32.63    1.39
  -4  -6   0   30.94    1.65
   4  -6   0   32.90    1.48
   4  -6   0   30.35    1.86
   4  -6   1   51.57    1.79
   4  -6   1   56.09    1.87
  -4  -6  -1   56.69    2.49
   4  -6   1   48.64    2.40
  -4  -6  -2    8.43    1.26
   4  -6   2   10.11    0.72
   4  -6   2    9.52    1.45
  -4  -6  -2   10.07    0.56
   4  -6   2    8.51    0.69
  -4  -6  -3   29.31    1.96
   4  -6   3   30.44    1.07
   4  -6   4   10.20    0.63
  -4  -6  -4   14.59    1.69
  -4  -6  -4   12.80    0.94
  -4  -6  -5   10.41    1.97
  -4  -6  -5    9.19    1.11
   4  -5  -9   10.60    1.61
   4  -5  -8   25.34    1.91
   4  -5  -8   28.86    1.60
   4  -5  -7   17.34    1.71
  -4  -5   7   15.57    1.24
   4  -5  -7   20.50    1.21
   4  -5  -6   66.98    2.79
  -4  -5   6   59.66    2.34
   4  -5  -5   21.63    0.69
  -4  -5   5   22.28    1.24
  -4  -5   4  121.53    3.32
   4  -5  -4  113.68    3.76
  -4  -5   4  111.64    3.04
  -4  -5   3   16.97    0.91
   4  -5  -3   16.08    1.36
  -4  -5   3   16.89    0.99
  -4  -5   3   20.19    1.21
   4  -5  -3   17.50    1.15
   4  -5  -3   16.41    1.49
  -4  -5   2   84.91    2.37
   4  -5  -2   94.08    2.87
  -4  -5   2   79.59    2.74
  -4  -5   2  100.00    2.87
   4  -5  -2   85.93    2.67
   4  -5  -2   76.39    3.15
   4  -5  -1   19.67    1.14
  -4  -5   1   18.53    1.22
   4  -5  -1   19.56    0.97
   4  -5  -1   16.84    1.41
   4  -5   0  103.40    2.01
   4  -5   0  106.81    2.18
   4  -5   1   46.30    1.53
  -4  -5  -1   42.56    1.91
   4  -5   1   40.37    1.93
   4  -5   1   46.22    1.49
  -4  -5  -2   80.27    2.37
  -4  -5  -2   90.04    3.26
   4  -5   2   86.48    3.24
   4  -5   2   85.53    2.58
   4  -5   2   87.19    2.57
   4  -5   2   83.53    2.57
  -4  -5  -3   11.29    0.84
  -4  -5  -3   12.11    1.43
   4  -5   3   15.16    0.92
   4  -5   3   12.94    0.87
  -4  -5  -3   16.48    1.07
   4  -5   3   12.46    0.86
  -4  -5  -4   43.22    1.78
  -4  -5  -4   39.75    2.30
   4  -5   4   43.44    1.58
   4  -5   4   42.32    1.57
   4  -5   5   17.29    1.02
  -4  -5  -5   16.79    1.98
  -4  -5  -6   10.65    1.50
   4  -4  -9   19.28    1.62
  -4  -4   9   21.41    1.60
   4  -4  -9   22.36    1.70
   4  -4  -8    2.84    1.19
  -4  -4   8    2.95    1.06
   4  -4  -7   42.87    2.06
   4  -4  -7   45.64    1.94
   4  -4  -6   13.85    1.33
   4  -4  -6   15.01    1.01
  -4  -4   6   12.88    1.12
   4  -4  -5   64.12    2.40
   4  -4  -5   66.69    1.96
  -4  -4   4   30.25    1.39
  -4  -4   4   26.93    0.91
   4  -4  -4   25.96    0.91
  -4  -4   3  305.23    4.03
   4  -4  -3  305.62    4.82
  -4  -4   3  293.56    3.87
   4  -4  -3  297.20    4.16
  -4  -4   2  152.15    2.50
  -4  -4   2  141.32    2.90
   4  -4  -2  152.75    2.62
  -4  -4   1  152.58    3.16
  -4  -4   1  119.31    3.00
  -4  -4   1  158.57    3.48
   4  -4  -1  148.14    3.23
   4  -4  -1  129.04    2.56
  -4  -4   1  119.82    2.47
  -4  -4   0   64.46    2.01
   4  -4   0   59.64    1.67
   4  -4   0   64.16    1.81
   4  -4   0   65.19    1.93
   4  -4   1  190.81    3.53
  -4  -4  -1  180.40    3.91
  -4  -4  -1  211.14    3.19
   4  -4   1  196.95    3.49
   4  -4   1  207.99    3.57
  -4  -4  -2   28.58    1.18
  -4  -4  -2   31.75    1.78
  -4  -4  -2   34.83    1.31
   4  -4   2   29.94    1.29
   4  -4   2   32.45    1.82
   4  -4   2   31.43    1.31
  -4  -4  -2   35.51    1.59
   4  -4   2   38.57    1.51
  -4  -4  -3   36.67    1.53
  -4  -4  -3   38.64    2.07
   4  -4   3   39.10    1.53
   4  -4   3   38.56    1.55
  -4  -4  -3   44.77    1.68
  -4  -4  -4   24.39    1.37
  -4  -4  -4   27.14    1.86
   4  -4   4   26.85    1.34
   4  -4   4   27.99    1.37
  -4  -4  -5   16.04    1.34
  -4  -4  -5   13.41    1.69
   4  -4   5   15.11    1.15
  -4  -4  -6    3.88    1.29
  -4  -4  -6    3.56    1.73
  -4  -4  -7   12.94    1.79
  -4  -3  10   24.59    1.93
   4  -3 -10   27.60    2.16
   4  -3  -9   16.78    1.37
  -4  -3   9   17.55    1.63
   4  -3  -9   19.03    1.74
   4  -3  -8   22.12    1.45
  -4  -3   8   17.59    1.51
   4  -3  -8   21.73    1.64
   4  -3  -7   29.48    1.60
  -4  -3   7   30.10    1.54
   4  -3  -7   33.32    1.77
   4  -3  -6  142.80    4.35
  -4  -3   6  147.43    4.42
   4  -3  -5  149.27    4.03
   4  -3  -5  142.66    4.11
  -4  -3   4  128.69    3.64
   4  -3  -4  123.69    3.36
   4  -3  -4  129.82    3.58
   4  -3  -3   19.70    1.22
  -4  -3   3   17.14    1.00
  -4  -3   3   15.34    1.02
  -4  -3   3   19.57    1.24
   4  -3  -3   17.62    1.04
  -4  -3   2  145.78    3.19
  -4  -3   2  178.12    3.57
  -4  -3   2  179.37    3.33
   4  -3  -2  150.79    2.82
   4  -3  -2  164.45    3.45
   4  -3  -2  154.37    3.11
   4  -3  -2  156.29    3.17
  -4  -3   2  150.97    2.91
  -4  -3   1   23.48    1.18
  -4  -3   1   19.32    1.12
  -4  -3   1   24.30    1.27
   4  -3  -1   19.82    1.14
   4  -3  -1   19.62    1.05
   4  -3  -1   19.39    0.73
   4  -3  -1   20.85    1.09
   4  -3  -1   20.68    1.09
  -4  -3   0  295.90    3.38
   4  -3   0  264.22    3.07
  -4  -3   0  282.57    3.51
   4  -3   0  251.65    2.84
   4  -3   1  191.29    2.44
  -4  -3  -1  207.68    2.22
   4  -3   2   72.17    2.32
   4  -3   2   74.01    2.39
  -4  -3  -2   87.63    2.43
  -4  -3  -2   90.17    2.50
   4  -3   2   77.62    2.42
  -4  -3  -3   24.69    1.30
  -4  -3  -3   27.21    1.76
   4  -3   3   28.28    1.34
   4  -3   3   26.89    1.32
  -4  -3  -3   30.43    1.44
  -4  -3  -3   27.68    1.32
   4  -3   3   25.99    1.30
  -4  -3  -4  104.01    3.38
   4  -3   4  109.28    3.36
   4  -3   4  113.40    3.28
  -4  -3  -5   52.27    1.92
  -4  -3  -5   47.74    2.21
  -4  -3  -6   10.24    1.50
   4  -3   6   10.64    1.24
  -4  -3  -6   10.28    1.86
  -4  -3  -7    4.10    1.52
   4  -3   7    4.59    1.21
  -4  -2  10    3.00    1.49
  -4  -2  10    3.33    1.51
   4  -2 -10    3.95    1.63
   4  -2  -9   31.43    1.46
  -4  -2   9   29.94    1.95
   4  -2  -9   33.45    2.16
  -4  -2   9   33.97    2.11
   4  -2  -8    4.86    0.90
  -4  -2   8    5.12    1.23
   4  -2  -8    5.58    1.32
  -4  -2   8    4.20    1.25
   4  -2  -7   86.55    2.67
  -4  -2   7   82.58    3.00
  -4  -2   7   89.70    3.22
   4  -2  -6   32.43    1.41
   4  -2  -6   32.86    1.67
   4  -2  -6   33.39    1.47
   4  -2  -5   36.83    1.48
   4  -2  -5   39.68    1.63
  -4  -2   5   33.95    1.62
   4  -2  -5   42.08    1.64
  -4  -2   4   63.66    2.25
   4  -2  -4   71.23    2.39
  -4  -2   4   74.17    2.39
   4  -2  -4   62.11    2.11
   4  -2  -3  602.74   14.33
   4  -2  -3  579.12   14.41
  -4  -2   3  577.54   14.33
  -4  -2   2  406.24   11.00
  -4  -2   2  476.12   11.25
  -4  -2   2  476.28   11.09
   4  -2  -2  444.26   10.99
   4  -2  -2  408.43   11.11
   4  -2  -2  388.47   11.25
   4  -2  -2  444.13   11.01
   4  -2  -2  445.76   11.04
   4  -2  -1   63.45    1.98
  -4  -2   1   83.01    2.07
   4  -2  -1   75.30    2.00
  -4  -2   1   87.41    2.02
   4  -2  -1   74.87    1.82
   4  -2  -1   73.17    1.81
   4  -2  -1   75.93    1.85
   4  -2   0   62.74    2.12
  -4  -2   0   71.06    2.21
  -4  -2   0   67.81    2.23
   4  -2   0   51.73    2.18
   4  -2   0   61.79    2.04
   4  -2   0   58.79    2.05
  -4  -2  -1  375.52    4.48
   4  -2   1  340.96    4.16
  -4  -2  -1  342.78    4.55
   4  -2   1  286.79    4.24
  -4  -2  -1  349.71    3.84
   4  -2   1  324.54    3.87
   4  -2   1  311.78    3.99
   4  -2   2   91.36    2.20
  -4  -2  -2   97.33    2.08
  -4  -2  -2   96.41    2.29
   4  -2   2   90.88    2.15
  -4  -2  -3   40.89    2.02
  -4  -2  -3   46.44    1.81
   4  -2   3   42.10    1.71
   4  -2   3   37.38    1.66
  -4  -2  -3   43.56    1.55
   4  -2   3   36.74    1.48
  -4  -2  -4   35.84    1.94
   4  -2   4   41.08    1.76
  -4  -2  -4   40.94    1.60
   4  -2   4   38.53    1.44
  -4  -2  -5   23.01    1.65
  -4  -2  -5   20.14    1.70
   4  -2   5   21.70    1.43
  -4  -2  -6   -0.02    1.29
   4  -2   6    0.33    1.12
  -4  -2  -7   25.18    2.16
   4  -2   7   27.45    1.85
  -4  -2  -7   25.37    2.24
   4  -1 -10   44.88    2.67
  -4  -1  10   41.93    2.53
  -4  -1  10   43.30    2.60
   4  -1  -9   28.39    2.10
  -4  -1   9   30.26    2.07
  -4  -1   9   31.06    2.18
   4  -1  -8    4.59    0.56
  -4  -1   8    4.07    0.51
  -4  -1   8    4.93    1.34
   4  -1  -8    5.48    1.35
   4  -1  -8    5.69    0.92
  -4  -1   8    5.87    1.39
  -4  -1   7   28.47    0.96
   4  -1  -7   29.57    1.12
   4  -1  -7   32.74    1.84
   4  -1  -7   34.25    1.44
   4  -1  -6  294.15    3.80
  -4  -1   6   32.29    3.23
  -4  -1   6   59.11    3.43
   4  -1  -6  319.04    4.34
  -4  -1   5  215.65    5.84
   4  -1  -5  203.44    5.36
  -4  -1   4   35.99    1.63
   4  -1  -4   37.04    1.54
  -4  -1   4   30.07    1.49
  -4  -1   4   38.59    1.64
   4  -1  -4   34.85    1.43
   4  -1  -4   37.17    1.60
  -4  -1   3    7.44    0.38
   4  -1  -3    7.70    0.68
  -4  -1   3    8.50    0.74
  -4  -1   3    9.42    0.93
   4  -1  -3    7.91    0.76
   4  -1  -3    8.84    0.85
  -4  -1   3    7.63    0.86
   4  -1  -2  268.27    7.46
   4  -1  -2  302.45    7.58
  -4  -1   2  317.74    7.72
   4  -1  -2  322.49    7.65
   4  -1  -2  267.91    7.68
   4  -1  -2  307.72    7.63
   4  -1  -2  268.55    7.73
  -4  -1   1    5.09    0.56
   4  -1  -1    5.32    0.72
  -4  -1   1    7.69    0.73
  -4  -1   1    5.69    0.74
   4  -1  -1    5.56    0.65
  -4  -1   1    6.97    0.71
   4  -1  -1    5.76    0.68
   4  -1  -1    7.41    0.78
  -4  -1   0  406.95   11.34
   4  -1   0  432.82   11.35
   4  -1   0  460.81   11.51
   4  -1   0  492.19   11.37
  -4  -1   0  519.64   11.58
  -4  -1   0  501.74   11.50
  -4  -1   0  428.45   11.44
   4  -1   0  444.73   11.30
   4  -1   0  420.87   11.47
   4  -1   1  321.95    8.27
   4  -1   1  338.64    8.35
  -4  -1  -1  371.00    8.48
  -4  -1  -1  290.58    8.36
   4  -1   1  342.77    8.30
   4  -1   1  301.69    8.41
   4  -1   1  329.20    8.41
  -4  -1  -1  295.05    8.41
  -4  -1  -2   14.00    1.16
  -4  -1  -2   15.39    0.73
   4  -1   2   12.80    0.86
   4  -1   2   13.46    1.00
   4  -1   2   11.69    1.07
  -4  -1  -3   20.72    1.45
   4  -1   3   24.23    1.31
  -4  -1  -3   23.77    1.01
  -4  -1  -3   24.86    1.47
   4  -1   3   21.83    1.08
  -4  -1  -4  200.30    4.44
   4  -1   4  205.53    3.51
  -4  -1  -5   72.95    2.92
  -4  -1  -5   72.43    2.99
   4  -1   5   75.90    2.86
   4  -1   5   76.66    2.23
  -4  -1  -6    1.82    1.40
  -4  -1  -6    0.62    1.46
   4  -1   6    2.77    1.23
  -4  -1  -7    0.92    1.61
   4  -1   7    1.22    1.35
  -4  -1  -7   -0.35    1.56
   4  -1   8   11.40    1.69
  -4   0  10    4.70    1.70
   4   0 -10    5.20    1.77
  -4   0  10    4.26    1.71
   4   0  -9   37.24    2.43
  -4   0   9   31.62    2.10
  -4   0   9   29.98    2.13
   4   0  -9   30.20    2.61
   4   0  -8    6.80    1.73
   4   0  -8    5.24    1.38
  -4   0   7  142.01    3.66
  -4   0   7  117.80    4.16
  -4   0   7  120.16    4.27
   4   0  -7  144.06    3.86
   4   0  -7  123.70    4.62
  -4   0   6   31.15    1.75
  -4   0   6   27.81    1.70
   4   0  -6   28.57    1.33
   4   0  -5   36.88    1.38
   4   0  -5   36.17    1.64
  -4   0   5   19.66    1.18
  -4   0   5   12.57    1.07
  -4   0   4  120.28    3.29
   4   0  -4  132.42    3.93
  -4   0   4  137.26    3.73
   4   0  -4  123.58    3.62
   4   0  -4  125.68    3.73
  -4   0   4  124.62    3.84
   4   0  -3  495.15   14.05
  -4   0   3  530.96   14.09
  -4   0   3  627.98   14.11
   4   0  -3  570.90   14.04
   4   0  -3  503.54   14.12
   4   0  -3  583.15   14.04
   4   0  -3  595.08   14.11
  -4   0   3  605.48   14.25
  -4   0   2  650.87   16.42
   4   0  -2  582.56   16.63
  -4   0   2  732.57   16.74
   4   0  -2  656.84   16.81
  -4   0   2  684.57   16.78
   4   0  -2  731.80   16.71
   4   0  -2  749.27   16.74
   4   0  -2  747.78   16.76
   4   0  -2  584.74   16.70
  -4   0   1    1.51    0.45
   4   0  -1    1.55    0.42
   4   0  -1    1.93    0.54
  -4   0   1    1.93    0.61
  -4   0   1    1.53    0.54
  -4   0   1    1.54    0.56
   4   0  -1    2.01    0.58
   4   0  -1    3.36    0.65
   4   0  -1    1.48    0.57
  -4   0   0  112.09    2.46
   4   0   0  134.08    2.44
  -4   0   0  153.79    2.78
   4   0   0  131.70    2.60
  -4   0   0  127.12    2.65
  -4   0   0  164.72    2.86
   4   0   0  144.56    2.66
   4   0   0  149.54    2.76
  -4   0   0  151.41    2.74
  -4   0  -1  248.12    7.43
   4   0   1  291.12    7.37
  -4   0  -1  309.69    7.47
  -4   0  -1  258.60    7.42
   4   0   1  308.39    7.43
  -4   0  -1  306.35    7.49
   4   0   1  287.21    7.37
   4   0   1  274.30    7.42
   4   0   1  277.66    7.47
   4   0   2  164.19    3.12
  -4   0  -2  174.27    3.17
  -4   0  -2  167.07    3.18
  -4   0  -2  145.00    3.09
   4   0   2  165.45    3.08
   4   0   2  150.78    2.85
   4   0   2  145.92    3.06
  -4   0  -3   41.65    1.74
  -4   0  -3   45.22    1.22
   4   0   3   44.82    1.49
  -4   0  -4   34.79    1.84
   4   0   4   34.88    1.82
   4   0   4   33.89    1.33
  -4   0  -5   31.34    1.94
  -4   0  -5   28.96    1.88
   4   0   5   29.77    1.77
  -4   0  -6    0.60    1.26
   4   0   6   -0.15    1.20
  -4   0  -7   31.13    2.34
   4   0   7   28.72    2.12
  -4   0  -7   26.53    2.06
   4   1 -10   46.45    2.88
  -4   1  10   43.89    2.62
  -4   1  10   40.07    2.67
   4   1  -9   24.00    2.44
   4   1  -8    3.68    1.41
   4   1  -8    4.53    1.76
  -4   1   8    5.10    1.00
  -4   1   8    4.11    1.28
  -4   1   8    3.95    1.32
  -4   1   7   31.96    1.93
   4   1  -7   34.22    2.10
  -4   1   7   27.13    1.76
   4   1  -7   33.99    1.47
   4   1  -7   27.42    2.08
   4   1  -6  301.89    8.23
  -4   1   6  277.18    7.98
  -4   1   6  272.62    8.02
   4   1  -6  277.50    8.28
   4   1  -5  226.92    4.45
   4   1  -5  197.33    4.59
  -4   1   5   90.31    3.79
  -4   1   5   64.23    3.63
   4   1  -5  207.51    4.14
  -4   1   4   35.01    1.07
   4   1  -4   34.02    1.44
   4   1  -4   32.34    1.47
  -4   1   4    0.02    0.39
   4   1  -4   35.67    1.33
  -4   1   4    0.03    0.39
   4   1  -4   35.03    1.36
  -4   1   4   38.36    1.60
   4   1  -3    8.31    0.88
   4   1  -3    7.47    0.82
   4   1  -3    8.43    0.81
   4   1  -3    7.73    0.84
  -4   1   2  304.60    7.28
  -4   1   2  276.65    7.15
   4   1  -2  274.97    7.46
   4   1  -2  266.22    7.41
  -4   1   2  248.19    7.28
   4   1  -2  307.02    7.33
   4   1  -2  242.44    7.24
  -4   1   1    4.48    0.55
   4   1  -1    4.97    0.75
   4   1  -1    4.02    0.47
  -4   1   1    4.84    0.58
  -4   1   1    4.32    0.62
   4   1  -1    5.16    0.64
   4   1  -1    4.16    0.57
  -4   1   0  430.02   11.55
   4   1   0  488.67   11.47
  -4   1   0  457.88   11.49
  -4   1   0  435.43   11.59
   4   1   0  477.03   11.55
   4   1   0  442.24   11.62
  -4   1   0  517.81   11.66
   4   1   0  420.29   11.41
  -4   1   0  483.95   11.69
   4   1   1  376.36    4.02
  -4   1  -1  315.35    3.79
  -4   1  -1  379.46    3.95
   4   1   1  339.17    3.84
   4   1   1  315.31    3.53
  -4   1  -1  363.57    4.16
  -4   1  -2   14.81    1.04
   4   1   2   18.63    1.14
   4   1   2   14.78    0.95
   4   1   2   19.41    1.11
  -4   1  -2   20.21    1.23
  -4   1  -3   25.05    1.56
  -4   1  -3   24.61    1.36
   4   1   3   23.72    1.44
   4   1   3   23.38    1.27
  -4   1  -4  199.68    6.01
   4   1   4  205.28    6.22
  -4   1  -4  223.61    5.42
   4   1   4  216.99    5.68
  -4   1  -4  202.76    6.38
  -4   1  -5   73.56    2.95
   4   1   5   71.67    3.03
  -4   1  -6    2.01    1.41
  -4   1  -6    1.69    1.27
   4   1   6    1.04    1.28
   4   1   7   -0.21    1.48
  -4   1  -7   -0.02    1.56
   4   2  -9   36.11    2.57
  -4   2   9   30.42    2.18
  -4   2   9   31.72    2.28
   4   2  -9   33.13    2.66
  -4   2   8    3.32    1.35
   4   2  -8    3.20    1.63
   4   2  -8    4.36    1.61
  -4   2   8    3.61    1.33
   4   2  -8    4.75    0.89
   4   2  -7  100.23    3.69
  -4   2   7   74.54    3.09
  -4   2   7   78.64    3.21
   4   2  -7   98.55    2.85
   4   2  -7   79.53    3.50
   4   2  -6   35.92    2.01
  -4   2   6   33.57    1.85
   4   2  -6   38.17    1.60
  -4   2   6   31.72    1.85
   4   2  -6   34.53    2.07
   4   2  -5    6.76    0.97
  -4   2   5   -0.07    0.31
   4   2  -5   40.40    1.58
  -4   2   5   39.53    1.50
   4   2  -5   39.09    1.82
  -4   2   5   -0.02    0.31
  -4   2   4   61.27    1.58
   4   2  -4   58.44    2.05
   4   2  -4   51.72    1.75
   4   2  -4   57.93    1.62
  -4   2   4   52.01    1.67
  -4   2   4   -0.02    0.64
   4   2  -4   62.01    1.73
  -4   2   4   -0.02    0.64
  -4   2   4   61.86    2.06
  -4   2   3  587.56    5.51
   4   2  -3  524.94    5.25
  -4   2   3  518.38    5.30
   4   2  -3  624.67    5.20
  -4   2   3  568.85    4.40
   4   2  -3  633.64    5.25
  -4   2   3  516.20    5.41
  -4   2   2  437.66    4.74
   4   2  -2  428.36    3.70
   4   2  -2  386.44    4.78
  -4   2   2  408.44    4.89
   4   2  -2  455.30    4.71
   4   2  -1   67.39    2.34
  -4   2   1   71.91    2.35
  -4   2   1   66.64    2.23
   4   2  -1   67.86    2.39
  -4   2   1   65.94    2.28
   4   2  -1   75.05    2.30
   4   2  -1   70.24    2.20
  -4   2   1   72.09    2.43
   4   2   0   63.19    1.69
  -4   2   0   53.28    1.71
   4   2   0   56.19    1.55
  -4   2   0   56.40    1.75
   4   2   0   61.35    1.82
  -4   2   0   67.69    1.82
  -4   2   0   54.59    1.85
  -4   2   0   68.31    2.02
   4   2   1  351.37    3.49
  -4   2  -1  302.77    3.22
   4   2   1  363.53    3.76
  -4   2  -1  377.32    4.13
  -4   2  -1  310.46    3.67
   4   2   2   -0.10    0.21
  -4   2  -2   -0.02    0.19
  -4   2  -3   41.31    2.08
  -4   2  -3   40.92    1.74
   4   2   3   45.38    2.07
  -4   2  -4   36.31    2.10
  -4   2  -4   35.53    1.75
   4   2   4   33.77    1.94
   4   2   4   37.76    1.66
  -4   2  -5   21.07    1.45
   4   2   5   21.60    1.69
   4   2   5   25.40    1.32
  -4   2  -5   26.86    1.03
  -4   2  -5   24.47    2.05
  -4   2  -6    0.61    1.53
  -4   2  -6    0.84    1.21
   4   2   7   27.06    2.24
   4   3 -10   31.41    2.29
   4   3  -9   21.47    2.65
  -4   3   9   17.57    1.83
  -4   3   9   15.16    1.94
   4   3  -9   16.05    1.68
   4   3  -9   17.71    2.33
   4   3  -8   23.45    2.27
  -4   3   8   17.91    1.73
  -4   3   8   19.41    1.82
   4   3  -8   20.09    1.64
   4   3  -8   20.73    2.06
   4   3  -7   26.81    2.10
   4   3  -7   30.14    2.15
  -4   3   7   23.39    1.76
   4   3  -7   28.80    1.75
   4   3  -7   30.92    1.56
  -4   3   7   25.87    1.90
   4   3  -6  173.92    5.30
  -4   3   6  151.33    4.84
   4   3  -6  154.48    4.71
  -4   3   6  162.23    4.70
  -4   3   6  160.10    4.95
   4   3  -6  159.16    5.15
   4   3  -5  132.79    4.30
  -4   3   5  114.17    3.90
  -4   3   5  123.18    3.80
  -4   3   5  120.25    3.99
   4   3  -5  126.27    4.08
   4   3  -5  133.48    3.82
   4   3  -4  113.32    2.75
  -4   3   4  117.22    2.90
  -4   3   4  121.01    3.01
   4   3  -3   12.55    0.95
   4   3  -3   17.61    1.00
  -4   3   3   15.06    0.95
   4   3  -3   14.73    0.94
  -4   3   3   14.35    1.11
  -4   3   3   14.53    1.12
   4   3  -2  161.39    2.06
   4   3  -2  145.53    2.79
  -4   3   2  167.07    2.92
  -4   3   2  175.34    2.26
   4   3  -2  159.94    2.63
  -4   3   2  150.20    2.82
   4   3  -2   -0.02    1.40
   4   3  -2  154.23    2.27
  -4   3   2    0.01    1.40
   4   3  -1   20.86    0.91
  -4   3   1   19.08    1.17
  -4   3   1   18.14    1.08
  -4   3   1   20.44    0.85
   4   3  -1   24.85    1.11
  -4   3   1   19.92    1.09
   4   3  -1   18.20    0.70
   4   3  -1   18.90    1.05
  -4   3   1   21.22    1.17
   4   3  -1   19.69    1.15
  -4   3   0  282.97    3.91
   4   3   0  284.11    3.60
  -4   3   0  254.97    3.43
   4   3   0  249.25    3.29
   4   3   0  242.24    3.61
  -4   3   0  268.33    3.80
  -4   3   0  304.17    4.21
   4   3   1  217.96    2.96
  -4   3  -1  188.47    2.90
  -4   3  -1  213.60    2.67
  -4   3  -2   82.22    2.61
   4   3   2   74.94    2.58
  -4   3  -3   19.72    1.46
  -4   3  -3   19.31    1.37
  -4   3  -3   18.94    1.17
  -4   3  -3   22.91    1.23
   4   3   3   21.34    1.53
  -4   3  -4  103.66    3.49
  -4   3  -4  105.21    3.00
   4   3   4  100.73    3.34
  -4   3  -5   59.40    2.93
  -4   3  -5   51.03    2.09
   4   3   5   49.20    2.52
   4   3   5   62.48    2.18
  -4   3  -6    9.21    1.75
  -4   3  -6   10.76    1.95
  -4   3  -6    8.89    1.31
   4   3   6    8.30    1.66
   4   4  -9   21.10    2.45
   4   4  -9   17.38    1.64
  -4   4   8    2.76    1.46
   4   4  -8    2.71    1.71
   4   4  -8    3.25    1.29
   4   4  -7   44.32    2.63
   4   4  -7   37.02    1.89
  -4   4   7   41.13    1.92
  -4   4   7   35.65    2.23
   4   4  -6   17.34    1.30
  -4   4   6   18.37    1.27
   4   4  -6   12.16    1.23
   4   4  -6   14.92    1.80
  -4   4   6   13.11    1.46
  -4   4   6   13.00    1.47
   4   4  -5   54.82    1.91
   4   4  -5   71.82    2.73
  -4   4   5   58.32    2.15
  -4   4   5   63.62    2.35
   4   4  -5   69.68    1.99
  -4   4   4   33.14    1.63
  -4   4   4   29.16    1.61
   4   4  -4   30.44    1.30
   4   4  -4   33.08    1.38
  -4   4   4   27.23    1.60
   4   4  -3  303.52    2.65
  -4   4   3  344.87    4.53
   4   4  -3  326.66    3.86
  -4   4   3  308.06    4.43
   4   4  -3   -0.02    2.12
   4   4  -3  403.52    4.55
  -4   4   3  311.90    4.53
  -4   4   3   -0.40    2.13
   4   4  -2  195.48    2.65
  -4   4   2  182.07    3.45
  -4   4   2  211.23    2.45
  -4   4   2  147.75    3.09
   4   4  -2   -0.08    1.82
  -4   4   2  190.99    3.63
   4   4  -2  150.17    3.18
   4   4  -2  159.37    2.26
   4   4  -2  148.31    3.04
  -4   4   2   -0.05    1.81
   4   4  -1  159.27    3.47
  -4   4   1  147.43    3.86
   4   4  -1  126.64    3.82
  -4   4   1  144.55    3.18
   4   4  -1  140.35    3.54
  -4   4   1  111.61    3.36
   4   4  -1  115.22    3.46
   4   4  -1  121.16    3.53
   4   4   0   63.15    1.77
   4   4   0   66.03    1.95
  -4   4   0   68.72    1.99
  -4   4  -1  170.98    2.64
   4   4   1  188.18    3.38
  -4   4  -1  195.07    3.35
   4   4   1  176.67    2.95
  -4   4  -2   29.90    1.77
  -4   4  -2   29.07    1.31
   4   4   2   31.99    1.81
  -4   4  -3   38.89    2.15
  -4   4  -3   37.62    1.55
   4   4   3   41.64    2.19
  -4   4  -3   41.33    1.62
  -4   4  -3   44.48    1.96
  -4   4  -4   23.68    1.88
  -4   4  -4   22.83    1.22
   4   4   4   23.48    1.72
  -4   4  -4   19.33    0.62
  -4   4  -4   25.22    1.51
  -4   4  -5   15.96    1.89
  -4   4  -5   14.33    1.18
   4   4   5   14.61    1.67
  -4   4  -5   12.53    0.60
  -4   4  -6    4.63    1.73
   4   4   6    3.36    1.67
   4   5  -9    8.94    2.22
   4   5  -8   25.81    1.61
   4   5  -8   30.04    2.57
   4   5  -8   28.12    2.44
  -4   5   8   28.23    1.81
  -4   5   8   25.66    2.18
  -4   5   7   16.77    1.53
   4   5  -7   12.97    1.22
   4   5  -7   17.79    2.14
  -4   5   7   14.06    1.74
   4   5  -7   16.63    1.83
   4   5  -6   83.71    2.69
   4   5  -6   63.78    2.45
   4   5  -6   81.41    3.44
  -4   5   6   74.65    2.74
  -4   5   6   69.99    3.02
   4   5  -6   70.10    3.01
   4   5  -5   19.23    1.23
   4   5  -5   25.59    1.96
  -4   5   5   19.22    1.54
  -4   5   5   21.31    1.47
  -4   5   5   21.74    1.66
   4   5  -5   23.09    1.25
   4   5  -5   19.76    1.55
   4   5  -4   99.83    3.40
   4   5  -4  121.28    4.15
   4   5  -4  118.42    3.39
  -4   5   4  109.88    3.70
   4   5  -4  123.03    3.44
  -4   5   4  108.33    3.75
  -4   5   4  111.68    3.63
   4   5  -3   15.88    1.57
   4   5  -3   16.32    1.04
  -4   5   3   17.01    1.35
  -4   5   3   16.75    1.38
  -4   5   3   15.64    1.26
   4   5  -3   14.57    1.08
   4   5  -3   19.14    0.79
   4   5  -2   78.91    2.56
   4   5  -2   88.37    2.06
   4   5  -2   83.93    2.37
   4   5  -1   18.78    1.50
  -4   5   1   16.01    1.13
   4   5  -1   18.69    1.25
  -4   5   1   20.08    1.34
   4   5  -1   22.50    1.20
  -4   5   0   13.54    1.37
  -4   5   0  105.09    2.08
   4   5   0  110.91    2.54
   4   5   0   -1.43    0.94
  -4   5   0  111.49    2.62
   4   5   0  146.44    2.64
  -4   5  -1   41.98    2.03
  -4   5  -1   40.31    1.56
   4   5   1   43.91    2.02
  -4   5  -1   45.59    2.02
  -4   5  -2   82.88    3.17
  -4   5  -2   86.02    2.61
  -4   5  -3   13.76    1.58
  -4   5  -3   14.07    0.95
   4   5   3   14.40    1.57
  -4   5  -3   11.85    0.49
  -4   5  -3   15.15    1.50
  -4   5  -4   51.34    2.50
  -4   5  -4   45.30    1.66
   4   5   4   45.26    2.33
  -4   5  -4   41.79    1.26
  -4   5  -4   52.15    2.27
  -4   5  -5   19.26    2.00
  -4   5  -5   18.07    1.09
   4   5   5   15.34    1.79
  -4   6   8    1.90    1.58
   4   6  -8    4.22    1.92
   4   6  -8    2.56    2.06
  -4   6   8    4.00    1.36
   4   6  -7   17.09    1.27
   4   6  -7   21.64    2.32
  -4   6   7   16.76    1.63
  -4   6   7   19.16    1.94
   4   6  -7   17.42    1.90
   4   6  -6    2.57    0.86
  -4   6   6    3.75    1.51
   4   6  -6    3.75    1.28
   4   6  -6    3.60    0.93
   4   6  -6    2.48    1.61
  -4   6   6    2.84    1.17
   4   6  -5   57.33    2.87
  -4   6   5   47.02    2.35
   4   6  -5   52.53    1.85
  -4   6   5   55.11    2.52
   4   6  -5   54.28    2.38
   4   6  -5   44.58    1.88
   4   6  -4   17.97    0.67
   4   6  -4   22.93    1.92
   4   6  -4   21.54    1.19
  -4   6   4   16.86    1.50
   4   6  -4   20.61    0.94
   4   6  -4   20.49    1.23
  -4   6   4   21.09    1.59
  -4   6   4   19.59    1.47
   4   6  -4   18.07    1.18
   4   6  -3   87.44    3.38
   4   6  -3   89.22    2.67
   4   6  -3   79.39    3.07
   4   6  -3   76.60    2.63
  -4   6   3   79.52    2.93
   4   6  -2   28.59    1.88
   4   6  -2   32.80    1.47
  -4   6   2   28.66    1.65
   4   6  -2   28.53    1.43
   4   6  -2   25.24    1.61
  -4   6   2   31.30    1.65
  -4   6   2   27.70    1.70
   4   6  -1  162.37    4.70
  -4   6   1  146.41    4.14
  -4   6   1  134.66    3.41
   4   6  -1  148.95    4.43
  -4   6   1  158.32    4.44
  -4   6   0   28.31    1.80
  -4   6   0   31.16    1.39
   4   6   0   32.40    1.72
   4   6   0   29.50    1.70
  -4   6   0   33.45    1.82
  -4   6  -1   52.70    2.47
  -4   6  -1   54.02    1.83
   4   6   1   59.46    2.54
   4   6   1   51.36    2.28
  -4   6  -1   54.56    2.33
  -4   6  -2    6.68    1.36
  -4   6  -2    7.89    0.71
   4   6   2    8.51    1.46
  -4   6  -2    7.35    0.59
  -4   6  -2    8.68    1.34
  -4   6  -3   34.35    2.21
  -4   6  -3   32.05    1.20
   4   6   3   29.84    2.02
   4   6   3   30.61    1.90
  -4   6  -3   29.50    1.08
  -4   6  -3   32.68    1.94
  -4   6  -4   13.44    1.92
  -4   6  -4   13.25    0.76
   4   6   4   13.35    1.76
  -4   6  -4   15.78    1.59
  -4   6  -4   13.19    0.71
   4   6   5   12.84    1.93
  -4   6  -5   12.59    1.54
  -4   7   8   19.35    1.88
   4   7  -8   17.40    2.33
  -4   7   7    9.04    1.71
   4   7  -7    8.63    1.93
   4   7  -7    9.55    2.10
  -4   7   7    8.15    1.59
   4   7  -6   26.46    2.48
   4   7  -6   20.27    1.17
  -4   7   6   21.14    1.80
  -4   7   6   22.78    2.06
   4   7  -6   19.59    1.90
   4   7  -5    4.18    1.26
   4   7  -5    3.21    0.83
   4   7  -5    3.68    0.79
   4   7  -5    3.07    1.69
   4   7  -5    2.35    1.43
   4   7  -5    3.68    0.79
   4   7  -4   49.45    2.70
   4   7  -4   51.22    1.82
  -4   7   4   47.11    2.28
   4   7  -4   43.00    1.77
   4   7  -4   42.00    2.43
   4   7  -4   42.23    1.47
   4   7  -4   53.96    1.92
  -4   7   4   45.53    2.34
  -4   7   4   44.97    2.24
  -4   7   3   17.96    1.52
   4   7  -3   15.46    1.71
   4   7  -3   18.32    1.17
  -4   7   3   18.04    1.55
   4   7  -3   15.48    1.16
   4   7  -3   15.69    1.59
  -4   7   3   15.13    1.52
   4   7  -2   39.84    2.34
  -4   7   2   37.70    1.85
   4   7  -2   37.44    1.75
   4   7  -2   39.89    2.15
  -4   7   2   39.47    1.94
  -4   7   2   33.36    2.10
   4   7  -1   11.35    1.55
  -4   7   1   11.10    1.11
   4   7  -1   11.16    1.21
   4   7  -1   11.50    1.33
  -4   7   1   10.15    1.38
  -4   7   0   28.47    1.92
  -4   7   0   25.38    1.27
   4   7   0   29.41    1.78
  -4   7   0   26.38    1.02
   4   7   0   27.37    1.84
  -4   7   0   28.92    1.86
  -4   7  -1    6.03    1.37
  -4   7  -1    5.27    0.67
   4   7   1    6.16    1.35
  -4   7  -1    5.19    1.31
  -4   7  -2   37.78    2.27
  -4   7  -2   42.58    1.35
   4   7   2   36.78    2.18
  -4   7  -2   39.73    1.50
   4   7   2   38.32    2.16
  -4   7  -3   17.70    1.91
   4   7   3   18.24    1.80
  -4   7  -3   19.39    1.84
  -4   7  -3   18.90    0.99
  -4   7  -4   15.50    2.13
   4   7   4   12.25    1.86
  -4   7  -4   13.57    1.74
  -4   7  -5    2.35    1.91
  -4   7  -5    4.56    1.65
   4   8  -8    0.88    2.04
  -4   8   8    0.27    1.53
   4   8  -7    4.65    1.88
  -4   8   7    4.65    1.56
  -4   8   6    1.37    1.67
   4   8  -6    1.81    1.43
   4   8  -6    0.57    1.94
  -4   8   6    0.48    1.55
   4   8  -6    0.85    1.65
  -4   8   6    0.81    1.47
   4   8  -5   34.01    2.71
  -4   8   5   28.17    1.99
   4   8  -5   30.92    1.36
   4   8  -5   26.08    2.14
  -4   8   5   28.24    2.17
   4   8  -5   28.80    1.86
   4   8  -4   12.59    1.94
  -4   8   4   10.95    1.56
   4   8  -4   12.10    1.04
  -4   8   4   10.83    1.65
   4   8  -4    9.43    1.78
  -4   8   4   11.68    1.58
   4   8  -3   14.54    1.66
   4   8  -3   17.08    1.17
  -4   8   3   15.11    1.62
   4   8  -3   15.76    1.21
  -4   8   3   15.35    1.61
  -4   8   3   13.16    1.64
  -4   8   2    0.68    1.03
   4   8  -2   -0.68    1.33
  -4   8   2    0.20    1.02
  -4   8   2    0.21    1.36
   4   8  -2    0.02    1.03
   4   8  -1   80.72    2.97
  -4   8   1   75.59    2.65
   4   8  -1   74.62    3.16
  -4   8   1   83.35    3.28
  -4   8   0   14.50    1.77
   4   8   0   15.31    1.57
  -4   8   0   14.42    0.69
  -4   8   0   14.55    1.08
   4   8   0   16.48    1.76
  -4   8   0   15.57    1.68
  -4   8  -1   11.26    1.60
  -4   8  -1   13.19    0.77
   4   8   1   11.26    1.42
  -4   8  -1   13.12    0.98
   4   8   1   11.38    1.65
  -4   8  -2    1.80    1.43
  -4   8  -2    2.30    1.04
  -4   8  -2    1.97    0.87
   4   8   2    1.63    1.50
  -4   8  -2    1.78    1.35
  -4   8  -3   18.55    2.13
  -4   8  -3   18.91    1.13
  -4   8  -3   18.41    1.96
  -4   8  -4    3.82    1.70
  -4   9   6    5.16    1.79
  -4   9   6    4.37    1.69
  -4   9   6    5.07    1.73
  -4   9   5    0.26    1.46
   4   9  -5    1.11    1.74
  -4   9   5    0.41    1.67
   4   9  -4   23.88    2.41
   4   9  -4   18.94    1.30
  -4   9   4   19.92    1.86
   4   9  -4   17.60    1.97
  -4   9   4   22.94    2.15
  -4   9   4   22.66    2.11
   4   9  -3    4.29    1.87
  -4   9   3    3.28    1.46
   4   9  -3    3.87    1.67
   4   9  -3    3.68    1.08
  -4   9   3    3.34    1.43
  -4   9   3    3.20    1.58
   4   9  -2   12.72    2.04
   4   9  -2   12.18    1.30
  -4   9   2   12.24    1.36
   4   9  -2   12.00    1.68
  -4   9   2   14.52    1.74
  -4   9   2   11.88    1.79
  -4   9   1    4.65    0.98
   4   9  -1    4.52    1.23
   4   9  -1    4.64    1.51
  -4   9   1    4.76    1.55
  -4   9   0    6.56    1.71
  -4   9   0    4.76    0.84
   4   9   0    5.81    1.43
   4   9   0    6.65    1.64
  -4   9   0    6.59    1.70
  -4   9  -1    1.90    1.61
   4   9   1    1.31    1.32
   4   9   1   -0.17    1.59
  -4   9  -2   22.02    2.21
   4   9   2   18.48    1.95
  -4   9  -2   20.57    1.46
  -4   9  -2   21.68    1.46
   4   9   2   20.51    2.11
  -4   9  -2   21.22    2.05
   4   9   3    6.75    1.92
  -4   9  -3    6.14    1.26
  -4   9  -3    6.90    1.88
  -4   9  -4    2.36    1.52
  -4   9  -4    3.31    1.91
  -4   9  -5   -0.29    1.66
  -4  10   5   11.08    1.95
  -4  10   5    9.16    1.98
   4  10  -4    5.20    2.16
  -4  10   4    4.73    1.81
  -4  10   4    6.25    1.70
   4  10  -3    4.54    1.97
  -4  10   3    4.24    1.43
  -4  10   3    4.35    1.55
   4  10  -2   -0.25    1.74
  -4  10   2    0.72    1.17
   4  10  -2    0.63    1.11
   4  10  -2    0.06    1.78
  -4  10   2    0.03    1.64
   4  10  -1   18.13    1.69
   4  10  -1   17.10    2.15
  -4  10   1   20.42    2.17
   4  10   0    8.08    1.69
  -4  10   0    6.88    1.91
   4  10   1    5.10    1.71
   4  10   2    0.17    1.60
  -4  11   4    5.06    1.79
  -4  11   4    4.21    1.91
   4  11   0    2.07    1.52
   4  11   1    0.51    1.70
  -5 -11   2    2.16    1.76
  -5 -11   0    4.16    1.72
  -5 -10   3   11.40    1.64
   5 -10  -3   13.26    1.90
   5 -10  -3    9.85    2.21
  -5 -10   2   -0.11    1.51
  -5 -10   2    0.69    1.28
   5 -10  -2    0.03    1.74
  -5 -10   1    0.12    1.61
  -5 -10   1    1.05    1.38
   5 -10  -1   -0.40    1.76
  -5 -10   0    3.79    1.89
  -5 -10   0    5.43    1.59
  -5 -10  -1    2.78    1.71
   5  -9  -5    1.26    2.03
   5  -9  -4    4.59    1.97
  -5  -9   4    4.64    1.25
  -5  -9   4    7.11    1.04
   5  -9  -4    2.35    1.79
  -5  -9   3    5.33    1.44
  -5  -9   3    6.77    1.34
   5  -9  -3    7.96    1.64
   5  -9  -3    3.32    1.87
  -5  -9   2    8.74    1.54
  -5  -9   2   10.46    1.43
   5  -9  -2   11.63    1.56
  -5  -9   1    6.30    1.65
  -5  -9   1    6.18    1.42
  -5  -9   0   12.97    1.87
  -5  -9   0   13.62    1.70
  -5  -9  -1    1.80    1.70
  -5  -9  -1    1.44    1.49
  -5  -9  -2    1.22    1.63
   5  -8  -7    7.85    2.03
   5  -8  -6    1.61    1.81
   5  -8  -5    3.34    1.90
  -5  -8   5    4.82    0.87
   5  -8  -4   24.10    2.27
  -5  -8   4   22.95    1.44
   5  -8  -4   20.03    2.32
  -5  -8   3   25.57    1.61
  -5  -8   3   24.17    1.60
   5  -8  -3   21.83    2.17
   5  -8  -2    5.66    1.36
  -5  -8   2    4.57    1.31
  -5  -8   2    4.33    1.23
   5  -8  -2    6.12    1.69
  -5  -8   1    2.12    1.35
  -5  -8   1    2.63    1.40
   5  -8  -1    2.17    1.53
   5  -8   0   22.99    1.42
  -5  -8   0   19.42    1.84
  -5  -8   0   21.61    1.84
   5  -8   0   21.64    2.13
  -5  -8  -1   18.59    1.78
   5  -8   1   17.78    2.02
   5  -8   1   20.00    1.14
  -5  -8  -2    1.42    1.68
   5  -8   2    1.30    1.67
   5  -7  -8    2.35    1.75
   5  -7  -7   14.60    1.98
   5  -7  -6   18.15    1.99
  -5  -7   6    8.93    0.91
   5  -7  -5    9.75    1.74
  -5  -7   5    8.03    0.74
   5  -7  -5    9.49    1.87
   5  -7  -4   15.37    2.05
  -5  -7   4   15.53    1.16
   5  -7  -4   11.99    1.93
  -5  -7   3   28.11    1.61
  -5  -7   3   29.13    1.69
   5  -7  -3   24.55    2.17
  -5  -7   2   17.81    1.48
  -5  -7   2   16.82    1.45
   5  -7  -2   22.14    1.62
   5  -7  -2   18.37    1.93
  -5  -7   1    6.88    1.32
  -5  -7   1    7.12    1.18
   5  -7  -1    9.47    1.05
   5  -7  -1    8.03    1.49
   5  -7   0   51.71    1.94
   5  -7   0   49.66    2.01
   5  -7   1   11.30    1.01
   5  -7   1   12.13    1.75
   5  -7   1   11.77    1.04
  -5  -7  -2    8.24    1.61
   5  -7   2    8.42    0.83
   5  -7   2    9.36    1.70
  -5  -7  -3   13.02    1.91
   5  -6  -9    1.47    1.55
   5  -6  -8    6.58    1.72
  -5  -6   8    5.98    1.18
   5  -6  -7   15.16    1.79
  -5  -6   7   17.71    1.34
   5  -6  -6   13.27    1.68
  -5  -6   5   21.33    0.84
   5  -6  -5   23.62    1.86
  -5  -6   4   31.87    1.24
   5  -6  -4   31.35    2.16
  -5  -6   3   52.88    1.87
   5  -6  -3   56.02    2.74
  -5  -6   2   37.47    1.74
  -5  -6   2   35.84    1.80
   5  -6  -2   39.78    1.53
   5  -6  -2   35.19    2.18
   5  -6  -1   34.51    1.75
   5  -6  -1   32.12    1.37
   5  -6  -1   29.86    2.08
   5  -6   0   56.18    2.08
   5  -6   0   55.61    2.13
  -5  -6   0   48.40    2.33
   5  -6   0   48.78    2.55
  -5  -6  -1   39.24    2.19
   5  -6   1   40.34    1.64
   5  -6   1   34.22    2.23
   5  -6   1   36.99    1.67
  -5  -6  -2    7.82    1.51
   5  -6   2   10.44    0.92
   5  -6   2    7.79    1.61
   5  -6   2    8.24    0.85
  -5  -6  -3   11.51    1.66
  -5  -6  -3   10.36    0.70
  -5  -6  -4    3.11    1.59
   5  -5  -9   13.99    1.71
  -5  -5   9   13.16    1.54
   5  -5  -8   14.64    1.69
  -5  -5   8   14.10    1.42
   5  -5  -7   28.91    1.94
  -5  -5   7   25.70    1.66
   5  -5  -6   21.01    1.67
   5  -5  -6   21.13    0.83
   5  -5  -5   47.33    2.09
  -5  -5   5   -2.67    0.54
  -5  -5   4   44.29    1.78
  -5  -5   4   40.19    1.48
  -5  -5   3   41.69    1.59
  -5  -5   3   41.57    1.69
   5  -5  -3   42.71    1.76
   5  -5  -3   42.81    2.43
  -5  -5   2   44.94    1.49
   5  -5  -2   46.27    1.70
   5  -5  -2   40.14    2.30
  -5  -5   1   15.46    0.74
  -5  -5   1   17.03    1.38
   5  -5  -1   19.27    1.42
   5  -5  -1   17.69    0.89
   5  -5  -1   13.56    1.48
   5  -5  -1   19.86    1.27
   5  -5   0   48.54    1.93
  -5  -5   0   46.04    2.20
   5  -5   0   44.61    2.29
   5  -5   0   48.15    1.81
  -5  -5   0   41.06    1.32
  -5  -5  -1   48.16    1.46
  -5  -5  -1   46.04    2.24
   5  -5   1   48.78    1.87
   5  -5   1   44.48    2.40
   5  -5   1   50.42    1.94
  -5  -5  -2   58.82    1.95
  -5  -5  -2   62.56    2.89
   5  -5   2   65.40    2.29
   5  -5   2   61.03    2.85
   5  -5   2   61.97    2.20
   5  -5   2   63.79    2.20
  -5  -5  -3   14.48    1.02
  -5  -5  -3   16.41    1.81
   5  -5   3   15.90    1.17
   5  -5   3   17.39    1.19
  -5  -5  -4   19.08    1.29
  -5  -5  -4   19.39    1.99
   5  -5   4   19.40    1.21
  -5  -5  -5    7.25    1.23
  -5  -4   9    1.25    1.31
   5  -4  -9    2.81    1.30
   5  -4  -8    7.25    1.25
  -5  -4   8    8.74    1.42
   5  -4  -7   26.13    1.64
   5  -4  -7   30.19    1.52
  -5  -4   7   24.71    1.67
   5  -4  -6   63.63    2.49
   5  -4  -6   65.39    2.16
  -5  -4   6   57.23    2.38
   5  -4  -5   65.43    2.18
   5  -4  -5   60.37    1.43
  -5  -4   4   20.80    1.23
  -5  -4   4   17.67    0.83
  -5  -4   3   90.85    2.83
   5  -4  -3   91.12    2.81
   5  -4  -3   81.93    3.48
  -5  -4   2  160.67    2.51
   5  -4  -2  165.39    2.45
   5  -4  -2  158.72    3.68
  -5  -4   1  157.05    4.83
   5  -4  -1  166.87    4.28
   5  -4  -1  156.87    5.17
  -5  -4   1  165.63    4.47
   5  -4   0   79.36    2.68
  -5  -4   0   71.95    2.79
   5  -4   0   78.43    2.54
   5  -4   0   80.42    2.58
  -5  -4  -1   33.55    1.89
   5  -4   1   33.04    1.55
   5  -4   1   29.01    1.83
   5  -4   1   35.46    1.54
  -5  -4  -1   37.23    1.35
   5  -4   1   33.27    1.57
  -5  -4  -2   17.71    1.65
   5  -4   2   18.05    1.18
   5  -4   2   17.95    1.62
   5  -4   2   22.24    1.46
   5  -4   2   17.72    1.19
  -5  -4  -2   22.73    1.23
  -5  -4  -3   34.14    1.62
  -5  -4  -3   37.28    2.28
   5  -4   3   40.41    1.76
  -5  -4  -4   15.53    1.72
   5  -4   4    9.27    1.00
  -5  -4  -5   17.83    1.58
  -5  -4  -5   17.05    1.95
   5  -4   5   20.82    1.35
  -5  -4  -6    1.25    1.42
  -5  -3  10    5.84    1.60
   5  -3 -10    5.55    1.68
   5  -3  -9   47.88    2.46
  -5  -3   9   39.38    2.28
   5  -3  -8   62.19    2.36
  -5  -3   8   57.83    2.62
   5  -3  -7   18.53    1.31
   5  -3  -7   21.38    1.45
   5  -3  -6   22.13    1.32
  -5  -3   6   18.94    1.46
   5  -3  -5  112.69    3.31
  -5  -3   4  107.68    2.43
   5  -3  -4   94.46    1.95
  -5  -3   3   37.88    1.70
   5  -3  -3   41.55    2.16
  -5  -3   3   42.20    1.67
   5  -3  -2   81.90    2.41
   5  -3  -2   72.88    1.72
   5  -3  -2   71.37    2.56
   5  -3  -2   80.90    2.24
  -5  -3   2   78.20    2.04
   5  -3  -1   17.08    1.21
   5  -3  -1   15.78    0.65
   5  -3  -1   17.99    1.48
  -5  -3   0   25.17    1.43
   5  -3   0   28.03    1.38
   5  -3   0   25.85    1.67
   5  -3   0   27.62    1.39
  -5  -3  -1  117.40    4.02
   5  -3   1  109.97    3.99
  -5  -3  -2  175.29    5.53
   5  -3   2  169.03    5.54
   5  -3   2  179.32    5.20
  -5  -3  -3   16.32    1.69
  -5  -3  -3   20.42    1.18
  -5  -3  -4   11.69    1.19
  -5  -3  -4   11.44    1.61
   5  -3   4   15.74    1.29
  -5  -3  -5   20.87    1.74
  -5  -3  -5   20.02    1.98
   5  -3   5   20.81    1.54
  -5  -3  -6   20.99    1.98
   5  -3   6   26.25    1.86
  -5  -3  -7    1.15    1.64
  -5  -2  10    2.16    1.59
   5  -2 -10    2.62    1.77
  -5  -2   9    0.93    1.40
   5  -2  -9    0.71    1.46
   5  -2  -8   10.77    1.52
  -5  -2   8   10.30    1.48
  -5  -2   7   15.38    1.40
   5  -2  -7   -3.13    0.59
   5  -2  -6  127.79    4.00
   5  -2  -5  162.56    3.80
  -5  -2   5   81.50    3.41
  -5  -2   4   18.66    0.75
   5  -2  -4   19.29    1.09
  -5  -2   3   37.49    1.47
   5  -2  -3   34.12    1.76
  -5  -2   2  424.45    4.87
   5  -2  -2  355.78    4.66
   5  -2  -2  387.98    4.31
  -5  -2   2  415.07    4.53
   5  -2  -2  333.73    4.82
   5  -2  -2  389.54    4.38
   5  -2  -1  495.10    4.44
   5  -2  -1  495.75    4.47
   5  -2   0   34.58    1.51
   5  -2   0   30.29    1.53
   5  -2   0   32.75    1.36
  -5  -2  -1   28.83    1.59
   5  -2   1   30.01    1.39
  -5  -2  -1   29.04    1.38
   5  -2   1   29.28    1.52
  -5  -2  -2   44.93    2.18
   5  -2   2   42.78    2.09
   5  -2   2   47.17    1.87
  -5  -2  -3   46.45    2.30
   5  -2   3   48.51    1.80
  -5  -2  -4   26.42    1.67
  -5  -2  -4   29.24    2.03
   5  -2   4   32.48    1.85
  -5  -2  -4   35.69    1.50
   5  -2   4   27.79    1.36
  -5  -2  -5   29.32    1.92
  -5  -2  -5   26.49    2.09
   5  -2   5   27.79    1.78
  -5  -2  -6    0.51    1.38
   5  -2   6   -0.71    1.31
  -5  -2  -7    0.29    1.81
   5  -2   7    1.29    1.40
  -5  -1  10    1.06    1.58
   5  -1 -10    1.13    1.79
  -5  -1  10    1.78    1.64
  -5  -1   9   77.79    3.35
  -5  -1   9   83.12    3.48
   5  -1  -8   96.91    3.64
  -5  -1   8   89.44    3.52
  -5  -1   8   98.09    3.77
   5  -1  -7    6.65    1.24
   5  -1  -6    9.29    1.16
  -5  -1   6    6.96    1.18
   5  -1  -5  181.48    5.21
  -5  -1   5  172.11    5.19
  -5  -1   4  195.38    2.22
   5  -1  -4    0.04    1.69
  -5  -1   4  196.87    2.47
  -5  -1   4  214.74    3.50
  -5  -1   4   -0.47    1.70
  -5  -1   4  199.08    3.53
  -5  -1   3   60.45    1.32
  -5  -1   3   77.57    2.06
  -5  -1   3    0.02    0.63
   5  -1  -3   -0.02    0.63
   5  -1  -3   68.96    1.87
  -5  -1   3   72.02    2.03
  -5  -1   2   44.56    1.60
  -5  -1   2   44.27    1.61
   5  -1  -2   40.58    1.51
  -5  -1   2   -0.02    0.44
   5  -1  -2   34.43    1.59
   5  -1  -2   41.97    1.54
   5  -1  -2   41.37    1.47
   5  -1  -2   -0.02    0.44
   5  -1  -1    0.67    0.69
  -5  -1   1    0.07    0.08
  -5  -1   1    0.14    0.72
  -5  -1   1    0.17    0.81
   5  -1  -1    1.01    0.70
   5  -1  -1    0.84    0.71
   5  -1  -1    0.01    0.75
   5  -1  -1    0.58    0.79
   5  -1   0   14.36    1.11
   5  -1   0   15.42    1.00
  -5  -1   0   16.17    1.11
   5  -1   0   15.62    1.02
   5  -1   0   13.06    1.13
   5  -1   0   14.87    1.05
  -5  -1   0   16.36    1.00
  -5  -1   0   13.47    1.03
  -5  -1  -1  216.11    4.91
   5  -1   1  224.40    4.93
  -5  -1  -2  276.82    7.84
   5  -1   2  271.26    7.77
   5  -1   2  272.91    7.41
  -5  -1  -3   16.49    1.50
   5  -1   3   17.12    1.13
  -5  -1  -4    1.46    1.31
  -5  -1  -4    1.56    0.66
   5  -1   4    1.18    1.17
   5  -1   4    0.85    0.75
  -5  -1  -5   24.61    1.88
   5  -1   5   24.89    1.76
  -5  -1  -6   52.12    2.79
  -5  -1  -6   46.65    2.73
   5  -1   6   47.29    2.43
   5  -1   7    0.15    1.56
  -5   0  10    0.29    1.65
   5   0 -10   -0.23    1.83
  -5   0  10    0.03    1.55
  -5   0   9    1.17    1.44
   5   0  -9    0.57    1.67
  -5   0   9    0.54    1.47
   5   0  -8   13.44    1.66
  -5   0   7    2.53    1.19
   5   0  -7    3.25    1.27
  -5   0   7    1.69    1.18
  -5   0   6  123.02    4.14
  -5   0   6  133.56    4.33
  -5   0   5  274.29    6.69
  -5   0   5  262.57    6.73
  -5   0   5  263.97    7.42
   5   0  -5  281.19    7.63
  -5   0   4    3.48    0.46
  -5   0   4    4.25    0.58
   5   0  -4    3.08    0.90
   5   0  -4    5.02    0.96
   5   0  -4    3.83    0.86
  -5   0   3    2.01    0.58
   5   0  -3   -0.04    0.12
  -5   0   3    2.89    0.52
   5   0  -3    2.10    0.75
  -5   0   3    0.02    0.08
   5   0  -3    2.02    0.75
   5   0  -3    2.51    0.80
   5   0  -3    3.04    0.81
   5   0  -2  374.76    4.39
  -5   0   2  453.24    4.27
   5   0  -2  436.16    4.14
   5   0  -2  473.67    4.39
   5   0  -2  463.91    4.40
  -5   0   1  551.79    5.16
   5   0  -1  722.86    6.08
   5   0  -1    0.12    2.94
  -5   0   1  656.38    5.73
  -5   0   1   85.69    3.55
   5   0  -1  676.75    5.76
  -5   0   1  696.28    5.95
   5   0  -1  589.88    5.81
  -5   0   0    0.34    0.67
   5   0   0    0.55    0.61
  -5   0   0    0.57    0.71
  -5   0   0    0.38    0.70
  -5   0   0    0.89    0.77
   5   0   0    0.82    0.73
   5   0   0    0.15    0.28
   5   0   0    0.31    0.74
   5   0   0    0.69    0.77
  -5   0  -1    5.50    0.94
   5   0   1    6.19    0.89
  -5   0  -2   73.95    2.92
  -5   0  -2   76.67    2.79
   5   0   2   76.36    2.79
   5   0   2   84.73    2.65
  -5   0  -3   35.15    1.85
   5   0   3   39.74    1.67
   5   0   3   37.42    1.92
  -5   0  -3   36.18    2.14
  -5   0  -4   27.59    1.01
   5   0   4   27.26    1.32
  -5   0  -5   33.70    2.05
   5   0   5   35.54    2.08
  -5   0  -6    0.16    1.44
  -5   0  -6    0.65    1.66
   5   0   6   -1.00    1.51
  -5   0  -7   -0.28    1.74
   5   0   7    1.51    1.62
   5   1  -9   88.51    3.83
  -5   1   8   99.14    3.91
  -5   1   8  101.94    3.99
  -5   1   7    4.73    1.31
  -5   1   7    5.31    1.33
   5   1  -6    8.51    1.38
  -5   1   6    7.92    1.23
   5   1  -6    7.51    1.35
  -5   1   6    6.51    1.23
  -5   1   5  177.11    4.63
  -5   1   5  165.14    5.15
  -5   1   5  182.52    5.39
   5   1  -5  166.81    5.18
  -5   1   4  203.71    3.03
  -5   1   4  192.00    2.82
   5   1  -4  190.42    3.76
   5   1  -4  177.84    3.62
  -5   1   4  216.83    3.31
  -5   1   3   68.71    1.75
   5   1  -3   58.99    2.06
   5   1  -3   63.74    2.13
  -5   1   3   74.03    1.92
   5   1  -3   70.18    2.00
   5   1  -3   73.87    2.08
   5   1  -3   74.34    2.10
  -5   1   2   34.10    1.25
   5   1  -2   37.36    1.58
  -5   1   2   38.18    1.55
   5   1  -2   42.02    1.50
   5   1  -2   45.09    1.73
   5   1  -1    0.04    0.07
  -5   1   1    0.39    0.69
   5   1  -1    0.51    0.52
  -5   1   1    0.47    0.73
   5   1  -1    0.65    0.66
   5   1  -1    0.30    0.81
  -5   1   0   13.39    1.04
  -5   1   0   15.61    1.11
  -5   1   0   17.96    1.11
   5   1   0   14.83    0.74
   5   1   0   16.96    1.19
  -5   1   0   17.15    1.22
  -5   1  -1  235.66    4.30
   5   1   1  228.99    3.41
   5   1   1  228.30    4.34
  -5   1  -2  264.60    7.75
  -5   1  -2  267.63    7.58
   5   1   2  266.99    7.67
  -5   1  -3   14.54    1.53
   5   1   3   17.42    1.28
   5   1   3   16.98    1.49
  -5   1  -4    0.83    1.42
  -5   1  -4    2.57    1.27
   5   1   4    1.24    1.27
  -5   1  -5   23.88    1.80
  -5   1  -6   45.82    2.52
   5   1   6   47.30    2.58
  -5   1  -7    0.20    1.61
   5   2 -10    2.45    1.81
   5   2  -9    2.44    1.77
  -5   2   9    1.65    1.62
  -5   2   9    3.57    1.72
   5   2  -8   13.50    1.90
  -5   2   8   11.34    1.71
   5   2  -8   12.96    1.71
  -5   2   8   10.70    1.69
   5   2  -7   15.46    1.79
  -5   2   7   16.13    1.76
   5   2  -7   14.07    1.59
  -5   2   7   15.13    1.71
   5   2  -6  124.56    4.33
  -5   2   6  119.47    4.08
  -5   2   6  118.36    4.12
  -5   2   5  175.87    4.52
   5   2  -5  167.66    5.09
   5   2  -5  151.14    4.84
  -5   2   5  144.63    4.90
  -5   2   5  151.07    4.91
  -5   2   4   17.51    1.06
   5   2  -4   15.37    1.26
  -5   2   4   20.55    1.01
   5   2  -4   -0.54    0.77
  -5   2   4    4.30    0.81
  -5   2   4   10.77    1.07
  -5   2   3   45.47    1.61
  -5   2   3   43.44    1.84
   5   2  -3   44.97    1.63
   5   2  -2  334.72    4.52
  -5   2   2  347.95    4.01
   5   2  -2  366.99    3.26
  -5   2   2  394.56    3.96
  -5   2   2  337.71    4.47
   5   2  -2  379.58    4.26
   5   2  -2   -0.34    2.03
   5   2  -2  351.77    3.99
  -5   2   2   -0.02    2.02
  -5   2   1  476.64   11.58
   5   2  -1  471.73   11.22
  -5   2   1  421.45   11.42
  -5   2   1  476.02   11.36
  -5   2   1  424.95   11.55
   5   2  -1  427.45   11.25
  -5   2   1  455.80   11.73
  -5   2   0   28.70    1.40
  -5   2   0   41.59    1.47
  -5   2   0   36.33    1.56
   5   2   0   35.19    1.28
   5   2   0   33.62    1.17
  -5   2  -1   21.16    1.45
  -5   2  -1   22.78    1.34
   5   2   1   21.55    1.06
  -5   2  -2   39.19    2.00
   5   2   2   41.76    2.04
  -5   2  -3   45.71    2.37
  -5   2  -3   43.58    1.97
   5   2   3   48.40    2.33
  -5   2  -4   29.38    2.24
  -5   2  -4   30.96    1.99
   5   2   4   30.10    2.09
  -5   2  -5   29.60    1.92
   5   2   5   31.89    2.19
  -5   2  -5   32.05    2.49
  -5   2  -6    0.49    1.73
  -5   2  -6    0.68    1.32
  -5   2  -7    0.86    1.57
   5   3 -10    7.45    1.79
   5   3  -9   46.98    3.13
  -5   3   9   40.19    2.61
   5   3  -9   40.51    2.54
  -5   3   9   38.47    2.65
  -5   3   8   60.39    2.97
   5   3  -8   63.64    2.87
  -5   3   8   59.85    2.99
   5   3  -7   21.86    2.09
  -5   3   7   20.54    1.78
   5   3  -7   19.56    1.73
  -5   3   7   18.28    1.81
   5   3  -6   24.33    1.98
   5   3  -6   19.37    1.50
  -5   3   6   19.84    1.76
  -5   3   6   21.34    1.80
  -5   3   6   19.15    1.55
   5   3  -5  114.53    4.10
  -5   3   5  107.99    3.84
  -5   3   5  110.94    3.88
  -5   3   5  109.65    3.75
  -5   3   4  113.41    3.36
   5   3  -4   92.69    3.33
   5   3  -4  106.32    3.76
  -5   3   4  100.86    3.50
  -5   3   4  104.10    3.57
  -5   3   4  104.76    3.50
  -5   3   3   42.85    1.82
   5   3  -3   39.85    1.86
   5   3  -3   39.60    1.17
  -5   3   3   38.26    1.84
  -5   3   3   46.03    1.48
  -5   3   3   33.05    1.79
   5   3  -2   72.07    2.26
   5   3  -2   79.99    1.63
  -5   3   2   86.06    2.35
  -5   3   2   77.53    2.16
  -5   3   2   90.71    1.90
  -5   3   2   72.65    2.16
   5   3  -2    0.07    1.03
   5   3  -2   74.94    1.78
  -5   3   2   -0.02    1.03
   5   3  -1   20.18    1.03
   5   3  -1   17.45    0.85
  -5   3   1   20.97    1.02
  -5   3   1   17.25    1.22
  -5   3   1   20.48    1.45
   5   3  -1   16.61    1.31
   5   3   0   30.63    1.35
  -5   3   0   25.47    1.41
  -5   3   0   28.10    1.31
   5   3   0   24.34    1.47
  -5   3   0   25.48    1.62
  -5   3  -1  137.77    4.35
   5   3   1  127.84    4.21
   5   3   1  127.30    3.85
  -5   3  -1  134.54    4.29
  -5   3  -2  176.94    5.46
  -5   3  -2  175.95    5.07
   5   3   2  181.01    5.43
   5   3   2  163.18    4.90
  -5   3  -3   14.52    1.62
  -5   3  -3   17.59    1.28
   5   3   3   18.64    1.72
  -5   3  -4   14.89    2.01
  -5   3  -4   13.61    1.41
   5   3   4   16.25    1.76
  -5   3  -5   24.88    2.41
  -5   3  -5   23.64    1.67
   5   3   5   22.02    1.97
  -5   3  -6   23.49    1.80
   5   4  -9    1.17    2.08
   5   4  -9    1.88    1.44
   5   4  -8    9.78    1.94
   5   4  -8    8.04    1.49
   5   4  -8    9.36    2.09
  -5   4   8    7.45    1.72
  -5   4   8    7.94    1.75
   5   4  -7   26.99    1.85
   5   4  -7   30.15    2.44
  -5   4   7   26.35    2.06
  -5   4   7   26.26    1.90
  -5   4   7   24.05    2.03
   5   4  -6   56.38    2.46
  -5   4   6   62.75    2.86
  -5   4   6   59.04    2.67
  -5   4   6   60.48    2.78
   5   4  -5   63.89    2.56
   5   4  -5   81.49    3.36
  -5   4   5   73.76    3.01
  -5   4   5   77.51    3.10
  -5   4   5   68.70    2.79
   5   4  -4   18.81    1.67
  -5   4   4   17.18    1.44
  -5   4   4   18.26    1.56
  -5   4   4   16.80    1.40
   5   4  -3   88.90    3.25
   5   4  -3   83.72    3.52
  -5   4   3   93.91    3.33
  -5   4   3  108.76    2.72
  -5   4   3  101.22    3.45
   5   4  -3  101.46    2.91
   5   4  -2  181.56    3.80
   5   4  -2  155.48    4.58
  -5   4   2  195.07    3.82
  -5   4   2  146.34    4.20
   5   4  -2  153.95    3.55
  -5   4   2  175.56    4.50
   5   4  -2  157.19    4.33
   5   4  -1  188.49    4.74
  -5   4   1  165.92    5.02
  -5   4   1  181.86    4.62
   5   4  -1  152.73    4.95
   5   4  -1  159.20    4.89
  -5   4   1  170.66    5.17
  -5   4   0   70.86    2.76
  -5   4   0   72.76    2.62
   5   4   0   76.65    2.86
  -5   4   0   77.66    2.96
  -5   4  -1   30.80    1.88
  -5   4  -1   31.19    1.48
   5   4   1   32.86    1.88
   5   4   1   33.09    1.61
  -5   4  -1   37.38    2.04
  -5   4  -2   18.65    1.20
   5   4   2   19.45    1.63
   5   4   2   18.96    1.18
  -5   4  -2   21.67    1.69
  -5   4  -3   31.75    2.18
  -5   4  -3   34.34    1.69
   5   4   3   38.28    2.23
  -5   4  -4   18.08    2.03
  -5   4  -4   17.16    1.35
   5   4   4   14.94    1.71
  -5   4  -5   21.83    2.40
  -5   4  -5   18.25    1.44
   5   4   5   19.87    1.98
   5   5  -9   13.79    2.57
   5   5  -9   11.84    1.53
   5   5  -8   14.93    1.55
   5   5  -8   14.14    2.43
  -5   5   8   13.20    1.94
  -5   5   8   15.11    1.79
  -5   5   8   15.38    2.04
   5   5  -8   12.68    2.18
   5   5  -7   24.47    1.71
   5   5  -7   31.80    2.62
  -5   5   7   27.34    2.15
  -5   5   7   29.90    2.00
  -5   5   7   26.57    2.11
   5   5  -6   19.80    1.47
  -5   5   6   22.67    1.90
  -5   5   6   23.30    1.93
  -5   5   6   22.73    1.74
   5   5  -5   42.16    2.07
   5   5  -5   49.16    2.75
  -5   5   5   46.99    2.45
  -5   5   5   48.50    2.47
  -5   5   5   46.77    2.29
   5   5  -4   37.76    1.85
   5   5  -4   44.47    2.43
  -5   5   4   39.64    2.10
  -5   5   4   40.03    2.08
  -5   5   4   41.21    2.10
   5   5  -3   42.21    1.30
   5   5  -3   38.91    2.19
  -5   5   3   36.47    1.87
  -5   5   3   38.56    2.00
   5   5  -3   40.96    2.09
   5   5  -3   38.34    1.24
  -5   5   3   41.11    2.03
   5   5  -2   59.50    1.90
   5   5  -2   49.69    2.57
  -5   5   2   57.99    1.61
   5   5  -2   47.62    2.27
  -5   5   2   54.40    2.42
   5   5  -1   23.80    1.27
  -5   5   1   20.57    1.51
  -5   5   1   21.20    0.95
  -5   5   1   18.95    1.32
   5   5  -1   17.32    1.38
   5   5  -1   18.09    1.38
  -5   5   1   20.34    1.53
  -5   5   0   46.22    2.21
  -5   5   0   45.44    1.96
   5   5   0   48.44    2.21
  -5   5   0   53.28    2.33
  -5   5  -1   53.34    2.48
  -5   5  -1   51.17    1.99
   5   5   1   57.06    2.46
   5   5   1   50.42    2.23
  -5   5  -2   65.28    2.94
  -5   5  -2   58.84    2.20
   5   5   2   68.59    3.02
   5   5   2   57.55    2.44
  -5   5  -2   69.12    2.76
  -5   5  -3   16.41    1.92
  -5   5  -3   17.18    1.22
   5   5   3   17.53    1.96
  -5   5  -3   18.84    1.71
  -5   5  -4   20.83    2.15
  -5   5  -4   18.57    1.31
   5   5   4   17.58    1.98
  -5   5  -5    8.80    2.15
  -5   6   9    2.55    1.63
   5   6  -8    7.98    2.15
   5   6  -8    7.11    1.23
  -5   6   8    6.89    1.60
   5   6  -7   14.39    1.45
   5   6  -7   18.08    2.40
  -5   6   7   16.96    1.98
  -5   6   7   16.56    1.74
  -5   6   7   12.79    1.87
   5   6  -6   13.65    1.26
   5   6  -6   15.41    2.16
  -5   6   6   13.55    1.76
  -5   6   6   16.25    1.85
  -5   6   6   13.80    1.67
   5   6  -5   22.22    2.16
  -5   6   5   22.59    1.98
  -5   6   5   25.36    2.00
  -5   6   5   21.82    1.78
   5   6  -5   21.20    1.46
   5   6  -4   37.38    2.43
   5   6  -4   31.20    2.06
  -5   6   4   34.51    2.07
   5   6  -4   32.48    1.72
   5   6  -3   69.74    1.94
   5   6  -3   59.79    2.96
  -5   6   3   56.97    2.57
  -5   6   3   71.22    2.97
   5   6  -3   53.63    2.63
   5   6  -3   51.01    2.32
  -5   6   3   62.77    2.68
   5   6  -2   41.56    2.45
  -5   6   2   39.02    1.96
   5   6  -2   38.74    1.99
   5   6  -2   36.49    2.02
  -5   6   2   42.37    2.23
  -5   6   1   29.17    1.92
  -5   6   1   32.14    1.09
  -5   6   1   27.72    1.62
   5   6  -1   25.43    1.73
  -5   6   1   29.58    1.93
  -5   6   0   50.54    2.48
  -5   6   0   48.78    2.00
   5   6   0   50.91    2.37
  -5   6   0   53.98    2.55
  -5   6  -1   43.57    2.30
  -5   6  -1   39.31    1.69
   5   6   1   42.39    2.37
  -5   6  -2    9.11    1.60
  -5   6  -2    8.10    0.95
   5   6   2    8.21    1.37
  -5   6  -2   10.51    1.60
   5   6   2    9.11    1.60
  -5   6  -3   13.88    2.00
  -5   6  -3   13.02    1.04
   5   6   3   13.56    1.76
  -5   6  -3   13.90    1.79
  -5   6  -4    4.21    1.79
   5   6   4    5.16    1.72
  -5   6  -4    4.60    1.60
  -5   7   8    2.80    1.72
  -5   7   7   13.97    2.04
  -5   7   7   14.16    1.89
  -5   7   7   14.16    2.23
   5   7  -6   18.87    2.47
  -5   7   6   19.88    1.89
   5   7  -6   17.46    1.31
   5   7  -5   10.59    2.13
   5   7  -5    9.69    1.71
   5   7  -5    7.73    1.14
  -5   7   5   11.29    1.70
   5   7  -4   15.47    1.96
  -5   7   4   13.95    1.68
   5   7  -4   12.86    1.75
   5   7  -4   12.77    1.28
  -5   7   4   14.17    1.65
  -5   7   4   13.97    1.65
   5   7  -3   32.61    1.32
   5   7  -3   29.64    2.27
  -5   7   3   25.30    1.81
   5   7  -3   24.64    1.60
  -5   7   3   30.75    2.13
   5   7  -3   24.39    1.90
  -5   7   3   25.53    1.93
   5   7  -2   24.72    2.04
  -5   7   2   22.80    1.61
   5   7  -2   23.76    1.59
   5   7  -2   21.80    1.82
  -5   7   2   22.58    1.89
  -5   7   1   12.09    1.65
  -5   7   1   10.39    1.24
   5   7  -1   11.62    1.36
   5   7  -1    9.86    1.50
  -5   7   1   11.00    1.63
  -5   7   0   46.21    2.51
  -5   7   0   52.67    1.71
  -5   7   0   45.97    1.97
   5   7   0   48.08    2.45
  -5   7   0   53.57    2.59
  -5   7  -1   11.68    1.63
  -5   7  -1   10.74    1.00
  -5   7  -2   11.22    1.80
  -5   7  -2   11.36    0.99
   5   7   2   10.47    1.71
   5   7   2   10.48    1.60
  -5   7  -2   10.53    1.83
  -5   7  -3   17.54    2.32
   5   7   3   15.86    2.06
  -5   7  -3   17.53    2.11
  -5   7  -4   14.02    2.19
  -5   8   7    6.23    1.95
  -5   8   6    1.86    1.84
  -5   8   6    2.54    1.64
  -5   8   6    1.57    1.90
   5   8  -5    3.68    1.02
   5   8  -5    3.44    1.88
  -5   8   5    3.74    1.75
   5   8  -5    3.58    1.72
  -5   8   5    4.93    1.79
  -5   8   5    3.05    1.58
   5   8  -4   25.33    2.39
  -5   8   4   25.71    1.96
   5   8  -4   24.00    1.62
   5   8  -4   20.07    2.02
  -5   8   4   25.99    2.10
  -5   8   4   22.18    1.98
   5   8  -3   25.64    2.33
  -5   8   3   24.20    1.82
   5   8  -3   23.54    1.63
  -5   8   3   25.55    1.90
   5   8  -3   22.49    2.11
  -5   8   3   24.86    2.03
   5   8  -2    5.15    1.34
  -5   8   2    5.23    1.31
   5   8  -2    4.66    1.54
  -5   8   2    6.31    1.67
  -5   8   1    2.08    1.49
  -5   8   1    1.35    1.01
   5   8  -1    2.87    1.50
  -5   8   1    1.39    1.51
   5   8  -1    1.34    1.29
  -5   8   0   21.11    2.02
  -5   8   0   21.71    1.35
   5   8   0   22.34    1.97
  -5   8   0   21.76    0.93
   5   8   0   19.71    1.99
  -5   8   0   24.00    2.09
  -5   8  -1   18.77    2.11
  -5   8  -1   20.33    1.16
   5   8   1   18.71    1.96
  -5   8  -1   15.60    1.17
  -5   8  -2    2.34    1.70
   5   8   2    3.08    1.60
  -5   8  -2    3.14    1.74
  -5   8  -3    6.44    1.98
  -5   8  -4    1.01    1.94
  -5   9   5    1.31    1.72
  -5   9   5    1.00    1.83
   5   9  -4    4.61    1.19
  -5   9   4    4.40    1.73
  -5   9   4    3.63    1.69
  -5   9   4    4.24    1.75
   5   9  -3    6.28    1.94
  -5   9   3    5.45    1.41
   5   9  -3    6.88    1.79
  -5   9   3    5.42    1.74
   5   9  -3    6.21    1.33
   5   9  -2    9.98    1.53
  -5   9   2   10.23    1.41
   5   9  -2   11.05    1.99
   5   9  -2   10.98    1.95
  -5   9   2   11.75    1.87
  -5   9   1    9.50    1.94
  -5   9   1    8.17    1.25
   5   9  -1    7.70    1.84
   5   9  -1    8.29    1.57
  -5   9   1    7.55    1.82
  -5   9   0   17.41    2.04
   5   9   0   12.91    1.76
   5   9   0   15.53    2.03
  -5   9   0   16.92    2.09
   5   9   1    0.03    1.63
  -5   9  -1    0.66    1.84
   5   9   2   -0.74    1.68
  -5   9  -2   -0.54    2.05
  -5   9  -3    6.68    2.20
  -5  10   4    7.56    1.89
  -5  10   4    9.63    1.98
  -5  10   3   10.28    1.69
   5  10  -2    0.85    1.24
   5  10  -1    1.09    1.53
   5  10   0    6.06    1.69
   5  10   1    4.59    1.82
   6 -10  -4    2.64    1.84
  -6 -10   2    5.57    1.74
  -6 -10   2    5.44    1.56
  -6 -10   1   -0.03    1.46
   6  -9  -4   -0.09    1.92
  -6  -9   4   -0.19    1.27
  -6  -9   3    9.21    1.53
  -6  -9   3    9.23    1.56
   6  -9  -3   12.10    1.94
  -6  -9   2   -0.16    1.43
  -6  -9   2   -0.51    1.57
   6  -9  -2    0.14    1.55
  -6  -9   1    6.95    1.61
  -6  -9   1    7.27    1.78
  -6  -9   0    0.03    1.64
  -6  -9   0    2.29    1.60
  -6  -8   5    1.69    1.24
   6  -8  -5    1.63    2.00
   6  -8  -4    4.80    1.80
  -6  -8   4    3.89    1.33
   6  -8  -4    4.43    1.98
   6  -8  -3    3.76    1.52
  -6  -8   3    3.09    1.28
  -6  -8   3    4.28    1.34
   6  -8  -3    3.78    1.92
  -6  -8   2   32.81    2.13
  -6  -8   2   27.65    2.00
   6  -8  -2   30.77    2.47
  -6  -8   1    1.23    1.51
   6  -8  -1    0.04    1.21
  -6  -8   1    0.44    1.45
   6  -8  -1    0.54    1.72
  -6  -8   0    1.59    1.57
  -6  -8   0    2.72    1.69
   6  -8   0    1.82    1.71
  -6  -8  -1    0.40    1.66
  -6  -8  -1    0.11    1.54
   6  -7  -8    2.39    1.81
  -6  -7   7    5.83    1.27
  -6  -7   6    6.09    1.25
   6  -7  -6    5.59    2.08
  -6  -7   5   14.60    1.46
   6  -7  -5   15.76    2.35
  -6  -7   4    0.50    0.91
   6  -7  -4    0.47    1.60
  -6  -7   4   -0.47    1.16
   6  -7  -4    2.02    1.81
  -6  -7   3   24.04    1.72
   6  -7  -3   29.62    2.05
   6  -7  -3   23.09    2.28
   6  -7  -2    0.94    1.33
  -6  -7   2    1.68    1.20
  -6  -7   2    0.98    1.33
   6  -7  -2    1.99    1.63
  -6  -7   1   21.35    1.80
   6  -7  -1   29.02    1.82
  -6  -7   1   24.07    1.90
   6  -7  -1   24.30    2.26
   6  -7   0    2.83    1.64
   6  -7   1   28.93    2.42
   6  -7   1   35.38    1.67
  -6  -7  -2    5.04    1.68
   6  -7   2    7.71    1.88
  -6  -6   8    8.76    1.50
  -6  -6   7    5.03    1.34
  -6  -6   6   24.14    1.66
   6  -6  -6   27.70    2.61
  -6  -6   5   12.08    0.70
  -6  -6   5   12.09    1.42
   6  -6  -5   11.15    2.08
  -6  -6   4   31.18    1.40
  -6  -6   4   30.62    1.45
  -6  -6   4   24.90    1.77
   6  -6  -4   26.62    2.44
  -6  -6   3    6.44    0.80
   6  -6  -3    8.52    1.53
  -6  -6   3    6.74    1.08
  -6  -6   3    6.57    1.25
   6  -6  -3    5.57    1.71
  -6  -6   2   66.02    1.97
  -6  -6   2   66.93    2.86
   6  -6  -2   75.43    2.37
   6  -6  -2   66.44    3.33
   6  -6  -1    9.29    1.33
   6  -6  -1    6.60    1.62
  -6  -6   0   16.04    1.68
   6  -6   0   15.64    1.86
  -6  -6  -1    4.04    1.52
   6  -6   1    5.57    1.59
  -6  -6  -2   21.34    2.22
   6  -6   2   19.34    2.08
   6  -6   3    3.14    0.99
  -6  -6  -3   -0.31    1.63
  -6  -5   9   13.50    1.71
  -6  -5   8   10.57    1.50
  -6  -5   7   19.56    1.60
  -6  -5   6   10.70    1.44
  -6  -5   5   36.94    1.90
   6  -5  -5   39.55    2.61
  -6  -5   4    8.84    1.04
  -6  -5   4    7.94    0.85
  -6  -5   4    6.60    1.20
   6  -5  -4    9.78    1.69
   6  -5  -4    5.86    1.67
  -6  -5   3   39.38    1.59
   6  -5  -3   38.62    1.67
   6  -5  -3   39.08    2.54
  -6  -5   2    5.67    0.74
   6  -5  -2    6.00    1.35
  -6  -5   2    4.99    1.16
   6  -5  -2    4.07    1.53
   6  -5  -1   67.16    2.64
  -6  -5   1   57.55    2.62
   6  -5  -1   64.77    1.84
   6  -5  -1   55.91    2.85
   6  -5   0    4.93    0.98
  -6  -5   0    3.38    1.40
   6  -5   0    2.11    1.41
  -6  -5  -1   42.96    2.34
   6  -5   1   39.53    2.42
  -6  -5  -2   16.84    1.07
  -6  -5  -2   16.78    1.95
   6  -5   2   16.28    1.92
  -6  -5  -3   25.83    1.43
  -6  -5  -3   27.74    2.35
   6  -5   4    2.55    1.20
  -6  -4   9    0.80    1.48
   6  -4  -8   13.47    1.35
  -6  -4   8   11.19    1.55
   6  -4  -7    1.48    0.90
  -6  -4   7    1.70    1.18
   6  -4  -6   34.56    1.44
  -6  -4   6   28.51    1.90
  -6  -4   5   37.76    2.03
  -6  -4   4  134.45    4.06
   6  -4  -4  153.10    4.79
  -6  -4   3   24.51    1.37
  -6  -4   3   19.49    1.50
   6  -4  -3   26.15    1.87
   6  -4  -3   21.67    1.20
   6  -4  -3   21.74    1.95
  -6  -4   2   67.59    2.81
   6  -4  -2   72.75    2.18
   6  -4  -2   68.74    3.12
  -6  -4   2   74.52    2.42
  -6  -4   1   34.21    1.94
   6  -4  -1   35.44    2.15
  -6  -4   1   38.34    1.62
  -6  -4   0   99.59    3.70
   6  -4   0   98.58    3.83
  -6  -4  -1   14.93    1.67
   6  -4   1   13.68    1.71
  -6  -4  -2   29.20    2.06
   6  -4   2   26.32    2.07
   6  -4   2   28.47    1.66
  -6  -4  -3    2.02    0.75
   6  -4   3   -0.19    1.09
  -6  -4  -3   -0.57    1.75
  -6  -4  -4   10.96    1.35
   6  -4   4   11.69    1.49
  -6  -4  -4   10.47    1.90
  -6  -4  -5    2.58    1.36
   6  -4   5    2.55    1.30
  -6  -3  10    1.47    1.57
   6  -3  -9   16.99    1.73
  -6  -3   9   12.84    1.80
   6  -3  -8   46.59    2.29
  -6  -3   8   36.76    2.33
   6  -3  -7   84.71    2.92
  -6  -3   7   72.48    3.14
   6  -3  -6   16.68    1.21
  -6  -3   6   16.61    1.49
   6  -3  -5   39.41    1.72
   6  -3  -5   47.88    2.51
  -6  -3   4   29.66    1.79
   6  -3  -4   34.96    2.04
   6  -3  -4   30.77    2.18
  -6  -3   3   47.20    2.22
   6  -3  -3   48.67    2.37
   6  -3  -3   46.31    2.57
  -6  -3   3   48.69    1.97
   6  -3  -2   12.07    1.31
  -6  -3   2   11.70    1.26
   6  -3  -2   11.71    0.75
   6  -3  -2   10.52    1.41
  -6  -3   2   12.86    1.12
  -6  -3   1   97.38    3.35
   6  -3  -1   87.72    2.28
   6  -3  -1   93.38    3.46
  -6  -3   0   22.94    1.68
   6  -3   0   22.44    1.74
  -6  -3  -1   25.92    1.93
   6  -3   1   26.94    1.93
  -6  -3  -1   35.95    1.58
   6  -3   1   33.58    1.79
  -6  -3  -2   46.40    2.43
   6  -3   2   47.28    2.51
   6  -3   2   46.74    2.14
  -6  -3  -3   76.07    3.43
   6  -3   3   76.95    2.96
  -6  -3  -4   12.58    1.44
  -6  -3  -4   13.37    1.95
   6  -3   4   17.31    1.64
  -6  -3  -5    8.64    1.63
   6  -3   5   10.18    1.46
  -6  -3  -6    0.48    1.59
  -6  -2  10   10.39    2.00
   6  -2 -10    9.41    1.92
  -6  -2   9   -0.80    1.47
   6  -2  -9    0.24    1.52
   6  -2  -8   21.41    1.79
  -6  -2   8   19.27    1.81
   6  -2  -7    8.71    1.24
  -6  -2   7    2.58    1.29
   6  -2  -6   13.33    1.31
  -6  -2   6   11.66    1.49
   6  -2  -5   81.73    2.83
  -6  -2   5   74.61    2.99
   6  -2  -4  247.16    6.96
  -6  -2   4  262.25    7.33
   6  -2  -4  254.43    7.66
  -6  -2   3   60.48    2.56
   6  -2  -3   66.76    2.76
   6  -2  -3   61.10    2.88
   6  -2  -2   50.57    2.25
  -6  -2   2   46.93    2.17
   6  -2  -2   44.95    2.28
   6  -2  -1   93.14    3.20
  -6  -2   1   89.19    3.17
   6  -2  -1   85.08    3.27
  -6  -2   0  217.82    6.49
   6  -2   0  217.80    6.57
  -6  -2  -1   11.44    1.37
   6  -2   1   10.60    1.36
  -6  -2  -1   14.57    1.23
  -6  -2  -2   36.13    2.14
   6  -2   2   31.97    2.06
   6  -2   2   32.91    1.81
   6  -2   3   -0.54    1.17
  -6  -2  -3    0.16    1.37
  -6  -2  -4   12.89    1.82
   6  -2   4   11.51    1.67
  -6  -2  -5    6.31    1.50
   6  -2   5    6.03    1.47
  -6  -2  -6   14.38    2.03
   6  -2   6   12.75    1.75
   6  -1 -10    2.00    1.83
   6  -1  -9    3.42    1.64
  -6  -1   9    1.48    1.59
   6  -1  -8   77.64    3.25
  -6  -1   8   61.57    2.97
   6  -1  -7  182.44    5.43
  -6  -1   7  158.54    5.36
  -6  -1   6    9.12    1.38
   6  -1  -6   12.19    1.68
  -6  -1   5   10.91    0.61
   6  -1  -5   10.84    1.16
  -6  -1   5   10.18    1.33
   6  -1  -5   12.95    1.49
  -6  -1   4   29.93    1.08
  -6  -1   4   32.93    1.27
   6  -1  -4   28.47    1.60
  -6  -1   4   27.97    1.68
   6  -1  -4   29.11    1.88
  -6  -1   3   68.07    2.15
  -6  -1   3   64.42    2.66
   6  -1  -3   64.80    2.78
  -6  -1   2   24.52    1.25
   6  -1  -2   26.95    1.70
  -6  -1   2   26.49    1.56
   6  -1  -2   25.14    1.65
   6  -1  -1  120.92    3.93
  -6  -1   1  107.27    3.75
   6  -1  -1  122.48    3.13
   6  -1  -1  109.69    3.83
  -6  -1   0   42.12    2.10
   6  -1   0   42.56    2.09
   6  -1   0   43.16    2.07
  -6  -1  -1    1.72    1.01
   6  -1   1    2.15    1.02
  -6  -1  -1    5.12    1.16
   6  -1   1    2.26    1.23
  -6  -1  -2   49.71    2.48
  -6  -1  -3  134.87    4.67
   6  -1   3  146.24    4.62
   6  -1   4   25.48    2.07
  -6  -1  -5    4.55    1.64
  -6  -1  -5    4.94    1.66
   6  -1   5    4.45    1.49
   6  -1   6   -0.98    1.58
   6   0 -10   13.68    2.27
   6   0  -9    1.74    1.77
  -6   0   9   -0.88    1.60
  -6   0   9    1.33    1.96
   6   0  -8   32.84    2.40
  -6   0   8   26.97    2.12
  -6   0   7    1.73    0.29
   6   0  -7    1.79    1.30
  -6   0   7    2.11    1.33
   6   0  -7    1.66    1.56
  -6   0   6    1.47    0.38
   6   0  -6    1.25    1.22
   6   0  -6    2.13    1.25
  -6   0   6    2.18    1.29
  -6   0   5  112.20    2.99
  -6   0   5  109.68    3.07
   6   0  -5  108.87    3.94
  -6   0   4  345.72    8.72
  -6   0   4  330.60    9.40
   6   0  -4  331.38    9.47
  -6   0   3  115.05    3.38
  -6   0   3  126.12    3.52
   6   0  -3  113.72    3.75
   6   0  -3  121.44    3.98
  -6   0   3  113.39    3.82
  -6   0   2   32.72    1.34
  -6   0   2   29.85    1.60
   6   0  -1  169.05    5.12
  -6   0   1  156.26    4.99
   6   0  -1  170.10    4.40
   6   0   0  276.82    3.77
   6   0   0  274.97    5.22
  -6   0  -1   11.43    1.33
  -6   0  -1    9.64    1.28
   6   0   1    9.89    1.24
  -6   0  -2   41.13    2.18
   6   0   2   38.34    2.11
  -6   0  -2   41.60    2.31
  -6   0  -3   -0.55    1.42
  -6   0  -4   11.37    1.79
   6   0   4   10.67    1.81
  -6   0  -5   11.88    1.74
   6   0   5   12.50    1.70
   6   0   6   13.65    1.97
   6   1  -9    3.54    1.94
   6   1  -9    5.39    1.93
  -6   1   9    4.22    1.69
  -6   1   9    1.36    1.72
   6   1  -8   76.51    3.45
  -6   1   8   69.39    3.21
   6   1  -8   71.98    3.40
  -6   1   8   70.10    3.29
  -6   1   7  158.79    5.38
   6   1  -7  166.67    5.56
  -6   1   6   12.25    0.83
  -6   1   6   12.55    1.48
   6   1  -6   11.17    1.61
  -6   1   5   11.91    0.85
  -6   1   5   11.59    0.93
   6   1  -5   11.86    1.41
  -6   1   5   11.41    1.42
   6   1  -5   12.06    1.43
  -6   1   4   29.46    1.29
  -6   1   4   34.59    1.50
   6   1  -4   32.07    1.78
   6   1  -4   30.04    1.87
  -6   1   4   26.57    1.71
  -6   1   4   35.44    1.59
  -6   1   3   69.93    2.17
   6   1  -3   65.37    2.59
  -6   1   3   65.87    2.54
   6   1  -3   65.51    2.50
   6   1  -2   30.05    1.76
  -6   1   2   32.67    1.57
  -6   1   2   26.20    1.68
   6   1  -2   23.16    1.54
   6   1  -1  115.33    3.92
  -6   1   1  116.33    3.70
   6   1  -1  124.77    3.50
  -6   1   1  114.62    3.94
   6   1  -1  123.66    3.44
   6   1  -1  113.50    3.67
  -6   1   0   42.01    1.99
  -6   1   0   37.73    1.94
   6   1   0   44.74    1.48
   6   1   0   41.17    1.85
   6   1   0   45.97    2.14
  -6   1  -1    1.97    1.10
   6   1   1    2.42    1.05
  -6   1  -1    1.93    1.00
   6   1   1    1.79    0.91
  -6   1  -2   50.67    2.58
   6   1   2   53.03    2.47
  -6   1  -3  133.95    4.55
   6   1   3  147.32    4.82
  -6   1  -3  147.80    5.00
  -6   1  -4   24.85    2.06
  -6   1  -4   24.90    2.31
  -6   1  -5    5.00    1.54
   6   1   5    4.74    1.67
  -6   1  -6   -0.23    1.79
   6   2  -9    0.20    1.74
   6   2  -9    0.40    1.88
  -6   2   9   -0.12    1.66
  -6   2   9   -0.75    1.73
  -6   2   8   18.78    1.99
   6   2  -8   18.67    2.07
  -6   2   8   19.71    2.02
   6   2  -7    3.57    1.53
   6   2  -7    3.18    1.59
  -6   2   7    3.22    1.45
  -6   2   7    2.47    1.48
  -6   2   6   14.61    1.13
   6   2  -6   14.00    1.79
  -6   2   6   11.52    1.59
  -6   2   6   15.59    1.99
  -6   2   5   87.48    2.90
   6   2  -5   92.70    3.62
   6   2  -5   91.70    3.46
  -6   2   5   86.55    3.41
  -6   2   4  303.79    7.49
  -6   2   4  273.97    7.27
   6   2  -4  251.14    7.71
   6   2  -4  257.27    7.82
  -6   2   4  257.45    7.70
  -6   2   4  304.98    7.36
  -6   2   3   66.83    2.34
  -6   2   3   58.62    2.17
   6   2  -3   58.22    2.52
   6   2  -3   55.24    2.58
  -6   2   3   58.57    2.53
  -6   2   3   70.91    2.28
   6   2  -3   59.03    2.39
   6   2  -2   56.06    2.46
   6   2  -2   55.31    1.81
  -6   2   2   50.04    2.30
   6   2  -2   57.07    2.16
  -6   2   1   81.81    2.83
   6   2  -1   86.58    2.50
   6   2  -1   85.99    2.42
   6   2  -1   86.19    2.92
  -6   2   0  223.77    6.31
  -6   2   0  207.24    6.17
   6   2   0  211.96    5.91
   6   2   0  212.29    6.38
  -6   2  -1   12.67    1.42
   6   2   1   12.77    0.90
   6   2   1   13.03    1.44
  -6   2  -2   35.77    2.17
  -6   2  -2   33.36    1.94
   6   2   2   32.76    2.05
   6   2   3   -0.05    1.38
  -6   2  -3    0.49    1.55
  -6   2  -3   -0.10    1.16
  -6   2  -4   10.89    2.03
  -6   2  -4   10.57    1.61
   6   2   4   11.28    1.83
  -6   2  -5    5.82    1.46
  -6   2  -6   15.22    1.86
   6   3 -10    2.86    2.11
   6   3  -9   13.78    1.97
   6   3  -8   42.97    3.07
   6   3  -8   37.49    2.47
  -6   3   8   38.08    2.52
  -6   3   8   36.64    2.50
   6   3  -7   91.10    3.84
   6   3  -7   85.63    3.44
  -6   3   7   78.17    3.45
  -6   3   7   81.58    3.50
   6   3  -6   16.50    1.72
   6   3  -6   18.21    1.99
  -6   3   6   15.29    1.72
  -6   3   6   18.99    1.77
   6   3  -5   48.80    2.62
  -6   3   5   42.73    2.28
  -6   3   4   29.90    1.45
   6   3  -4   26.43    1.70
   6   3  -4   26.86    1.94
  -6   3   4   27.71    1.88
  -6   3   4   31.86    1.37
  -6   3   4   28.14    1.92
   6   3  -3   50.77    2.47
   6   3  -3   49.62    2.54
  -6   3   3   48.69    2.31
  -6   3   3   49.80    2.44
   6   3  -3   52.01    2.04
   6   3  -2   11.62    0.78
  -6   3   2   13.58    1.16
  -6   3   2   13.37    1.00
  -6   3   2    8.95    1.24
   6   3  -2   15.77    1.19
   6   3  -2   10.57    0.89
  -6   3   2   11.42    1.39
   6   3  -2   10.87    1.31
   6   3  -1  122.53    3.35
  -6   3   1  108.28    3.63
  -6   3   1  126.68    3.46
  -6   3   1  102.51    3.64
   6   3  -1  103.03    3.18
   6   3  -1  112.54    3.48
  -6   3   1  110.37    3.94
   6   3  -1  105.43    3.75
  -6   3   0   18.60    1.57
   6   3   0   18.46    1.18
   6   3   0   20.00    1.56
  -6   3  -1   32.04    2.00
  -6   3  -1   31.40    1.80
   6   3   1   27.34    1.97
   6   3   1   31.36    1.46
  -6   3  -2   46.51    2.58
  -6   3  -2   48.63    2.24
   6   3   2   46.91    2.48
  -6   3  -3   74.64    3.45
  -6   3  -3   76.59    2.92
   6   3   3   81.11    3.46
  -6   3  -4   12.70    2.05
  -6   3  -4   13.49    1.73
   6   3   4   12.42    1.98
  -6   3  -5    8.99    1.52
   6   4  -9    1.44    1.72
   6   4  -8   13.18    1.85
   6   4  -8   14.69    2.24
  -6   4   8   14.26    2.10
  -6   4   8   11.99    2.10
   6   4  -7    2.11    1.83
  -6   4   7    0.90    1.51
   6   4  -7    2.19    1.23
  -6   4   7    1.25    1.62
   6   4  -6   31.89    1.98
   6   4  -6   35.04    2.56
  -6   4   6   32.92    2.22
  -6   4   6   37.49    2.42
   6   4  -5   40.55    2.25
   6   4  -5   47.81    2.77
  -6   4   5   44.48    2.41
  -6   4   5   46.61    2.41
   6   4  -4  129.17    4.56
  -6   4   4  119.33    4.20
  -6   4   4  125.52    4.33
   6   4  -4  131.97    3.89
   6   4  -3   19.36    1.53
   6   4  -3   21.71    0.86
   6   4  -3   21.14    1.79
  -6   4   3   19.10    1.48
  -6   4   3   24.65    1.09
   6   4  -3   19.69    1.10
  -6   4   3   18.29    1.66
   6   4  -2   79.05    2.34
  -6   4   2   75.29    2.83
   6   4  -2   70.87    3.06
   6   4  -2   72.23    2.15
  -6   4   2   78.74    3.12
   6   4  -2   68.31    2.89
   6   4  -1   43.45    1.72
  -6   4   1   35.61    1.94
  -6   4   1   43.80    1.66
   6   4  -1   35.08    2.05
  -6   4   1   38.47    2.20
  -6   4   0   96.79    3.64
  -6   4   0  100.89    3.55
   6   4   0   97.54    3.67
  -6   4   0  107.09    3.85
  -6   4  -1   18.20    1.74
  -6   4  -1   17.10    1.46
   6   4   1   16.74    1.69
  -6   4  -2   30.87    2.20
  -6   4  -2   30.67    1.76
   6   4   2   29.56    2.18
  -6   4  -3   -0.30    1.55
  -6   4  -3   -0.05    1.20
   6   4   3    1.11    1.59
  -6   4  -4   12.35    2.02
  -6   4  -4   12.34    1.59
   6   4   4   10.70    1.95
  -6   4  -5    1.77    1.23
   6   5  -9   12.46    1.75
   6   5  -8   10.91    1.59
   6   5  -7   22.67    1.76
   6   5  -7   30.58    2.78
  -6   5   7   26.25    2.26
  -6   5   7   29.33    2.35
  -6   5   7   25.79    2.13
   6   5  -6   11.12    1.60
   6   5  -6   11.54    2.06
  -6   5   6    9.87    1.83
  -6   5   6   11.40    1.80
   6   5  -5   35.53    2.10
   6   5  -5   41.36    2.62
  -6   5   5   40.26    2.38
  -6   5   5   44.93    2.59
  -6   5   5   42.81    2.41
   6   5  -4    4.90    1.51
  -6   5   4    6.85    1.52
   6   5  -4    6.06    0.83
   6   5  -4    5.83    1.22
  -6   5   4    6.46    1.43
   6   5  -3   42.92    1.31
  -6   5   3   43.00    2.18
   6   5  -3   42.47    2.52
   6   5  -3   40.18    2.18
  -6   5   3   46.31    2.36
   6   5  -2    5.30    0.80
  -6   5   2    5.14    1.23
   6   5  -2    4.82    1.25
   6   5  -2    3.86    1.45
  -6   5   2    3.68    1.20
  -6   5   2    5.20    1.40
  -6   5   1   72.10    2.90
  -6   5   1   65.54    2.70
   6   5  -1   65.13    2.77
   6   5  -1   66.33    2.67
  -6   5   1   73.54    3.05
   6   5   0    1.35    1.27
  -6   5   0    1.12    1.19
  -6   5   0    1.15    0.89
  -6   5   0    2.42    1.19
   6   5   0    1.87    1.09
  -6   5   0    2.41    1.47
  -6   5  -1   49.12    2.67
  -6   5  -1   47.67    2.17
   6   5   1   43.11    2.48
   6   5   1   47.52    2.16
  -6   5  -2   17.62    1.94
  -6   5  -2   18.42    1.44
   6   5   2   19.37    1.98
   6   5   2   16.26    1.48
  -6   5  -2   21.46    2.02
  -6   5  -3   32.28    2.39
  -6   5  -3   30.52    1.73
   6   5   3   33.44    2.50
  -6   5  -4    1.96    1.15
   6   6  -8    9.27    1.63
  -6   6   8    9.15    1.88
   6   6  -7    5.23    1.36
   6   6  -7    6.37    2.26
  -6   6   7    5.21    1.91
  -6   6   7    5.32    1.92
  -6   6   7    4.54    1.80
   6   6  -6   25.25    1.84
   6   6  -6   33.14    2.82
  -6   6   6   29.06    2.29
  -6   6   6   28.97    2.34
   6   6  -5   15.94    2.15
  -6   6   5   14.28    1.82
   6   6  -5   13.49    1.44
   6   6  -4   28.46    2.06
  -6   6   4   32.42    2.09
   6   6  -4   29.69    1.84
   6   6  -3    6.33    1.25
   6   6  -3    7.33    1.78
  -6   6   3    6.04    1.46
   6   6  -3    6.80    1.47
  -6   6   3    8.38    1.62
   6   6  -2   80.76    2.40
  -6   6   2   74.43    3.06
   6   6  -2   68.89    3.29
  -6   6   2   63.14    2.92
   6   6  -2   65.60    2.80
  -6   6   2   73.66    3.19
  -6   6   1    7.33    1.44
  -6   6   1    7.73    1.31
   6   6  -1    7.47    1.37
  -6   6   1    9.08    1.70
  -6   6   0   19.48    1.81
  -6   6   0   23.87    1.26
  -6   6   0   19.04    1.57
   6   6   0   16.93    1.82
   6   6   0   19.36    1.77
  -6   6   0   20.46    2.00
   6   6   1    5.37    1.61
  -6   6  -1    5.44    1.55
  -6   6  -1    5.33    1.13
   6   6   1    4.67    1.45
  -6   6  -1    5.77    1.73
  -6   6  -2   25.67    2.37
  -6   6  -2   23.34    1.55
   6   6   2   22.33    2.20
   6   6   2   20.74    1.81
  -6   6  -2   25.68    2.17
  -6   6  -3   -0.31    1.81
  -6   6  -3    0.89    1.09
   6   6   3    0.26    1.72
  -6   6  -3   -0.20    1.83
   6   7  -7    4.30    1.32
  -6   7   7    5.16    1.87
   6   7  -6    6.45    1.28
   6   7  -6    7.52    2.27
   6   7  -6    5.68    1.79
  -6   7   6    7.78    1.92
   6   7  -5   17.61    2.45
  -6   7   5   17.47    2.03
  -6   7   5   18.16    2.02
   6   7  -5   18.07    2.08
   6   7  -5   15.42    1.51
  -6   7   5   17.70    2.05
   6   7  -4    0.84    1.21
   6   7  -4   -0.18    1.79
  -6   7   4   -0.10    1.47
   6   7  -4    0.15    1.55
  -6   7   4    1.56    1.55
   6   7  -3   27.86    2.42
  -6   7   3   25.36    2.00
   6   7  -3   25.82    1.74
   6   7  -3   22.01    2.02
  -6   7   3   29.10    2.18
   6   7  -2    0.87    1.33
  -6   7   2    0.74    1.52
  -6   7   2    1.43    1.31
   6   7  -2    1.51    1.44
  -6   7   2    1.22    1.65
  -6   7   1   31.83    2.27
  -6   7   1   26.71    1.78
   6   7  -1   28.30    2.09
  -6   7   1   34.88    2.38
  -6   7   0    1.92    1.62
  -6   7   0    3.48    1.16
   6   7   0    2.09    1.46
  -6   7   0    2.78    1.80
  -6   7  -1   29.09    2.24
  -6   7  -1   29.47    1.63
   6   7   1   29.15    2.45
   6   7   1   28.87    2.15
  -6   7  -1   35.57    2.56
  -6   7  -2    6.06    1.96
   6   7   2    6.19    1.61
   6   7   2    7.02    1.95
  -6   7  -2    7.52    2.02
  -6   7  -3    7.83    2.18
   6   8  -5    0.94    1.18
  -6   8   5    1.74    1.66
  -6   8   5    0.77    1.94
  -6   8   5    0.28    1.73
   6   8  -4    3.98    1.36
   6   8  -4    3.28    2.03
  -6   8   4    5.15    1.69
   6   8  -4    1.96    1.61
  -6   8   4    5.26    1.82
   6   8  -3    5.20    1.42
   6   8  -3    6.15    1.94
  -6   8   3    5.52    1.53
   6   8  -3    4.29    1.69
  -6   8   3    4.70    1.84
  -6   8   2   33.74    2.38
  -6   8   2   28.77    2.02
   6   8  -2   29.09    2.06
   6   8  -2   26.11    2.26
  -6   8   2   28.98    2.43
   6   8  -1    2.07    1.56
  -6   8   1    0.83    1.66
  -6   8   1    0.94    1.34
  -6   8   1    0.99    1.86
  -6   8   0    2.94    1.66
  -6   8   0    3.47    1.14
   6   8   0    2.80    1.77
   6   8   0    2.67    1.75
   6   8   1    2.01    1.64
   6   8   1   -0.25    1.79
  -6   8  -1    0.66    1.91
   6   8   2   12.54    2.02
  -6   8  -2   12.58    2.38
  -6   8  -3   -0.87    2.12
  -6   9   5    7.82    1.98
  -6   9   5   10.92    2.58
   6   9  -4   -0.42    1.42
  -6   9   4    0.36    1.73
   6   9  -3   11.12    1.64
  -6   9   3   10.10    1.64
  -6   9   2   -0.21    1.50
   6   9  -2    0.34    1.76
   6   9  -1    8.03    1.82
   6   9   0    0.18    1.72
  -6  10   4    2.05    1.92
   6  10  -2    5.35    1.86
   6  10  -1    1.38    1.74
   7  -9  -4    7.88    2.07
  -7  -9   4    3.89    1.50
  -7  -9   3    0.66    1.51
   7  -9  -3    0.09    1.81
  -7  -9   2    6.21    1.66
  -7  -9   2    9.63    1.99
  -7  -9   1    1.75    1.72
  -7  -8   5   13.05    1.73
  -7  -8   4    3.31    1.69
   7  -8  -4    5.63    1.99
   7  -8  -3    3.64    1.80
  -7  -8   3    2.30    1.36
  -7  -8   3    2.95    1.60
  -7  -8   2    0.91    1.39
  -7  -8   2    0.56    1.55
   7  -8  -2   -0.08    1.54
   7  -8  -1   14.99    1.75
  -7  -8   1   13.14    1.92
  -7  -8   1   13.96    2.00
  -7  -8   0    1.64    1.78
  -7  -7   6    4.71    1.51
  -7  -7   5    0.78    1.40
   7  -7  -5    1.12    1.99
  -7  -7   4   22.28    1.41
  -7  -7   4   12.34    1.67
   7  -7  -4   21.37    2.24
   7  -7  -4   13.34    2.34
   7  -7  -3    1.30    1.66
  -7  -7   3    0.91    1.20
  -7  -7   3    0.90    1.56
   7  -7  -3    1.42    1.85
  -7  -7   2   11.43    1.56
   7  -7  -2   11.10    1.74
  -7  -7   2   11.68    1.83
   7  -7  -2   12.49    2.21
   7  -7  -1    8.93    1.57
  -7  -7   1    7.72    1.80
   7  -7  -1    8.75    1.96
   7  -7   0   15.56    1.62
  -7  -6   8   -0.23    1.49
  -7  -6   7    8.47    1.53
  -7  -6   6    2.24    1.31
  -7  -6   5   26.72    2.03
   7  -6  -5   26.05    2.67
  -7  -6   4   17.05    1.28
  -7  -6   4   15.34    1.74
   7  -6  -4   16.27    2.22
  -7  -6   3   23.25    1.50
  -7  -6   3   19.36    1.83
   7  -6  -3   23.33    2.13
   7  -6  -3   21.17    2.42
  -7  -6   2    5.71    1.56
   7  -6  -2    5.25    1.62
   7  -6  -2    4.43    1.83
   7  -6  -1   31.55    2.11
   7  -6  -1   23.79    2.41
  -7  -6   0    4.52    1.60
   7  -6   0    5.26    1.36
   7  -6   0    3.25    1.76
  -7  -6  -1    8.67    1.87
   7  -6   1    8.66    1.35
   7  -6   1    8.95    2.08
   7  -6   2    0.53    1.19
  -7  -5   9    3.82    1.65
  -7  -5   8   11.47    1.76
  -7  -5   7    6.02    1.52
  -7  -5   6   23.44    1.97
   7  -5  -6   28.77    2.55
   7  -5  -6   25.29    2.60
  -7  -5   5    3.26    0.55
  -7  -5   5    3.39    1.35
   7  -5  -5    5.80    1.73
   7  -5  -5    4.99    2.04
  -7  -5   4   23.14    1.36
  -7  -5   4   23.45    1.84
   7  -5  -4   26.01    2.40
   7  -5  -3    1.96    1.46
   7  -5  -3    2.59    0.90
   7  -5  -3    1.73    1.67
  -7  -5   2   22.55    1.30
   7  -5  -2   23.46    1.91
  -7  -5   2   21.66    1.85
   7  -5  -2   20.53    2.20
   7  -5  -1    7.94    1.47
  -7  -5   1    7.41    1.65
   7  -5  -1    7.30    1.73
   7  -5   0   37.16    2.13
  -7  -5   0   38.88    2.52
   7  -5   0   33.33    2.45
  -7  -5  -1   11.25    1.82
   7  -5   1   11.14    1.93
   7  -5   1   12.14    1.46
  -7  -5  -2   18.87    2.21
   7  -5   2   18.34    1.65
   7  -5   2   16.41    2.17
   7  -5   3    8.36    1.44
  -7  -4   9    5.49    1.73
  -7  -4   8    2.17    1.55
   7  -4  -7   34.04    1.64
  -7  -4   7   31.01    2.17
  -7  -4   6    8.52    1.51
   7  -4  -6   11.05    2.07
   7  -4  -6    8.72    2.04
  -7  -4   5   16.86    0.82
  -7  -4   5   19.69    1.79
   7  -4  -5   19.32    2.22
   7  -4  -4   40.07    2.46
   7  -4  -4   32.70    2.59
  -7  -4   3   85.30    3.45
   7  -4  -3   92.58    2.83
   7  -4  -3   90.79    3.92
  -7  -4   2   25.06    1.97
   7  -4  -2   27.96    1.08
   7  -4  -2   26.63    2.21
  -7  -4   2   30.65    1.60
   7  -4  -1   37.42    2.17
  -7  -4   1   33.18    2.15
   7  -4  -1   30.63    2.37
  -7  -4   0    5.40    1.53
   7  -4   0    4.08    1.35
   7  -4   0    4.80    1.60
  -7  -4  -1   18.55    1.99
   7  -4   1   17.62    2.02
   7  -4   1   19.53    1.72
   7  -4   2    3.79    1.36
  -7  -4  -2    3.20    1.66
   7  -4   2    2.99    1.71
  -7  -4  -3   18.23    1.57
   7  -4   3   20.59    1.77
   7  -4   4    4.00    1.49
  -7  -3   9    9.45    1.86
   7  -3  -8    8.44    1.40
  -7  -3   8    8.30    1.74
  -7  -3   7   13.90    1.74
   7  -3  -7   19.94    2.23
   7  -3  -6   64.41    2.53
   7  -3  -6   78.53    3.55
  -7  -3   5   13.73    1.60
   7  -3  -5   15.61    1.93
   7  -3  -5   14.19    2.12
  -7  -3   4   31.92    2.10
   7  -3  -4   39.12    2.34
   7  -3  -4   32.81    2.48
  -7  -3   3    5.14    1.34
   7  -3  -3    7.63    1.58
   7  -3  -3    6.47    1.60
   7  -3  -2   21.13    1.82
  -7  -3   2   21.51    1.73
   7  -3  -2   20.82    0.90
   7  -3  -2   19.06    1.90
  -7  -3   1    7.59    1.45
   7  -3  -1    6.74    1.61
  -7  -3   0   68.31    3.07
   7  -3   0   71.38    3.22
   7  -3   0   75.87    3.03
  -7  -3  -1   40.68    2.47
   7  -3   1   37.54    2.49
   7  -3   1   39.33    2.15
  -7  -3  -2   12.95    1.87
   7  -3   2   12.62    1.87
   7  -3   2   14.32    1.62
   7  -3   3    7.38    1.56
  -7  -3  -3    7.62    2.09
  -7  -3  -4   20.40    1.87
   7  -3   4   23.57    2.11
  -7  -3  -5    5.39    1.73
   7  -3   5    6.70    1.61
   7  -2  -9    8.36    1.72
  -7  -2   9    8.77    1.86
   7  -2  -8    1.28    1.38
  -7  -2   8    1.08    1.65
   7  -2  -8    0.68    1.91
   7  -2  -7   56.59    2.54
   7  -2  -7   61.74    3.31
  -7  -2   6   22.85    1.92
   7  -2  -6   28.81    2.28
   7  -2  -5   15.14    1.22
  -7  -2   5   11.41    1.57
   7  -2  -5   12.60    1.87
   7  -2  -5   12.77    1.98
  -7  -2   4   29.78    1.93
   7  -2  -4   35.99    2.27
   7  -2  -4   31.88    2.39
   7  -2  -3  200.46    6.07
  -7  -2   3  193.75    5.98
   7  -2  -3  183.41    6.11
   7  -2  -2   77.38    3.12
  -7  -2   2   71.10    2.98
   7  -2  -2   75.43    3.29
   7  -2  -1   21.98    1.80
  -7  -2   1   17.29    1.75
   7  -2  -1   18.68    1.80
  -7  -2   0    5.71    1.42
   7  -2   0    6.08    1.41
  -7  -2  -1   46.74    2.53
   7  -2   1   41.37    2.47
   7  -2   1   43.09    2.26
  -7  -2  -2    8.68    1.68
   7  -2   2   10.14    1.53
  -7  -2  -3   25.17    2.29
   7  -2   3   25.07    1.97
   7  -2   4    7.36    1.78
  -7  -2  -5    1.02    1.53
   7  -2   5    0.36    1.55
   7  -1 -10   35.72    2.74
   7  -1  -9   12.28    1.93
  -7  -1   9   10.03    1.86
   7  -1  -8    1.85    1.57
   7  -1  -8    0.92    1.94
   7  -1  -7   21.00    1.75
  -7  -1   7   19.62    1.96
   7  -1  -7   22.02    2.13
   7  -1  -6  117.41    4.06
  -7  -1   6  119.77    4.38
   7  -1  -6  130.14    4.66
  -7  -1   5   28.66    1.22
   7  -1  -5   28.19    1.76
  -7  -1   5   24.22    1.84
   7  -1  -5   31.46    2.14
   7  -1  -5   23.52    2.10
  -7  -1   4   55.05    1.99
   7  -1  -4   54.47    2.80
  -7  -1   4   46.61    2.49
  -7  -1   4   52.42    1.79
  -7  -1   3    3.96    0.87
   7  -1  -3    2.99    1.27
  -7  -1   3    3.35    1.39
   7  -1  -2    4.43    1.26
  -7  -1   2    4.32    1.25
  -7  -1   2    5.68    0.97
   7  -1  -1    3.30    1.33
  -7  -1   1    2.96    1.21
   7  -1  -1    1.80    0.33
  -7  -1   0  125.66    4.36
   7  -1   0  132.26    4.36
  -7  -1   0  122.76    4.20
  -7  -1  -1   54.12    2.63
   7  -1   2    1.32    1.35
  -7  -1  -2    1.94    1.57
   7  -1   3    6.22    1.57
  -7  -1  -3    5.78    1.73
  -7  -1  -4   30.87    2.67
   7  -1   4   35.45    2.59
   7  -1   5   13.11    1.95
   7   0  -9   10.98    2.11
   7   0  -8    0.82    1.85
   7   0  -8    0.72    1.64
  -7   0   8    0.52    1.55
   7   0  -7   62.42    2.96
  -7   0   7   52.41    2.80
   7   0  -7   61.37    3.15
  -7   0   6   45.34    1.44
   7   0  -6   47.64    2.43
  -7   0   6   47.03    2.56
   7   0  -6   49.83    2.77
   7   0  -5    0.68    1.36
  -7   0   5    0.22    0.59
  -7   0   5   -0.22    0.78
   7   0  -5    0.02    1.15
  -7   0   5   -0.58    1.26
  -7   0   4   44.85    1.70
  -7   0   4   50.87    1.89
   7   0  -4   43.99    2.23
   7   0  -4   43.92    2.45
  -7   0   4   41.85    2.32
   7   0  -4   41.90    2.37
  -7   0   3  221.49    5.99
   7   0  -3  225.85    6.70
  -7   0   3  225.51    6.62
   7   0  -3  213.65    6.59
  -7   0   2  108.89    3.44
   7   0  -2  110.68    3.95
  -7   0   2  107.40    3.88
   7   0  -2  101.97    3.75
   7   0  -1   11.36    1.45
  -7   0   1   11.67    1.31
  -7   0   1   10.23    1.41
   7   0  -1   12.84    0.77
   7   0  -1   12.02    1.41
  -7   0   0    4.35    1.36
   7   0   0    3.56    1.29
   7   0   0    3.61    1.23
  -7   0  -1   64.21    2.86
   7   0   1   64.00    2.80
   7   0   1   68.30    2.91
  -7   0  -1   67.83    2.99
  -7   0  -2    8.86    1.78
  -7   0  -2    8.52    1.66
   7   0   2    9.18    1.59
   7   0   3   22.26    2.01
  -7   0  -4   15.26    2.15
   7   0   4   13.10    2.11
   7   1  -9   11.84    2.11
   7   1  -9   11.33    2.23
   7   1  -8    0.20    1.77
  -7   1   8   -0.06    1.67
  -7   1   7   22.16    1.03
   7   1  -7   22.76    2.15
  -7   1   7   22.22    2.08
   7   1  -7   23.41    2.17
  -7   1   6  116.24    3.32
   7   1  -6  121.40    4.31
   7   1  -6  122.21    4.48
  -7   1   6  114.28    4.17
  -7   1   5   28.15    1.35
  -7   1   5   30.89    1.53
   7   1  -5   28.17    2.13
  -7   1   5   29.36    2.11
  -7   1   4   56.24    2.07
  -7   1   4   55.39    2.16
   7   1  -4   50.23    2.59
  -7   1   4   50.74    2.57
   7   1  -4   46.87    2.48
  -7   1   3    4.21    0.95
   7   1  -3    3.47    1.29
  -7   1   3    1.63    1.23
   7   1  -3    3.79    1.16
   7   1  -2    4.76    1.24
  -7   1   2    5.82    1.37
   7   1  -2    5.42    0.90
   7   1  -2    5.74    1.24
  -7   1   1    3.63    1.36
   7   1  -1    2.75    1.33
   7   1  -1    3.15    0.70
   7   1  -1    2.35    1.06
  -7   1   0  125.37    4.35
   7   1   0  133.01    3.55
   7   1   0  132.89    4.21
   7   1   0  127.76    4.46
  -7   1  -1   53.85    2.68
  -7   1  -1   51.70    2.57
   7   1   1   52.30    2.57
   7   1   2    2.46    1.44
  -7   1  -2    2.41    1.53
  -7   1  -2    1.46    1.42
   7   1   3    7.67    1.79
  -7   1  -3    7.72    1.96
  -7   1  -3    6.42    1.63
  -7   1  -4   35.19    2.59
   7   1   4   37.29    2.72
   7   2  -9   10.12    2.06
   7   2  -8    1.18    1.84
   7   2  -8    2.48    1.89
  -7   2   8    1.26    1.65
  -7   2   7   55.62    2.02
  -7   2   7   51.97    2.83
  -7   2   6   27.76    1.44
   7   2  -6   25.99    2.18
  -7   2   6   23.12    2.10
  -7   2   5   11.76    1.08
   7   2  -5    9.20    1.59
   7   2  -5   10.04    1.68
  -7   2   5   10.61    1.52
  -7   2   4   42.07    1.73
   7   2  -4   35.50    2.16
   7   2  -4   37.01    2.27
  -7   2   4   37.31    2.28
   7   2  -4   39.67    2.10
   7   2  -3  198.40    6.05
  -7   2   3  186.01    5.87
   7   2  -3  188.22    5.58
   7   2  -2   72.95    3.10
  -7   2   2   82.28    2.97
   7   2  -2   82.05    2.50
  -7   2   2   71.54    3.03
   7   2  -2   76.05    2.67
   7   2  -2   74.53    2.74
  -7   2   1   23.97    1.89
   7   2  -1   21.61    1.40
   7   2  -1   22.48    1.30
   7   2  -1   23.33    1.90
  -7   2   0    6.43    1.39
   7   2   0    5.78    1.47
   7   2   0    5.63    0.84
   7   2   0    5.76    1.08
  -7   2  -1   43.23    2.49
  -7   2  -1   41.71    2.30
   7   2   1   44.52    1.63
   7   2   1   43.21    2.48
  -7   2  -2    9.90    1.93
  -7   2  -2   10.46    1.58
   7   2   2   11.19    1.79
  -7   2  -3   24.35    2.41
  -7   2  -3   24.76    1.97
   7   2   3   22.93    2.24
  -7   2  -4    9.23    1.99
  -7   2  -5    1.76    1.66
   7   3  -9    9.84    2.07
   7   3  -8    8.51    2.08
   7   3  -7   15.07    1.88
   7   3  -7   16.79    2.24
  -7   3   7   13.54    2.03
   7   3  -6   70.46    3.31
  -7   3   6   70.27    3.17
   7   3  -5   14.36    1.79
   7   3  -5   15.87    1.90
  -7   3   5   16.78    1.77
   7   3  -5   13.67    1.47
   7   3  -4   34.95    2.28
  -7   3   4   37.81    1.84
   7   3  -4   36.99    2.38
  -7   3   4   38.57    2.30
  -7   3   4   41.29    1.68
   7   3  -4   35.06    1.98
  -7   3   3    8.79    1.20
   7   3  -3    7.92    1.46
  -7   3   3    9.60    1.06
  -7   3   3    6.75    1.48
   7   3  -3    7.42    1.18
   7   3  -3    8.31    1.16
   7   3  -3    7.65    1.48
   7   3  -2   25.01    1.22
  -7   3   2   22.14    1.90
   7   3  -2   21.34    1.30
   7   3  -2   21.67    1.83
  -7   3   1    7.60    1.43
   7   3  -1    7.76    1.49
   7   3  -1    6.70    0.96
   7   3  -1    9.84    1.09
  -7   3   0   76.92    3.17
  -7   3   0   67.70    2.87
   7   3   0   74.23    2.53
   7   3   0   70.51    3.07
  -7   3  -1   39.04    2.41
  -7   3  -1   35.50    2.15
   7   3   1   36.73    2.32
   7   3   1   35.88    1.65
  -7   3  -2   12.97    2.01
  -7   3  -2   14.68    1.70
   7   3   2   12.94    1.88
  -7   3  -3    6.82    2.07
  -7   3  -3    7.73    1.47
   7   3   3    5.87    1.91
  -7   3  -4   23.64    2.26
  -7   3  -5    4.52    1.66
   7   4  -9    7.66    1.98
   7   4  -8    2.31    1.69
   7   4  -7   29.11    2.32
   7   4  -7   34.50    2.81
  -7   4   7   32.22    2.45
   7   4  -6   10.23    1.61
   7   4  -6   11.90    2.04
  -7   4   6   12.50    1.89
   7   4  -5   18.01    1.85
  -7   4   5   20.59    1.61
   7   4  -5   19.74    2.12
  -7   4   5   20.93    2.05
   7   4  -5   20.65    1.65
  -7   4   4   38.96    2.00
   7   4  -4   39.53    2.58
  -7   4   4   36.59    2.29
  -7   4   4   42.47    2.54
   7   4  -4   39.17    1.86
  -7   4   3   95.23    3.44
   7   4  -3  103.41    2.80
   7   4  -3   91.27    3.91
  -7   4   3   90.55    3.70
   7   4  -3   94.14    3.56
   7   4  -3   93.08    2.97
  -7   4   3   99.99    3.95
   7   4  -3   88.08    3.69
   7   4  -2   29.82    1.32
   7   4  -2   25.72    1.22
   7   4  -2   24.59    1.68
  -7   4   2   28.23    2.24
   7   4  -2   27.43    1.97
  -7   4   1   38.53    2.20
  -7   4   1   34.30    2.09
   7   4  -1   34.30    1.86
   7   4  -1   32.05    2.13
  -7   4   0    4.14    1.54
   7   4   0    3.70    1.57
  -7   4   0    2.88    1.20
   7   4   0    6.17    1.11
  -7   4  -1   21.80    2.08
  -7   4  -1   19.97    1.74
   7   4   1   22.87    2.13
   7   4   1   25.97    1.45
   7   4   2    5.49    1.77
  -7   4  -2    4.97    1.81
  -7   4  -2    3.45    1.49
  -7   4  -3   16.88    1.74
  -7   4  -4    5.40    1.72
   7   5  -9    3.94    1.73
   7   5  -8   12.23    1.85
   7   5  -7    5.86    1.66
  -7   5   7    6.31    2.03
  -7   5   7   10.39    2.33
   7   5  -6   28.28    2.39
   7   5  -6   29.92    2.63
  -7   5   6   27.22    2.34
  -7   5   5    3.65    1.30
   7   5  -5    6.05    1.98
  -7   5   5    2.59    1.63
   7   5  -5    4.18    1.50
  -7   5   5    4.77    1.79
   7   5  -5    4.27    1.10
  -7   5   4   26.88    1.86
   7   5  -4   28.30    2.42
   7   5  -4   25.84    1.23
  -7   5   4   26.10    2.19
   7   5  -4   22.53    1.93
   7   5  -3    3.64    1.74
  -7   5   3    3.37    1.50
   7   5  -3    2.42    0.41
   7   5  -3    3.93    1.42
  -7   5   3    3.40    1.69
   7   5  -2   24.87    1.28
  -7   5   2   29.38    1.37
  -7   5   2   22.80    1.96
   7   5  -2   24.86    1.95
   7   5  -2   19.74    1.84
  -7   5   2   24.97    2.21
  -7   5   1    8.58    1.55
   7   5  -1    7.98    1.62
  -7   5   1    9.37    1.48
   7   5  -1    9.35    1.39
  -7   5   1    9.67    1.89
  -7   5   0   38.83    2.53
  -7   5   0   32.85    2.00
   7   5   0   35.97    2.33
   7   5   0   37.50    2.05
  -7   5  -1    9.72    1.90
  -7   5  -1    9.84    1.53
   7   5   1   11.58    1.83
   7   5   1    9.87    1.44
  -7   5  -2   17.13    2.21
  -7   5  -2   18.29    1.73
   7   5   2   22.14    2.29
  -7   5  -3    6.21    1.39
   7   6  -8   -0.10    1.61
  -7   6   7   12.51    2.15
   7   6  -7    9.38    1.78
   7   6  -6    2.33    1.61
   7   6  -5   30.36    2.86
   7   6  -5   27.47    2.40
  -7   6   5   34.55    2.58
   7   6  -5   28.59    2.25
  -7   6   4   17.91    1.88
   7   6  -4   15.17    2.20
  -7   6   4   15.06    1.86
  -7   6   4   20.30    2.20
   7   6  -4   16.27    1.82
   7   6  -3   21.44    2.33
  -7   6   3   23.20    2.00
   7   6  -3   20.96    1.97
   7   6  -3   20.65    1.83
  -7   6   3   25.58    2.34
  -7   6   2    3.92    1.59
  -7   6   2    4.38    1.57
   7   6  -2    3.57    1.46
  -7   6   2    6.85    1.93
  -7   6   1   30.02    2.22
  -7   6   1   25.44    1.94
   7   6  -1   24.32    1.97
  -7   6   1   29.55    2.60
   7   6   0    4.72    1.67
  -7   6   0    6.03    1.83
  -7   6   0    3.79    1.32
   7   6   0    4.95    1.45
   7   6   1   10.86    2.11
  -7   6  -1   11.62    2.13
  -7   6  -1   10.65    1.48
   7   6   1    7.89    1.59
  -7   6  -1    9.53    2.24
  -7   6  -2    0.63    1.45
   7   6   2    0.98    1.49
   7   7  -6    6.08    1.60
   7   7  -5   -0.12    1.43
  -7   7   5   -1.20    1.75
   7   7  -5    0.23    1.78
  -7   7   4   16.50    1.99
   7   7  -4   15.20    2.37
  -7   7   4   15.38    1.91
   7   7  -4   14.05    1.82
  -7   7   4   14.77    2.13
   7   7  -3    1.93    1.54
   7   7  -3    2.09    1.89
  -7   7   3    0.88    1.59
   7   7  -3    0.65    1.72
  -7   7   3    1.31    1.77
  -7   7   2   15.61    1.95
  -7   7   2   13.33    1.77
   7   7  -2   14.06    1.84
   7   7  -2   13.79    1.94
  -7   7   2   16.14    2.20
  -7   7   1   10.53    1.82
   7   7  -1    8.61    1.93
  -7   7   1    8.84    1.74
   7   7  -1    9.32    1.84
  -7   7   1    9.99    2.25
  -7   7   0   11.87    1.52
   7   7   0   12.57    1.90
  -7   7  -1    0.84    1.20
   7   7   1    1.45    1.55
  -7   7  -1    2.25    1.99
   7   7   2   10.09    1.89
  -7   7  -2   12.25    2.38
   7   8  -5   15.18    1.73
   7   8  -4    3.19    1.62
  -7   8   4    3.93    1.71
   7   8  -3    2.87    1.62
  -7   8   3    3.35    1.72
   7   8  -2    0.53    1.60
  -7   8   2    0.38    1.60
   7   8  -2   -0.85    1.75
   7   8  -1   10.36    1.96
  -7   8   1   13.52    1.78
   7   8  -1   12.58    2.16
   7   8   0    3.61    1.89
   7   9  -4    7.29    1.72
  -7   9   4    5.55    1.87
   7   9  -3   -0.11    1.62
  -7   9   3    1.08    1.72
   7   9  -2    9.50    2.00
   8  -8  -3   11.16    2.19
  -8  -8   2    1.22    1.62
   8  -8  -2    1.31    1.71
  -8  -7   6    4.31    1.75
  -8  -7   5    1.38    1.69
  -8  -7   4    4.35    1.79
   8  -7  -4    5.31    2.16
  -8  -7   3    5.31    1.47
  -8  -7   3    4.46    1.94
   8  -7  -3    6.28    1.93
   8  -7  -2    1.18    1.67
   8  -7  -1    7.17    1.73
  -8  -6   7    4.66    1.65
  -8  -6   6    3.03    1.78
   8  -6  -5    9.20    2.21
  -8  -6   5    7.40    1.84
   8  -6  -4   15.15    2.31
  -8  -6   4   10.47    1.89
   8  -6  -3   21.52    2.18
  -8  -6   3   16.90    2.07
   8  -6  -2   11.49    1.98
  -8  -6   2    9.59    2.01
   8  -6  -1    8.16    1.81
   8  -6   0    4.51    1.62
   8  -6   1    3.65    1.47
  -8  -5   7    2.38    1.82
  -8  -5   6   11.29    1.82
  -8  -5   5    8.95    1.65
   8  -5  -5   10.22    2.33
  -8  -5   4    4.06    1.71
   8  -5  -4    5.92    2.04
   8  -5  -4    7.68    2.17
   8  -5  -3    9.69    1.91
   8  -5  -3    9.17    2.19
   8  -5  -2   12.70    1.88
  -8  -5   2    9.48    1.81
   8  -5  -2   10.63    2.07
   8  -5  -1    8.88    1.80
  -8  -5   1    9.63    1.98
   8  -5  -1    7.94    2.02
  -8  -5   0   14.91    2.10
   8  -5   0   14.90    2.13
   8  -5   0   15.59    1.90
   8  -5   1   11.60    1.63
   8  -5   2   10.78    1.69
  -8  -4   7    4.43    1.67
  -8  -4   6   25.60    2.30
   8  -4  -6   24.61    2.82
  -8  -4   5   24.87    2.18
   8  -4  -5   30.20    2.59
   8  -4  -5   27.77    2.73
   8  -4  -4   17.23    2.21
   8  -4  -4   11.92    2.16
  -8  -4   3   15.15    1.90
   8  -4  -3   13.42    2.24
   8  -4  -2   29.58    2.25
  -8  -4   2   26.65    2.19
   8  -4  -2   27.10    2.41
   8  -4  -1   25.94    2.18
  -8  -4   1   21.68    2.18
   8  -4  -1   20.59    2.24
  -8  -4   0    4.69    1.83
   8  -4   0    4.70    1.60
   8  -4   0    5.49    1.86
   8  -4   1    6.06    1.61
   8  -4   1    3.59    1.90
   8  -4   2    0.37    1.62
   8  -4   3    5.05    1.70
  -8  -3   8   13.16    2.12
  -8  -3   7    1.78    1.80
   8  -3  -7    1.46    2.10
   8  -3  -6   11.83    2.17
   8  -3  -6    9.12    2.34
  -8  -3   5   27.65    2.24
   8  -3  -5   32.65    2.63
   8  -3  -5   29.83    2.68
   8  -3  -4   11.72    1.91
  -8  -3   4   10.64    1.80
   8  -3  -4   10.56    2.09
   8  -3  -3   22.82    2.11
  -8  -3   3   16.81    1.83
   8  -3  -3   19.00    2.30
  -8  -3   2   34.98    2.35
   8  -3  -2   33.00    2.36
  -8  -3   1    6.07    1.64
   8  -3  -1    7.62    1.87
   8  -3  -1    9.35    1.72
  -8  -3   0   11.87    1.91
   8  -3   0   11.47    1.83
   8  -3   0   10.25    1.94
  -8  -3  -1   39.77    2.79
   8  -3   1   38.79    2.41
   8  -3   2   16.99    1.94
   8  -3   3    3.46    1.73
   8  -2  -8    4.31    1.52
  -8  -2   8    4.51    1.84
   8  -2  -7    0.91    1.30
   8  -2  -7    1.69    2.01
  -8  -2   6   55.65    3.06
   8  -2  -6   62.55    3.36
  -8  -2   5   45.15    2.66
   8  -2  -5   58.34    3.13
   8  -2  -4   11.16    1.94
  -8  -2   4    9.33    1.75
   8  -2  -3   12.54    1.87
  -8  -2   3   10.71    1.63
   8  -2  -2   72.13    3.29
  -8  -2   2   63.46    3.05
   8  -2  -2   68.25    1.98
   8  -2  -1   38.25    2.42
  -8  -2   1   39.61    2.49
  -8  -2   0    1.77    1.66
   8  -2   1    8.21    1.67
  -8  -2  -1    6.33    1.81
   8  -2   1    6.65    1.78
   8  -2   2    0.83    1.62
  -8  -2  -2    1.96    1.79
   8  -2   3    5.93    1.79
  -8  -2  -4    7.72    1.88
   8  -1  -9   28.31    2.39
   8  -1  -8   25.21    2.10
   8  -1  -7    2.57    1.83
   8  -1  -7    2.85    1.58
  -8  -1   7    1.10    1.68
   8  -1  -6    0.85    1.83
   8  -1  -6    1.71    1.41
  -8  -1   6    2.01    1.57
   8  -1  -6   -0.60    2.23
   8  -1  -5   33.78    2.60
  -8  -1   5   28.34    2.25
   8  -1  -5   32.21    2.55
   8  -1  -4   30.11    2.40
  -8  -1   4   29.39    2.14
   8  -1  -4   30.59    2.39
   8  -1  -3   41.82    2.55
  -8  -1   3   39.37    2.52
   8  -1  -3   39.31    2.57
  -8  -1   3   43.04    1.95
   8  -1  -2   63.31    3.09
  -8  -1   2   52.55    2.78
   8  -1  -2   64.39    1.98
   8  -1  -2   53.95    2.87
  -8  -1   2   65.54    2.55
  -8  -1   1    1.96    1.20
  -8  -1   1    0.85    1.54
   8  -1  -1    2.56    1.48
   8  -1  -1    0.97    1.45
  -8  -1   0    0.99    1.60
   8  -1   0    0.64    1.51
   8  -1   0    0.72    1.45
  -8  -1  -1   54.21    3.02
   8  -1   1   55.60    2.91
  -8  -1  -2   33.43    2.56
   8  -1   2   31.17    2.41
   8  -1   3    0.46    1.73
   8   0  -9    8.13    2.05
   8   0  -8    4.97    1.90
   8   0  -7    0.67    1.92
   8   0  -7    0.09    1.52
  -8   0   7   -0.91    1.80
  -8   0   6   77.76    2.23
   8   0  -6   71.48    3.27
   8   0  -6   77.91    3.66
  -8   0   6   66.86    3.39
   8   0  -6   74.83    3.64
  -8   0   5   67.74    2.15
   8   0  -5   59.92    2.85
   8   0  -5   61.71    3.16
  -8   0   5   59.97    3.05
   8   0  -5   56.69    3.11
  -8   0   4   13.53    1.15
   8   0  -4   11.52    1.76
  -8   0   4   10.91    1.68
   8   0  -4   11.79    1.88
   8   0  -3    4.42    1.59
  -8   0   3    4.36    1.54
   8   0  -3    5.14    1.51
  -8   0   2  109.79    3.72
   8   0  -2  103.69    4.11
  -8   0   2  101.56    3.99
   8   0  -2  111.60    3.20
   8   0  -2   95.95    3.87
  -8   0   1   35.88    2.15
  -8   0   1   34.44    2.39
   8   0  -1   35.80    1.22
   8   0  -1   35.49    2.21
   8   0  -1   36.36    2.45
  -8   0   0   -0.08    1.41
   8   0   0   -1.27    1.65
  -8   0   0   -0.46    1.67
   8   0   0   -0.28    1.48
  -8   0  -1    8.54    1.89
   8   0   1    8.88    1.70
  -8   0  -1    9.03    1.80
   8   1  -8   23.90    2.43
   8   1  -7    0.22    1.71
  -8   1   7    0.71    1.64
   8   1  -7    2.22    1.91
  -8   1   6    1.67    0.83
   8   1  -6    1.93    1.62
  -8   1   6    0.51    1.75
   8   1  -6    1.50    1.74
   8   1  -6    1.66    1.92
  -8   1   5   36.52    1.65
   8   1  -5   33.59    2.40
   8   1  -5   34.78    2.39
   8   1  -5   36.13    2.44
  -8   1   4   20.57    1.25
   8   1  -4   27.33    2.18
  -8   1   4   26.38    2.18
   8   1  -4   26.68    2.13
  -8   1   3   43.89    2.01
   8   1  -3   41.99    2.60
  -8   1   3   39.45    2.47
   8   1  -3   42.85    2.39
   8   1  -2   60.38    2.98
  -8   1   2   62.47    2.61
  -8   1   2   60.38    3.04
   8   1  -2   59.91    2.20
   8   1  -2   54.87    2.60
  -8   1   1    1.73    1.31
  -8   1   1    1.49    1.43
   8   1  -1    1.85    1.51
   8   1  -1    1.58    0.75
   8   1  -1    2.42    1.19
  -8   1   0    2.02    1.48
   8   1   0    1.76    1.54
  -8   1   0    0.82    1.51
   8   1   0    1.53    0.47
   8   1   0    1.09    1.28
   8   1   1   55.55    2.97
  -8   1  -2   31.69    2.61
   8   1   2   33.03    2.57
  -8   1  -2   36.08    2.64
  -8   1  -3    1.98    1.81
   8   2  -8    5.99    2.06
  -8   2   7    1.30    0.88
   8   2  -7    1.21    1.80
  -8   2   7    0.24    1.62
  -8   2   6   65.27    2.26
   8   2  -6   54.71    3.13
   8   2  -6   61.42    3.25
  -8   2   6   55.33    3.13
   8   2  -6   59.58    3.09
   8   2  -5   50.11    2.90
  -8   2   5   54.19    2.91
   8   2  -5   54.50    2.77
  -8   2   4   12.42    1.41
   8   2  -4    9.63    1.82
  -8   2   4    8.99    1.74
   8   2  -4    9.09    1.47
   8   2  -3   10.68    1.76
  -8   2   3   12.51    1.42
  -8   2   3   11.07    1.80
   8   2  -3   12.75    1.40
   8   2  -3   11.81    1.44
  -8   2   2   71.46    2.88
  -8   2   2   65.74    3.23
   8   2  -2   68.38    2.73
   8   2  -2   68.30    2.49
   8   2  -2   71.69    3.24
  -8   2   1   45.16    2.38
  -8   2   1   35.39    2.43
   8   2  -1   38.02    2.09
   8   2  -1   41.53    1.76
   8   2  -1   41.80    2.62
   8   2   0    2.05    1.60
   8   2   0    2.14    0.83
  -8   2  -1    8.61    2.12
   8   2   1    7.76    1.87
  -8   2  -1    7.09    1.74
   8   2   2    3.44    1.94
  -8   2  -2    3.50    1.93
  -8   2  -2    1.95    1.75
  -8   2  -3    5.30    1.92
  -8   3   7    1.44    1.08
   8   3  -7    1.85    1.88
  -8   3   6   10.84    1.29
  -8   3   6   11.61    2.02
   8   3  -6   11.78    2.13
   8   3  -6   12.48    1.85
   8   3  -5   28.92    2.36
  -8   3   5   28.48    1.77
   8   3  -5   30.39    2.53
  -8   3   5   34.96    2.49
   8   3  -5   30.74    2.13
   8   3  -4   11.55    1.87
  -8   3   4   13.31    1.41
   8   3  -4   11.16    1.88
  -8   3   4   11.48    1.85
   8   3  -4   12.34    1.49
  -8   3   3   24.21    1.84
  -8   3   3   20.00    2.10
   8   3  -3   21.22    1.73
   8   3  -3   22.17    1.53
   8   3  -3   19.53    2.04
  -8   3   2   39.46    2.27
   8   3  -2   34.14    1.73
   8   3  -2   37.39    1.96
   8   3  -2   33.62    2.47
  -8   3   1    7.77    1.68
   8   3  -1    7.39    1.64
  -8   3   1    5.52    1.63
   8   3  -1    6.36    1.11
  -8   3   0   12.80    1.88
   8   3   0   11.32    1.17
   8   3   0   10.42    1.75
  -8   3  -1   36.67    2.66
  -8   3  -1   32.56    2.49
   8   3   1   33.31    2.50
  -8   3  -2   18.84    2.16
  -8   3  -3    3.06    1.68
  -8   4   7    5.62    1.29
   8   4  -7    4.68    1.88
   8   4  -6   22.27    2.34
  -8   4   6   25.92    1.80
   8   4  -6   27.51    2.75
  -8   4   6   25.55    2.42
   8   4  -6   26.13    2.00
   8   4  -5   29.12    2.43
  -8   4   5   32.74    1.91
   8   4  -5   31.05    2.67
  -8   4   5   32.05    2.55
   8   4  -5   32.47    1.97
  -8   4   4   16.15    1.65
   8   4  -4   15.09    2.19
  -8   4   4   15.20    2.09
   8   4  -4   13.56    1.77
   8   4  -4   15.11    1.35
  -8   4   3   14.68    1.69
   8   4  -3   15.38    1.14
   8   4  -3   14.86    1.72
   8   4  -3   14.52    1.92
  -8   4   2   30.57    2.31
   8   4  -2   29.60    1.41
   8   4  -2   32.48    1.99
   8   4  -2   27.60    2.29
  -8   4   1   23.33    2.17
   8   4  -1   22.09    1.68
   8   4  -1   21.64    2.07
  -8   4   0    4.87    1.87
   8   4   0    6.21    1.78
  -8   4   0    4.08    1.59
   8   4   0    6.16    1.30
  -8   4  -1    7.92    2.04
  -8   4  -1    5.08    1.65
   8   4   1    5.89    1.18
  -8   4  -2    2.93    1.75
  -8   4  -3    4.25    1.66
   8   5  -7    2.30    1.85
  -8   5   7    3.75    1.47
   8   5  -6   10.92    1.92
  -8   5   6   11.90    1.68
  -8   5   5   10.37    1.69
   8   5  -5    8.02    2.18
   8   5  -5    9.67    1.86
   8   5  -5    9.36    1.90
  -8   5   4    5.84    1.55
   8   5  -4    5.07    2.03
  -8   5   4    4.76    1.91
   8   5  -4    5.17    1.68
   8   5  -4    6.28    1.76
  -8   5   3    9.88    1.69
  -8   5   3   11.03    1.98
   8   5  -3   10.13    1.68
  -8   5   2   14.05    1.91
  -8   5   2   12.00    1.86
   8   5  -2   11.39    1.65
   8   5  -2   11.30    1.85
   8   5  -1    8.51    1.97
  -8   5   1    8.30    1.75
   8   5  -1    9.73    1.58
  -8   5   0   16.85    2.26
  -8   5   0   13.94    1.83
   8   5   0   15.04    2.22
   8   5   0   15.59    1.68
  -8   5  -1    8.44    1.71
   8   5   1    9.82    1.54
  -8   5  -2   10.69    1.83
  -8   6   7    5.45    1.73
   8   6  -7    2.76    1.82
  -8   6   6    4.76    1.69
   8   6  -6    5.37    1.74
  -8   6   5    9.45    1.79
   8   6  -5   10.06    1.87
  -8   6   5   10.78    2.25
   8   6  -5   10.21    2.12
  -8   6   4   14.83    1.93
  -8   6   4   11.86    2.16
   8   6  -4   11.76    1.98
   8   6  -4   12.57    1.92
  -8   6   3   21.19    2.15
  -8   6   3   19.45    2.10
   8   6  -3   17.97    2.12
   8   6  -3   18.21    2.11
  -8   6   2    8.27    1.79
   8   6  -2    7.14    1.72
  -8   6   1    5.56    2.00
  -8   6   1    6.85    1.91
   8   6  -1    6.69    1.70
  -8   6   0    4.68    1.65
   8   6   0    5.00    1.63
  -8   6  -1    5.51    1.64
   8   6   1    3.98    1.64
   8   7  -6    3.31    1.72
   8   7  -5    1.83    1.65
   8   7  -4    2.63    1.78
  -8   7   4    3.64    2.15
   8   7  -3    3.65    1.82
  -8   7   3    3.66    1.91
   8   7  -3    5.07    1.95
  -8   7   2    2.89    1.78
   8   7  -2    1.47    1.71
  -8   7   1    6.63    1.82
   8   7  -1    8.17    1.98
   8   7   0    8.24    1.86
   8   7   1   -0.23    1.88
  -8   8   3   10.89    2.19
  -8   8   2    0.29    1.77
   9  -6  -1    0.42    1.82
   9  -6   0    5.86    1.87
   9  -5  -3    7.22    2.07
   9  -5  -2    4.22    1.98
   9  -5  -1   11.37    2.03
   9  -5   0    5.23    1.88
   9  -5   1    8.22    1.87
   9  -4  -3    6.16    2.04
   9  -4  -2    9.36    2.20
   9  -4  -1    6.44    1.97
   9  -4   0    6.56    1.97
   9  -4   1    1.84    1.73
  -9  -3   5   11.36    2.11
   9  -3  -4   -0.21    1.98
  -9  -3   4    1.11    1.74
  -9  -3   3    9.34    2.05
   9  -3  -2   10.89    2.09
  -9  -3   2    9.29    2.06
   9  -3  -1   34.07    2.61
   9  -3   0    7.57    2.04
   9  -3   1    5.75    1.93
   9  -2  -6    1.03    2.22
   9  -2  -5   27.24    2.67
  -9  -2   5   25.19    2.51
   9  -2  -5   24.62    2.79
   9  -2  -4   50.93    3.14
  -9  -2   4   46.80    2.96
   9  -2  -4   48.65    3.13
   9  -2  -3    9.33    2.13
  -9  -2   3    9.75    1.80
   9  -2  -3   10.25    2.19
  -9  -2   2    2.49    1.86
   9  -2  -2    3.03    1.89
   9  -2  -2    3.01    1.89
  -9  -2   1   12.26    2.04
   9  -2  -1    9.66    2.16
   9  -2   0    9.03    1.98
   9  -2   0    9.83    2.16
   9  -1  -8    9.64    2.00
   9  -1  -7   21.19    2.09
   9  -1  -6    1.39    2.20
   9  -1  -5   14.79    2.27
  -9  -1   5   15.31    2.18
   9  -1  -5   15.41    2.32
   9  -1  -4    2.33    1.90
  -9  -1   4    2.58    1.86
   9  -1  -4    1.79    2.12
   9  -1  -3    8.13    2.14
  -9  -1   3    5.88    1.80
   9  -1  -3    9.10    1.09
   9  -1  -3    8.82    2.00
   9  -1  -2   12.09    2.01
  -9  -1   2   10.51    2.03
   9  -1  -2    9.41    2.08
  -9  -1   1   69.83    3.49
   9  -1  -1   67.96    3.31
   9  -1  -1   74.81    3.62
   9  -1   0    5.28    2.00
   9   0  -8   25.02    2.48
   9   0  -7    1.27    1.79
   9   0  -7   -0.94    2.45
   9   0  -6   -0.73    2.12
   9   0  -5   43.68    3.00
  -9   0   5   39.19    2.77
   9   0  -5   44.08    3.16
  -9   0   5   45.34    1.89
   9   0  -4   51.95    3.23
  -9   0   4   46.76    3.02
   9   0  -4   53.16    2.96
  -9   0   3   13.85    1.58
   9   0  -3   13.61    2.13
  -9   0   3   15.81    2.07
   9   0  -3   14.19    1.33
   9   0  -3   13.19    1.85
  -9   0   2    0.38    1.45
  -9   0   2   -0.28    1.71
   9   0  -2   -0.24    1.83
   9   0  -2    1.64    1.66
  -9   0   1   11.13    2.11
   9   0  -1   11.45    2.05
   9   0  -1   12.79    1.86
  -9   0   1   11.72    1.82
  -9   0   0   11.91    2.05
   9   0   0    9.94    1.76
   9   0   0   11.78    2.07
  -9   0   0   12.47    2.01
   9   1  -7   23.56    2.48
   9   1  -7   22.72    2.70
   9   1  -6    1.79    1.81
   9   1  -6    1.09    2.10
   9   1  -5   14.78    2.16
  -9   1   5   15.16    2.21
   9   1  -5   14.37    2.14
   9   1  -4    2.52    1.88
  -9   1   4    2.35    1.23
  -9   1   4    1.62    1.74
   9   1  -4    2.58    1.73
  -9   1   3    9.17    1.43
  -9   1   3    8.66    2.01
   9   1  -3    8.06    1.76
   9   1  -3    6.04    2.01
  -9   1   2   13.42    1.91
  -9   1   2   10.86    1.96
   9   1  -2   11.66    1.11
   9   1  -2   12.26    1.76
   9   1  -2   13.15    2.10
  -9   1   1   76.25    3.45
  -9   1   1   68.49    3.48
   9   1  -1   70.53    3.15
   9   1  -1   71.49    3.56
  -9   1   0    5.14    1.95
   9   2  -7    4.47    2.12
   9   2  -6    1.28    2.02
   9   2  -6    4.05    1.92
  -9   2   5   27.75    1.78
   9   2  -5   27.49    2.70
  -9   2   5   24.62    2.50
   9   2  -5   25.44    2.29
   9   2  -4   47.57    3.09
  -9   2   4   56.95    2.50
  -9   2   4   52.32    3.09
   9   2  -4   51.74    2.55
   9   2  -4   50.29    2.78
  -9   2   3   10.60    1.62
  -9   2   3   11.56    2.19
   9   2  -3   10.38    1.46
   9   2  -3    9.97    1.52
   9   2  -3    8.22    1.98
  -9   2   2    2.66    1.58
  -9   2   2    1.90    1.82
   9   2  -2    3.43    1.89
   9   2  -2    3.03    1.32
  -9   2   1   13.02    1.89
   9   2  -1   10.84    2.01
   9   2  -1    9.74    1.51
  -9   2   0   10.38    2.02
  -9   2   0   10.43    2.11
   9   3  -7   17.30    2.42
  -9   3   6    0.32    1.35
   9   3  -6    0.72    1.84
   9   3  -5   12.75    2.36
  -9   3   5   13.47    1.64
   9   3  -5   12.86    1.75
  -9   3   4    1.57    1.49
  -9   3   4    2.24    1.99
   9   3  -4    1.25    1.54
   9   3  -4   -0.31    1.80
   9   3  -4    1.77    1.29
  -9   3   3   11.02    1.72
   9   3  -3   10.14    2.12
   9   3  -3    9.29    1.49
   9   3  -3   11.33    1.54
  -9   3   2   11.95    1.78
   9   3  -2    9.36    2.05
  -9   3   2    7.77    2.04
   9   3  -2   11.25    1.49
   9   3  -2    9.77    1.39
  -9   3   1   37.14    2.53
  -9   3   1   30.15    2.56
  -9   3   0    8.65    1.93
  -9   4   6    3.48    1.42
  -9   4   5    8.24    1.57
   9   4  -5    7.79    1.93
  -9   4   4   32.91    2.30
   9   4  -4   28.74    2.36
  -9   4   3    8.02    1.86
  -9   4   3    8.14    2.09
   9   4  -3    5.31    1.67
  -9   4   2   10.26    1.99
  -9   4   2    7.46    2.30
   9   4  -2    8.21    1.55
  -9   4   1    4.34    1.91
  -9   4   1    3.79    1.95
   9   4  -1    4.75    1.38
  -9   4   0    9.79    2.12
  -9   5   6    0.44    1.52
  -9   5   5    9.84    1.80
   9   5  -5    8.47    1.96
  -9   5   4    0.59    1.55
   9   5  -4    1.91    1.62
  -9   5   3    7.42    1.92
  -9   5   3    3.94    1.95
   9   5  -3    7.04    1.81
  -9   5   2    2.77    2.15
   9   5  -2    4.18    1.61
  -9   5   1    9.45    2.18
   9   5  -1   10.31    1.63
  -9   5   0    6.06    1.97
   9   6  -3    3.37    1.88
   9   6  -2   11.10    1.92
  -9   6   1    0.77    1.88
   9   6  -1    1.10    1.66
  -9   6   0    4.35    1.92
  10  -1  -4   17.77    2.50
  10  -1  -3    3.63    2.22
  10  -1  -2    0.07    2.00
  10   0  -5    1.29    2.27
  10   0  -4    4.22    2.06
  10   0  -3   33.75    2.85
 -10   0   3   41.26    2.41
 -10   0   2    5.49    1.74
  10   0  -2    5.58    2.00
  10   0  -1    0.97    1.87
  10   1  -6    9.77    2.46
  10   1  -5    0.74    2.03
 -10   1   4   19.81    1.87
  10   1  -4   16.45    2.16
 -10   1   3    3.10    1.66
  10   1  -3    2.65    1.90
 -10   1   2    1.79    1.80
  10   1  -2    1.11    1.67
 -10   1   1    1.26    1.96
  10   1  -1    3.31    1.86
  10   2  -5    0.46    1.67
  10   2  -5    1.45    1.92
 -10   2   4    5.69    1.62
  10   2  -4    5.92    1.78
 -10   2   3   28.99    2.26
 -10   2   2    8.40    2.15
  10   3  -5    0.36    1.84
 -10   3   4    8.85    1.76
  10   3  -4    9.03    1.79
 -10   3   3    1.76    1.74
 -10   4   5    3.19    1.75
 -10   4   4    3.81    1.86
  10   4  -4    3.90    1.76
   0   0   0    0.00    0.00
;
_shelx_hkl_checksum              81702
_olex2_submission_special_instructions 'No special instructions were received'
loop_
_space_group_symop_operation_xyz
'x, y, z'
'-x, y+1/2, -z'
loop_
_atom_site_label
_atom_site_type_symbol
_atom_site_fract_x
_atom_site_fract_y
_atom_site_fract_z
_atom_site_U_iso_or_equiv
_atom_site_adp_type
_atom_site_occupancy
_atom_site_site_symmetry_order
_atom_site_calc_flag
_atom_site_refinement_flags_posn
Br1 Br 0.52105(9) 0.69470(10) 0.04386(9) 0.0509(3) Uani 1 1 d .
Br2 Br 0.82974(8) 0.64789(7) 0.75468(8) 0.0385(2) Uani 1 1 d .
N1 N 0.2189(7) 0.6180(6) 0.4295(7) 0.0340(11) Uani 1 1 d .
C1 C 0.2478(11) 0.7731(8) 0.5308(10) 0.0457(15) Uani 1 1 d .
H1A H 0.1610 0.7807 0.6036 0.068 Uiso 1 1 calc GR
H1B H 0.2213 0.8561 0.4398 0.068 Uiso 1 1 calc GR
H1C H 0.3796 0.7811 0.6134 0.068 Uiso 1 1 calc GR
C2 C 0.0105(8) 0.6027(11) 0.3055(9) 0.0495(17) Uani 1 1 d .
H2A H -0.0057 0.5074 0.2346 0.074 Uiso 1 1 calc GR
H2B H -0.0236 0.6895 0.2201 0.074 Uiso 1 1 calc GR
H2C H -0.0723 0.6012 0.3827 0.074 Uiso 1 1 calc GR
C3 C 0.2672(10) 0.4921(8) 0.5763(10) 0.0436(14) Uani 1 1 d .
H3A H 0.3994 0.5038 0.6567 0.065 Uiso 1 1 calc GR
H3B H 0.2510 0.3920 0.5155 0.065 Uiso 1 1 calc GR
H3C H 0.1820 0.4998 0.6508 0.065 Uiso 1 1 calc GR
C4 C 0.3526(7) 0.6021(8) 0.3139(8) 0.0366(13) Uani 1 1 d .
H4A H 0.3402 0.4975 0.2618 0.044 Uiso 1 1 calc R
H4B H 0.4855 0.6148 0.3964 0.044 Uiso 1 1 calc R
C5 C 0.3137(9) 0.7187(10) 0.1532(8) 0.0425(13) Uani 1 1 d .
H5A H 0.3129 0.8241 0.2003 0.051 Uiso 1 1 calc R
H5B H 0.1886 0.6983 0.0588 0.051 Uiso 1 1 calc R
loop_
_atom_site_aniso_label
_atom_site_aniso_U_11
_atom_site_aniso_U_22
_atom_site_aniso_U_33
_atom_site_aniso_U_23
_atom_site_aniso_U_13
_atom_site_aniso_U_12
Br1 0.0385(4) 0.0794(5) 0.0377(4) -0.0061(3) 0.0163(3) -0.0044(3)
Br2 0.0375(3) 0.0431(3) 0.0350(3) 0.0000(2) 0.0119(2) -0.0021(2)
N1 0.031(2) 0.042(3) 0.028(2) 0.0035(19) 0.0089(18) -0.0005(18)
C1 0.061(4) 0.034(3) 0.048(4) 0.001(3) 0.025(3) 0.007(3)
C2 0.024(3) 0.076(5) 0.045(4) 0.007(3) 0.007(3) -0.002(3)
C3 0.051(3) 0.038(3) 0.042(4) 0.005(3) 0.016(3) 0.003(3)
C4 0.027(3) 0.047(3) 0.033(3) -0.001(2) 0.007(2) 0.004(2)
C5 0.038(3) 0.056(4) 0.034(3) 0.001(3) 0.013(2) -0.001(3)
loop_
_atom_type_symbol
_atom_type_description
_atom_type_scat_dispersion_real
_atom_type_scat_dispersion_imag
_atom_type_scat_source
C C 0.0033 0.0016 'International Tables Vol C Tables 4.2.6.8 and 6.1.1.4'
H H 0.0000 0.0000 'International Tables Vol C Tables 4.2.6.8 and 6.1.1.4'
Br Br -0.2901 2.4595 'International Tables Vol C Tables 4.2.6.8 and 6.1.1.4'
N N 0.0061 0.0033 'International Tables Vol C Tables 4.2.6.8 and 6.1.1.4'
loop_
_geom_angle_atom_site_label_1
_geom_angle_atom_site_label_2
_geom_angle_atom_site_label_3
_geom_angle
C2 N1 C1 109.6(5)
C3 N1 C1 107.8(4)
C3 N1 C2 109.8(5)
C3 N1 C4 108.3(5)
C4 N1 C1 110.9(5)
C4 N1 C2 110.4(4)
N1 C4 C5 114.0(5)
C4 C5 Br1 107.0(4)
loop_
_geom_bond_atom_site_label_1
_geom_bond_atom_site_label_2
_geom_bond_distance
Br1 C5 1.945(6)
N1 C1 1.510(8)
N1 C2 1.505(7)
N1 C3 1.498(8)
N1 C4 1.502(7)
C4 C5 1.518(9)
