#------------------------------------------------------------------------------
#$Date: 2019-11-24 09:12:54 +0200 (Sun, 24 Nov 2019) $
#$Revision: 237424 $
#$URL: file:///home/coder/svn-repositories/cod/cif/7/23/71/7237114.cif $
#------------------------------------------------------------------------------
#
# This file is available in the Crystallography Open Database (COD),
# http://www.crystallography.net/
#
# All data on this site have been placed in the public domain by the
# contributors.
#
data_7237114
loop_
_publ_author_name
'Wang, Jian'
'Wang, Lin-Lin'
'Kovnir, Kirill'
_publ_section_title
;
 Phonon glass behavior beyond traditional cage structures: synthesis,
 crystal and electronic structure, and properties of KMg4Sb3
;
_journal_issue                   11
_journal_name_full               'Journal of Materials Chemistry A'
_journal_page_first              4759
_journal_paper_doi               10.1039/C8TA00553B
_journal_volume                  6
_journal_year                    2018
_chemical_formula_sum            'Mg5 Rb2 Sb4'
_chemical_formula_weight         779.49
_space_group_crystal_system      orthorhombic
_space_group_IT_number           63
_space_group_name_Hall           '-C 2c 2'
_space_group_name_H-M_alt        'C m c m'
_audit_creation_method           SHELXL-2014/6
_audit_update_record
;
2017-11-15 deposited with the CCDC.
2018-02-19 downloaded from the CCDC.
;
_cell_angle_alpha                90
_cell_angle_beta                 90
_cell_angle_gamma                90
_cell_formula_units_Z            4
_cell_length_a                   13.047(11)
_cell_length_b                   7.813(7)
_cell_length_c                   13.084(12)
_cell_measurement_reflns_used    804
_cell_measurement_temperature    90(2)
_cell_measurement_theta_max      27.092
_cell_measurement_theta_min      3.039
_cell_volume                     1334(2)
_computing_cell_refinement       'SMART V5.625 (Bruker, 2000)'
_computing_data_collection       'SMART V5.625 (Bruker, 2000)'
_computing_data_reduction        'SAINT V6.32 (Bruker, 2001)'
_computing_publication_material  'SHELXL-97 (Sheldrick, 1997)'
_computing_structure_refinement  'SHELXL-97 (Sheldrick, 1997)'
_computing_structure_solution    'SHELXS-97 (Sheldrick, 1990)'
_diffrn_ambient_temperature      90(2)
_diffrn_measured_fraction_theta_full 1.000
_diffrn_measured_fraction_theta_max 1.000
_diffrn_measurement_device_type  'Bruker APEX II CCD area-detector'
_diffrn_measurement_method       'profile data from \w scans'
_diffrn_radiation_type           MoK\a
_diffrn_radiation_wavelength     0.71073
_diffrn_reflns_av_R_equivalents  0.0750
_diffrn_reflns_av_unetI/netI     0.0349
_diffrn_reflns_Laue_measured_fraction_full 1.000
_diffrn_reflns_Laue_measured_fraction_max 1.000
_diffrn_reflns_limit_h_max       16
_diffrn_reflns_limit_h_min       -16
_diffrn_reflns_limit_k_max       10
_diffrn_reflns_limit_k_min       -10
_diffrn_reflns_limit_l_max       16
_diffrn_reflns_limit_l_min       -16
_diffrn_reflns_number            7870
_diffrn_reflns_point_group_measured_fraction_full 1.000
_diffrn_reflns_point_group_measured_fraction_max 1.000
_diffrn_reflns_theta_full        25.242
_diffrn_reflns_theta_max         27.092
_diffrn_reflns_theta_min         3.039
_diffrn_source                   'fine-focus sealed tube'
_exptl_absorpt_coefficient_mu    15.446
_exptl_absorpt_correction_type   multi-scan
_exptl_absorpt_process_details   'SADABS v2.03 (Bruker, 2003)'
_exptl_crystal_colour            red
_exptl_crystal_density_diffrn    3.882
_exptl_crystal_description       Block
_exptl_crystal_F_000             1352
_exptl_crystal_size_max          0.030
_exptl_crystal_size_mid          0.020
_exptl_crystal_size_min          0.010
_exptl_transmission_factor_max   0.841
_exptl_transmission_factor_min   0.602
_refine_diff_density_max         1.164
_refine_diff_density_min         -1.439
_refine_diff_density_rms         0.280
_refine_ls_extinction_method     none
_refine_ls_goodness_of_fit_ref   1.054
_refine_ls_hydrogen_treatment    undef
_refine_ls_matrix_type           full
_refine_ls_number_parameters     34
_refine_ls_number_reflns         804
_refine_ls_number_restraints     0
_refine_ls_restrained_S_all      1.054
_refine_ls_R_factor_all          0.0392
_refine_ls_R_factor_gt           0.0259
_refine_ls_shift/su_max          0.000
_refine_ls_shift/su_mean         0.000
_refine_ls_structure_factor_coef Fsqd
_refine_ls_weighting_details
'w=1/[\s^2^(Fo^2^)+(0.0204P)^2^+3.8859P] where P=(Fo^2^+2Fc^2^)/3'
_refine_ls_weighting_scheme      calc
_refine_ls_wR_factor_gt          0.0507
_refine_ls_wR_factor_ref         0.0566
_reflns_Friedel_coverage         0.000
_reflns_number_gt                641
_reflns_number_total             804
_reflns_threshold_expression     'I > 2\s(I)'
_cod_data_source_file            c8ta00553b2.cif
_cod_data_source_block           x1_CCDC2
_cod_database_code               7237114
_shelx_space_group_comment
;
The symmetry employed for this shelxl refinement is uniquely defined
by the following loop, which should always be used as a source of
symmetry information in preference to the above space-group names.
They are only intended as comments.
;
_shelx_estimated_absorpt_t_min   0.654
_shelx_estimated_absorpt_t_max   0.861
_shelxl_version_number           2014/6
_shelx_res_file
;
TITL x1 in Cmcm
CELL 0.71073  13.04730   7.81320  13.08380  90.0000  90.0000  90.0000
ZERR    4.00   0.01140   0.00680   0.01150   0.0000   0.0000   0.0000
LATT  7
SYMM -X, -Y, 0.5+Z
SYMM -X, Y, 0.5-Z
SYMM X, -Y, -Z
SFAC MG RB SB
UNIT 20 8 16
TEMP -183.000
SIZE 0.01 0.02 0.03

L.S. 14
BOND
acta
FMAP 2
PLAN -5

WGHT    0.020400    3.885900
FVAR       0.04437
RB1   2    0.216081    0.000000    0.000000    10.50000    0.00890    0.00781 =
         0.00898    0.00066    0.00000    0.00000
MG1   1    0.139482    0.373408    0.250000    10.50000    0.00720    0.00702 =
         0.00645    0.00000    0.00000   -0.00078
MG2   1    0.000000    0.638784    0.112133    10.50000    0.00665    0.00613 =
         0.00561   -0.00058    0.00000    0.00000
MG3   1    0.000000    0.001751    0.250000    10.25000    0.00938    0.00568 =
         0.00961    0.00000    0.00000    0.00000
SB1   3    0.339899    0.246367    0.250000    10.50000    0.00409    0.00497 =
         0.00545    0.00000    0.00000    0.00062
SB2   3    0.000000    0.265118    0.093206    10.50000    0.00599    0.00444 =
         0.00390    0.00002    0.00000    0.00000
HKLF 4

REM  x1 in Cmcm
REM R1 =  0.0259 for     641 Fo > 4sig(Fo)  and  0.0392 for all     804 data
REM     34 parameters refined using      0 restraints

END

WGHT      0.0190      6.1028

REM Highest difference peak  1.164,  deepest hole -1.439,  1-sigma level  0.280
Q1    1   0.5000 -0.0062  0.1982  10.50000  0.05    1.16
Q2    1   0.0000 -0.1103 -0.0734  10.50000  0.05    1.11
Q3    1   0.2652  0.3948 -0.1337  11.00000  0.05    1.02
Q4    1   0.3662  0.0798  0.2500  10.50000  0.05    1.02
Q5    1  -0.1128 -0.1330 -0.0645  11.00000  0.05    0.99
;
_shelx_res_checksum              56711
_shelx_hkl_file
;
   0   2   0  345.91    8.03
   0  -2   0  358.19    6.37
   0  -2   0  353.88    7.89
   0   4   0  800.55   13.73
   0   4   0  868.15   18.35
   0  -4   0  839.50   17.83
   0  -6   0   72.04    7.94
   0  -6   0   85.40    6.91
   0   6   0   85.07    8.78
   0   6   0   77.16    5.26
   0   8   0  528.97   22.35
   0  -8   0  509.23   21.79
   0 -10   0   47.47   10.26
   0  10   0   56.99   10.50
  -1   1   0    2.40    0.96
   1   1   0    2.98    1.13
  -1  -1   0    2.96    1.19
   1  -1   0    2.80    0.93
  -1  -1   0    4.15    1.15
  -1   3   0  147.02    4.07
  -1  -3   0  147.87    5.34
   1   3   0  148.33    6.96
  -1   3   0  157.75    6.79
  -1  -3   0  152.75    5.93
  -1  -5   0   -0.19    1.44
  -1  -5   0    1.00    1.16
  -1   5   0    0.68    0.98
  -1   5   0    1.68    1.86
   1  -5   0    2.59    2.06
   1   5   0    2.22    1.80
  -1  -5   0    1.83    1.58
  -1   7   0   23.88    5.19
   1   7   0   33.11    6.24
   1  -7   0   52.09    7.93
   1  -7   0   35.07    6.20
  -1  -7   0   25.60    6.20
   1   7   0   51.65    5.91
   1  -9   0   14.33    5.33
  -1   9   0   26.15    6.82
  -1  -9   0   20.12    6.72
   1   9   0   37.70    8.05
  -2   0   0   14.02    1.45
  -2   0   0   15.81    1.65
  -2   0   0   14.76    1.52
  -2  -2   0  296.11    8.05
   2   2   0  294.68    8.43
  -2   2   0  297.89    2.95
  -2   2   0  279.55    7.59
   2  -2   0  258.34    7.07
  -2  -2   0  287.98    8.78
  -2   4   0    8.22    2.48
  -2  -4   0    7.81    2.76
  -2  -4   0    6.26    2.11
  -2   4   0    5.49    1.13
   2  -4   0    6.05    2.27
   2   4   0    6.60    2.52
  -2  -4   0    3.17    1.36
  -2  -6   0   72.04    8.54
   2   6   0   69.41    7.11
   2  -6   0   70.06    8.06
  -2   6   0   58.31    7.37
   2   6   0   83.77    9.54
  -2   8   0    1.29    2.56
   2  -8   0   -2.54    2.17
   2   8   0    0.71    2.35
  -2  -8   0    0.53    3.07
  -3   1   0   35.95    2.72
   3   1   0   36.54    2.71
  -3  -1   0   39.38    2.95
  -3   1   0   41.58    2.16
  -3  -1   0   33.05    3.37
   3  -1   0   36.96    2.46
  -3   3   0    0.65    1.30
   3  -3   0   -0.24    1.17
  -3  -3   0   -1.15    1.37
  -3  -3   0   -0.80    1.25
   3   3   0    1.99    1.60
   3  -5   0   65.28    7.02
   3   5   0   72.98    8.28
  -3  -5   0   62.39    3.37
  -3  -5   0   58.69    7.65
  -3  -5   0   65.23    6.55
  -3   5   0   66.77    7.44
   3  -7   0    2.76    3.00
  -3   7   0    0.76    2.10
   3  -7   0   -0.06    2.00
  -3  -7   0    0.37    2.54
   3   7   0   -0.08    2.20
   3   7   0    1.76    2.13
   3  -9   0   37.65    8.17
   3   9   0   33.81    7.66
  -3   9   0   35.66    7.84
  -3  -9   0   25.67    6.90
  -4   0   0  212.39    6.66
  -4   0   0  202.73    5.89
  -4   0   0  207.74    5.92
   4  -2   0    5.96    1.60
   4   2   0    6.53    2.01
  -4   2   0    5.50    1.69
  -4  -2   0    9.73    2.57
  -4  -2   0   11.02    2.69
  -4  -4   0   94.60    6.59
   4  -4   0   96.74    6.15
   4   4   0  116.07    7.61
  -4  -4   0  104.47    7.60
  -4   4   0  106.63    6.81
   4  -6   0   24.28    4.77
  -4   6   0   17.43    4.40
  -4  -6   0    7.67    2.86
  -4  -6   0    9.25    3.44
   4   6   0   16.08    4.55
   4  -8   0   24.55    5.77
  -4  -8   0   22.07    5.76
   4   8   0   27.54    6.57
  -4   8   0   17.04    5.49
   4   8   0   27.82    5.57
   4  -8   0   23.38    6.88
  -5  -1   0   45.89    4.74
  -5   1   0   51.90    3.76
  -5  -1   0   56.62    3.97
  -5   1   0   58.21    3.56
  -5   1   0   49.74    3.39
  -5  -1   0   56.18    3.80
  -5  -3   0  199.38    9.49
  -5  -3   0  209.16    9.47
  -5   3   0  200.15    4.09
   5   3   0  199.05    9.02
  -5   3   0  206.49    8.78
   5  -3   0  206.37    8.17
   5   5   0    7.37    2.90
   5  -5   0    6.28    2.63
  -5   5   0    8.08    2.81
  -5  -5   0    3.63    2.27
  -5  -5   0    3.20    2.21
   5   7   0  115.72   11.99
  -5  -7   0  109.82   10.12
  -5  -7   0  101.18   11.64
  -5   7   0   99.80   10.89
   5  -7   0  113.46   10.97
  -5  -9   0    3.24    4.01
   5  -9   0    2.42    4.64
  -5   9   0    1.04    3.33
   5   9   0    0.04    2.71
   5  -9   0   -1.48    2.85
  -6   0   0  834.90   14.42
  -6   0   0  841.34   14.71
  -6   0   0  805.31   15.97
  -6   2   0  694.88   11.82
  -6   2   0  671.42   15.04
  -6  -2   0  653.53   15.58
   6  -2   0  673.40   13.58
  -6  -2   0  677.73   17.12
   6   2   0  698.57   15.37
  -6   4   0  259.00   11.34
   6   4   0  264.54   11.89
   6  -4   0  285.49   10.94
  -6  -4   0  290.79   12.59
  -6  -4   0  260.06   12.32
  -6   6   0  264.94   13.55
   6   6   0  264.59   14.05
  -6  -6   0  268.74   13.31
  -6  -6   0  278.02   14.65
   6  -6   0  260.13   12.81
   6   8   0  192.07   13.67
  -6   8   0  196.60   13.99
   6  -8   0  193.95   16.15
   6   8   0  194.59   12.99
   6  -8   0  209.64   13.54
  -7   1   0  153.84    6.74
  -7  -1   0  152.13    7.15
  -7  -1   0  139.88    6.84
  -7   1   0  153.92    7.16
  -7   1   0  148.12    7.02
  -7  -1   0  143.72    8.09
  -7  -3   0    0.50    1.52
  -7  -3   0    2.12    2.04
  -7   3   0    0.27    1.32
   7  -3   0    1.86    1.48
  -7   3   0    1.65    0.92
   7   3   0    0.24    1.30
  -7  -5   0   77.31    9.34
   7   5   0   85.02    9.26
   7  -5   0   91.00    8.66
  -7   5   0   71.14    7.94
  -7  -5   0   73.27    8.72
  -7   7   0    1.08    2.41
  -7  -7   0    3.46    2.93
   7   7   0    2.69    3.15
   7  -7   0    3.95    3.29
  -7  -7   0    0.68    2.73
   7  -9   0  138.70   19.10
   7   9   0  125.69   14.51
  -7   9   0  120.43   14.14
  -7  -9   0  110.77   13.78
   7   9   0  124.17   13.16
   7  -9   0  108.75   12.65
  -8   0   0  183.92    8.19
  -8   0   0  201.46    9.44
  -8   0   0  195.40    8.01
  -8   2   0   81.49    5.97
  -8  -2   0   87.96    7.70
   8   2   0   91.04    6.28
  -8   2   0   81.58    5.28
  -8  -2   0   83.32    8.33
   8  -2   0   77.70    5.44
   8   4   0   10.81    3.55
   8  -4   0   16.90    3.86
  -8  -4   0   17.59    4.65
  -8  -4   0   15.38    4.26
  -8   4   0   19.76    4.33
   8   6   0   13.50    4.29
  -8  -6   0   19.30    5.01
   8  -6   0   18.64    4.58
  -8  -6   0   19.86    5.61
  -8   6   0   17.91    4.87
   8  -8   0   58.40   12.89
   8  -8   0   36.08    7.10
  -8   8   0   23.91    6.67
   8   8   0   33.48    7.15
   8   8   0   19.93    6.09
  -8  -8   0   38.84    8.15
  -9  -1   0   32.63    5.14
  -9   1   0   36.02    5.20
  -9  -1   0   33.77    4.73
  -9  -1   0   34.46    4.90
  -9   1   0   28.36    4.57
  -9   1   0   35.47    4.50
  -9  -3   0  124.83    8.56
   9   3   0  137.81    8.81
  -9  -3   0  134.42   12.06
   9  -3   0  129.09    7.61
  -9   3   0  117.09    8.07
  -9  -5   0   17.00    4.84
  -9   5   0   17.37    4.62
   9   5   0   24.36    5.64
   9  -5   0   16.36    4.15
  -9  -5   0   13.51    4.21
   9   7   0   59.93    9.46
  -9  -7   0   45.17    7.88
   9  -7   0   71.47    9.28
  -9  -7   0   58.02    9.44
  -9   7   0   76.24   10.00
 -10   0   0   41.14    5.86
 -10   0   0   38.75    4.89
 -10   0   0   52.23    6.01
 -10  -2   0    5.77    2.48
 -10   2   0    7.98    2.43
 -10   2   0    5.67    2.72
  10   2   0    7.98    2.80
  10  -2   0    7.06    2.51
 -10  -2   0    4.22    2.48
 -10  -4   0   26.05    6.16
 -10   4   0   25.23    5.11
 -10  -4   0   22.64    5.16
  10  -4   0   17.66    4.30
  10   4   0   20.80    5.01
  10  -6   0   10.52    3.83
  10   6   0   15.81    4.85
 -10  -6   0   13.87    4.87
 -10   6   0   13.33    4.72
 -10  -6   0    4.47    3.35
 -10  -8   0    2.01    3.66
  10  -8   0    3.77    5.85
 -10   8   0    9.82    4.62
  10   8   0    2.59    3.48
  10   8   0    4.38    4.48
 -10  -8   0    2.63    3.58
  10  -8   0    4.32    3.70
 -11   1   0   18.60    4.15
 -11   1   0   28.59    4.69
 -11  -1   0   20.50    4.14
 -11   1   0   24.80    4.87
 -11  -1   0   18.55    4.56
 -11  -1   0   20.42    4.35
 -11  -3   0    0.34    2.05
  11  -3   0    1.01    1.64
  11   3   0    0.11    1.95
 -11  -3   0    1.58    2.28
 -11   3   0    3.35    2.52
  11  -5   0   55.95    7.67
 -11  -5   0   48.23    8.12
 -11   5   0   50.29    7.64
  11   5   0   61.94    8.93
 -11  -5   0   56.78    8.75
 -11   7   0    0.94    3.26
  11   7   0    0.44    3.33
  11  -7   0    2.39    3.14
 -11  -7   0    3.62    4.10
 -11  -7   0   -0.43    3.02
 -12   0   0  214.44   11.30
 -12   0   0  182.65   11.14
 -12   0   0  188.37    9.88
  12  -2   0  420.78   15.27
 -12   2   0  431.42   16.35
 -12  -2   0  428.01   16.16
 -12  -2   0  397.56   17.60
  12   2   0  437.46   16.44
 -12  -4   0   89.62   10.80
  12  -4   0  122.86   11.02
  12   4   0   92.84   10.16
 -12  -4   0  101.53   11.18
 -12   4   0  112.67   11.11
  12   6   0  208.23   14.40
 -12  -6   0  217.31   15.27
 -12   6   0  250.05   15.60
  12  -6   0  203.62   13.13
 -12  -6   0  245.99   16.14
 -13  -1   0    1.51    2.01
  13   1   0   -1.28    1.94
 -13  -1   0   -0.87    2.07
 -13   1   0   -2.51    1.45
 -13   1   0    0.76    2.12
 -13   1   0    2.44    2.07
 -13   3   0   61.17    8.27
  13   3   0   43.13    7.12
  13  -3   0   46.41    6.80
 -13  -3   0   23.19    5.64
 -13  -3   0   63.04    8.69
 -13  -5   0    7.73    4.38
 -13  -5   0   -0.16    2.66
  13   5   0   -1.36    2.69
 -13   5   0   -0.70    2.34
 -14   0   0  279.38   14.14
 -14   0   0  310.70   15.67
 -14   0   0  275.30   13.31
 -14  -2   0    3.52    3.38
  14   2   0    6.62    3.57
 -14   2   0    4.27    3.06
  14  -2   0    3.60    3.18
 -14  -2   0    2.30    2.52
  14   4   0   99.54   11.67
 -14  -4   0   86.22   11.00
 -14   4   0  105.82   11.46
 -14  -4   0   86.03   11.32
 -15   1   0   -1.96    2.04
  15   1   0    1.23    2.89
 -15  -1   0    4.34    3.37
 -15  -1   0   -1.37    2.11
 -15  -3   0   15.00    4.89
 -15   3   0   14.01    4.70
  15   3   0   22.50    6.15
 -15  -3   0   14.97    5.48
 -16   0   0    4.84    3.33
 -16   0   0    6.56    4.04
 -16  -2   0   10.25    4.90
 -16   2   0   19.13    5.50
   0   0   1   -0.27    0.14
   0   0  -1    0.06    0.18
   0   0   1    0.50    0.51
   0   0  -1   -0.26    0.24
   0  -2   1    3.99    1.60
   0   2  -1    2.75    0.98
   0  -2  -1    1.24    1.21
   0  -2  -1    3.58    1.05
   0  -2   1    5.87    1.94
   0   2  -1    7.53    1.77
   0   2   1    6.32    1.70
   0   2   1    6.23    1.68
   0  -4   1    2.88    1.92
   0   4  -1    1.79    1.64
   0  -4   1    1.45    1.43
   0   4   1    1.59    1.49
   0   4  -1    0.94    0.98
   0  -4  -1    1.59    1.58
   0  -4  -1    1.10    0.98
   0   6  -1   -0.26    1.96
   0   6   1    0.10    1.57
   0  -6  -1   -0.89    1.09
   0   6   1    0.12    1.11
   0  -6   1    1.28    1.83
   0   6  -1    1.15    1.41
   0  -6   1    1.06    2.09
   0  -8   1   10.76    4.40
   0  -8  -1    5.97    3.52
   0   8   1    5.78    3.72
   0   8  -1    2.53    3.48
  -1  -1   1   -0.99    0.95
   1   1   1   -0.21    0.90
  -1  -1   1    0.71    1.02
   1  -1  -1   -0.30    0.77
   1   1   1   -0.99    0.56
  -1   1  -1   -0.67    0.61
  -1   1  -1   -0.83    0.49
   1  -1  -1   -0.47    0.32
  -1  -1  -1   -0.32    0.75
   1   1  -1   -0.54    0.68
  -1   1   1   -0.39    0.92
   1   1  -1   -0.93    0.63
   1  -1   1   -0.84    0.99
  -1  -1  -1   -0.34    0.79
  -1   1   1   -0.45    0.66
   1  -1   1    1.32    0.74
   1  -3  -1   -0.65    0.57
  -1   3  -1   -0.53    0.63
   1  -3  -1    2.07    1.37
  -1  -3   1   -0.53    0.95
   1   3   1   -0.81    1.18
  -1  -3   1    0.16    1.44
  -1   3  -1   -1.03    1.01
  -1  -3  -1    0.84    1.24
   1   3  -1   -0.43    1.22
  -1  -3  -1   -0.01    1.11
   1  -3   1   -1.19    1.07
   1  -3   1   -0.50    1.39
  -1   3   1   -1.25    1.04
   1   3  -1    0.43    1.10
  -1  -5   1   -0.59    1.40
   1  -5  -1   -0.69    1.36
   1   5   1   -1.67    0.99
  -1   5  -1   -0.60    1.26
  -1  -5   1    2.63    1.94
  -1   5  -1   -0.14    0.89
   1  -5   1    0.57    1.67
   1   5  -1   -0.03    1.43
   1   5  -1    0.79    1.11
   1  -5   1   -0.39    1.42
  -1   5   1    0.44    0.82
  -1  -5  -1   -0.01    1.03
  -1   5   1    0.95    1.63
  -1  -5  -1    0.37    1.54
   1  -7  -1    0.23    2.46
   1   7   1    1.69    2.30
  -1  -7   1    2.54    2.49
  -1   7  -1   -0.69    1.95
   1  -7  -1    1.35    2.31
  -1   7   1    0.40    2.61
  -1  -7  -1   -0.15    2.30
   1  -7   1   -0.98    2.14
   1   7  -1   -0.88    1.90
   1   7  -1    1.51    2.05
   1  -7   1   -1.13    1.83
  -1  -9   1    9.14    4.44
   1  -9  -1   -1.89    2.76
   1   9   1    0.67    3.20
  -1   9  -1   -0.62    2.82
   1   9  -1    9.00    5.02
  -1  -9  -1    1.51    3.66
   1  -9   1    5.82    4.26
  -1   9   1   -0.03    2.89
  -2   0   1   -0.88    0.63
  -2   0   1   -1.66    0.95
  -2   0   1    0.00    0.75
  -2   0   1   -0.14    0.52
  -2   0  -1   -2.25    0.64
  -2   0  -1   -0.80    0.75
  -2   0  -1   -1.10    0.47
   2   0   1   -1.00    0.83
  -2  -2   1    1.74    1.17
  -2   2  -1    0.92    0.68
  -2  -2   1    0.62    1.38
   2   2   1   -1.07    1.20
  -2   2  -1    1.19    1.17
   2   2   1    0.37    0.51
  -2  -2   1    0.89    1.09
   2  -2  -1   -0.50    0.95
   2   2  -1    0.68    1.32
  -2   2   1    0.38    1.15
   2  -2   1    0.87    1.03
  -2  -2  -1    0.19    1.42
  -2   2   1    0.12    1.24
  -2  -2  -1    0.28    1.06
  -2  -4   1    6.44    2.38
   2   4   1    6.02    2.60
  -2   4  -1    4.53    1.94
   2  -4  -1    9.25    2.62
  -2  -4   1    5.92    2.03
  -2  -4   1    5.84    1.97
  -2   4  -1    7.45    1.49
  -2   4   1    7.57    1.13
  -2   4   1    4.19    2.21
   2   4  -1    2.34    1.77
  -2  -4  -1    8.15    2.90
   2  -4   1    7.59    2.48
   2  -4   1    5.80    2.61
  -2  -4  -1    4.64    1.87
  -2   6  -1   20.95    4.56
   2   6   1   38.76    6.82
  -2  -6   1   25.85    5.45
   2  -6  -1   21.09    4.38
  -2  -6  -1   40.05    5.27
   2   6  -1   27.00    4.51
   2   6  -1   21.92    4.90
   2  -6   1   36.76    6.81
  -2  -6  -1   14.56    4.01
   2  -6   1   24.23    4.99
  -2   6   1   21.36    4.94
  -2  -8   1   13.78    4.74
   2   8   1   18.62    5.34
   2  -8  -1   23.90    6.30
  -2   8  -1   21.53    5.91
  -2   8   1   16.78    5.18
   2   8  -1   22.96    5.90
  -2  -8  -1   27.98    6.17
   2  -8   1   24.44    6.09
  -3  -1   1  415.15    8.19
  -3   1  -1  419.89    8.83
   3   1   1  414.19    7.87
  -3  -1   1  400.69    8.93
   3   1   1  420.51    9.01
  -3  -1   1  410.68    9.45
  -3   1  -1  434.45    6.90
   3  -1  -1  421.87    8.28
  -3   1   1  424.95    7.88
  -3  -1  -1  423.06    8.45
  -3   1   1  422.96    6.20
  -3  -1  -1  436.75    9.18
  -3   1   1  404.98   10.91
   3   1  -1  431.03    7.70
   3  -1   1  417.47    6.62
   3   3   1  520.50   14.15
  -3  -3   1  520.80   14.41
  -3   3  -1  527.72    6.86
  -3  -3   1  525.74   13.13
  -3  -3   1  548.06    8.34
   3  -3  -1  523.99   12.67
   3  -3   1  524.60   11.83
  -3  -3  -1  544.87   13.31
  -3  -3  -1  528.77   14.04
  -3   3   1  529.58   12.65
   3   3  -1  509.12   13.14
  -3  -5   1  376.08    9.22
   3   5   1  365.80   14.86
  -3   5  -1  370.84    7.10
   3  -5  -1  383.30   13.84
  -3  -5   1  372.80   12.67
  -3   5  -1  396.92   14.12
  -3  -5   1  375.60   14.97
   3   5  -1  393.24   14.53
   3  -5   1  365.27   15.64
  -3  -5  -1  373.96   12.71
  -3  -5  -1  366.90   14.82
  -3   5   1  354.31   13.36
   3  -5   1  377.29   13.18
   3  -7  -1  148.39   10.39
  -3   7  -1  115.42   10.91
   3   7   1  123.18   12.31
  -3  -7   1  131.95   12.96
   3   7  -1  149.79    9.52
  -3  -7  -1  153.14   14.44
   3  -7   1  135.82   10.16
   3   7  -1  142.08   12.81
  -3   7   1  143.86   10.72
   3  -7   1  148.93   11.81
  -3  -7  -1  130.84    8.51
   3   9   1   71.63   11.19
  -3   9  -1   67.90   10.46
   3  -9  -1   74.14   10.51
   3  -9   1   70.00   10.90
   3   9  -1   87.42   11.92
  -3   9   1   63.92   10.26
  -4   0  -1    0.34    1.01
  -4   0   1   -0.25    0.72
  -4   0  -1    0.91    0.82
  -4   0   1    1.07    1.28
  -4   0   1    0.31    0.88
  -4   0   1   -0.29    1.21
  -4   0  -1    0.11    0.93
  -4  -2   1   11.08    1.91
   4   2   1   11.18    1.53
  -4  -2   1   13.09    2.78
   4  -2  -1    5.26    1.51
  -4   2  -1   13.74    2.91
  -4  -2   1    8.03    2.17
  -4   2  -1    8.44    1.40
   4  -2  -1    9.48    1.09
   4   2   1    8.19    2.12
  -4  -2  -1    8.49    2.14
  -4  -2  -1    6.16    2.17
   4  -2   1    9.88    1.93
  -4   2   1    8.01    2.02
   4   2  -1   10.03    2.23
   4  -4  -1   10.85    2.70
  -4   4  -1    5.02    0.96
  -4   4  -1    7.07    2.56
  -4  -4   1    6.58    1.18
  -4  -4   1    3.78    2.06
  -4  -4   1    5.56    2.37
   4   4   1    3.44    2.13
   4  -4   1    8.96    2.41
   4   4  -1    4.80    2.33
  -4  -4  -1    8.68    2.68
  -4   4   1    6.45    2.44
  -4  -4  -1    4.18    2.39
  -4  -6   1   27.71    5.75
   4  -6  -1   36.60    5.81
  -4   6  -1   40.88    6.47
   4   6   1   51.10    7.87
   4  -6   1   49.88    8.39
   4   6  -1   49.74    6.92
  -4  -6  -1   42.19    5.97
  -4  -6  -1   26.20    5.57
   4  -6   1   45.86    6.54
  -4   6   1   44.12    6.72
   4   6  -1   46.58    7.02
  -4   8  -1   30.11    6.71
   4  -8  -1   21.46    6.96
  -4  -8   1   29.66    7.24
   4   8   1   18.46    4.86
   4   8   1   19.24    5.61
   4  -8  -1   33.63    6.90
   4  -8   1   28.21    6.42
   4   8  -1   12.09    4.95
  -4   8   1   26.42    6.54
  -4  -8  -1   18.88    5.79
   4  -8   1   31.30    8.30
   4   8  -1   16.36    4.64
  -5   1  -1    1.58    0.99
  -5  -1   1    0.03    1.16
  -5   1  -1    2.11    1.25
  -5  -1   1    1.64    1.45
  -5   1  -1   -0.78    1.10
  -5  -1   1    2.47    1.51
   5   1  -1    3.08    1.25
  -5  -1  -1    1.26    1.21
  -5   1   1    2.30    1.21
  -5   1   1    2.12    1.28
  -5   1   1    0.13    1.02
  -5  -1  -1    0.17    1.18
  -5  -1  -1    2.23    1.50
   5   3   1   15.05    3.25
  -5   3  -1   12.08    2.72
  -5  -3   1   21.16    3.99
  -5   3  -1   22.22    2.10
  -5  -3   1   19.71    2.16
  -5  -3   1   19.13    3.54
   5  -3  -1   15.20    3.09
   5   3  -1   13.73    2.93
  -5   3   1   21.04    3.69
   5  -3   1   14.48    2.65
  -5  -3  -1   13.01    3.18
  -5  -3  -1   21.52    3.92
  -5  -5   1   13.67    3.74
  -5   5  -1   16.29    4.24
  -5  -5   1    9.20    3.38
   5   5   1   12.63    3.75
   5  -5  -1   17.75    3.90
  -5  -5  -1    9.69    3.21
  -5  -5  -1   14.31    4.07
   5  -5   1   19.52    4.00
   5   5  -1   22.65    4.89
  -5   5   1   10.55    3.27
   5  -7  -1   -1.70    1.89
  -5  -7   1   -0.40    2.22
   5   7   1   -1.98    1.92
  -5   7  -1   -0.14    2.72
  -5   7   1    1.43    2.71
   5  -7   1    1.53    2.77
   5  -7   1    0.61    2.09
   5   7  -1    0.62    2.30
  -5  -7  -1    1.20    2.76
  -5  -7  -1   -0.15    1.94
   5   7  -1   -0.16    2.05
  -5  -9   1   -2.02    2.93
   5  -9  -1    4.26    5.68
   5  -9  -1    2.42    3.30
   5   9   1   -1.32    3.20
  -5   9  -1    1.40    3.90
   5  -9   1   -0.47    4.51
  -5  -9  -1    0.48    4.13
   5   9  -1    1.88    3.56
  -5   9   1    0.67    2.88
   5  -9   1   -1.61    2.75
  -6   0  -1   -0.65    0.71
  -6   0   1    0.87    1.21
  -6   0  -1   -0.37    1.01
  -6   0   1    0.08    0.93
  -6   0   1    0.00    1.17
  -6   0  -1   -1.58    0.84
  -6   2  -1   -0.28    0.77
  -6  -2   1   -1.38    1.21
   6   2   1   -0.22    1.05
   6   2   1    1.14    1.63
  -6   2  -1    1.52    1.65
   6  -2  -1   -0.59    0.96
  -6  -2   1   -0.89    1.22
  -6  -2   1   -0.10    0.96
  -6  -2  -1   -1.60    0.97
  -6  -2  -1   -0.36    1.38
  -6   2   1    1.84    0.95
  -6   2   1    0.67    1.30
   6   2  -1   -0.09    1.02
   6  -2   1    0.70    1.02
  -6  -4   1   -1.95    1.40
  -6  -4   1    0.54    1.71
   6   4   1   -0.13    1.81
  -6   4  -1    1.32    1.77
   6  -4  -1    4.29    2.08
  -6  -4  -1    1.76    2.06
   6  -4   1   -0.41    1.02
  -6  -4  -1    3.35    2.23
   6   4  -1    3.15    2.02
  -6   4   1    1.42    1.73
   6  -6  -1    5.70    2.85
  -6  -6   1    1.42    2.16
  -6   6  -1    0.42    1.97
   6   6   1   -0.33    2.12
  -6  -6   1    2.55    2.90
   6  -6   1    2.45    2.34
  -6   6   1    5.21    3.03
  -6  -6  -1    1.86    2.47
  -6  -6  -1    0.31    2.17
   6  -6   1    3.82    3.62
   6   6  -1    1.13    2.18
   6  -8  -1    1.01    2.89
   6   8   1    5.70    3.60
  -6  -8   1    5.40    4.08
  -6   8  -1    3.69    3.35
  -6  -8  -1    2.24    3.69
   6   8  -1    8.03    4.05
   6  -8   1    6.43    3.73
  -6  -8  -1    1.60    2.74
  -6   8   1    2.14    3.41
   6  -8   1    3.36    4.00
   6   8  -1    3.27    2.69
  -7   1  -1    1.80    1.44
  -7  -1   1    4.50    2.07
  -7   1  -1    3.83    1.92
  -7  -1   1    3.85    1.93
  -7   1  -1    2.61    1.37
  -7  -1   1    4.79    1.78
  -7  -1  -1    3.43    2.03
  -7   1   1    3.76    1.85
  -7   1   1    3.54    1.57
  -7  -1  -1    4.34    1.95
  -7  -1  -1    1.69    1.30
  -7   1   1    3.00    1.62
  -7   3  -1   13.89    2.26
   7   3   1   11.59    2.00
   7  -3  -1    9.36    2.77
  -7  -3   1    9.93    3.35
   7   3   1   10.07    3.04
   7  -3  -1   10.67    1.63
  -7  -3   1   11.37    3.46
  -7   3  -1    5.53    2.46
   7  -3   1   10.63    2.61
  -7  -3  -1   10.59    3.23
  -7   3   1    9.02    2.65
   7   3  -1   13.25    3.24
  -7  -3  -1    7.40    2.64
  -7  -5   1    6.44    2.94
  -7  -5   1   11.56    4.20
   7   5   1    1.56    2.22
   7  -5  -1    6.03    2.66
  -7   5  -1    7.30    3.06
   7   5  -1    8.38    3.19
  -7  -5  -1    8.64    3.51
  -7   5   1    4.74    2.63
   7  -5   1    4.10    2.30
  -7  -5  -1    6.27    3.02
  -7   7  -1    2.76    2.81
   7  -7  -1    2.41    2.50
   7   7   1    2.08    2.61
  -7  -7   1   -2.03    2.45
  -7   7   1    1.49    2.46
  -7  -7  -1   -1.20    2.30
   7  -7   1   10.68    3.91
   7   7  -1    3.27    3.05
   7  -7   1   -0.30    3.31
   7   7  -1   -2.16    2.12
  -7  -7  -1   -0.36    2.31
   7   9   1    2.67    3.63
  -7  -9   1   10.80    5.25
   7  -9  -1   -1.15    3.14
   7   9   1    8.41    4.07
   7  -9  -1    6.40    5.44
  -7   9  -1    8.82    4.77
   7   9  -1    6.43    3.55
  -7   9   1    8.33    5.44
   7  -9   1    0.22    5.32
   7   9  -1   10.99    5.06
  -7  -9  -1   10.68    5.16
   7  -9   1    4.26    4.17
  -8   0   1    0.26    1.05
  -8   0   1    2.42    1.41
  -8   0  -1   -0.29    0.82
  -8   0   1    1.52    1.61
  -8   0  -1   -0.14    1.33
  -8   0  -1   -1.62    0.92
  -8   2  -1    1.64    1.69
  -8  -2   1    2.39    1.79
   8   2   1    0.89    1.58
  -8   2  -1    1.82    1.34
   8   2   1   -0.14    1.44
  -8  -2   1    6.35    2.67
   8  -2  -1    0.66    1.37
  -8  -2  -1    2.73    2.11
   8   2  -1    2.56    1.70
  -8  -2  -1    4.64    2.10
  -8   2   1    1.08    1.29
   8  -2   1    1.11    1.24
  -8   2   1    1.49    1.61
   8   4   1    7.64    3.15
  -8   4  -1    3.16    2.29
  -8  -4   1    4.30    2.88
   8  -4  -1    3.16    2.20
  -8  -4   1    4.95    2.98
   8  -4   1    3.63    2.06
   8   4  -1    0.43    1.83
  -8  -4  -1    1.11    2.32
  -8   4   1    2.01    1.99
  -8  -4  -1    6.51    2.73
   8   6   1    5.65    3.27
  -8   6  -1    9.31    3.86
   8  -6  -1    6.59    3.11
  -8  -6   1    2.56    3.10
  -8  -6   1    5.77    3.50
   8   6  -1    7.07    3.57
  -8  -6  -1    7.61    3.58
  -8  -6  -1    3.32    2.99
   8  -6   1    6.90    3.05
  -8   6   1    1.14    2.34
  -8   8  -1    1.44    3.18
   8  -8  -1    6.86    3.90
  -8  -8   1   12.15    5.21
   8   8   1    8.96    4.40
  -8   8   1    6.81    4.22
  -8  -8  -1   14.43    5.20
   8  -8   1    7.13    5.70
   8   8  -1    8.27    4.51
  -8  -8  -1   17.25    5.66
   8  -8   1   10.00    4.53
   8   8  -1   10.89    4.68
  -9  -1   1  241.91   11.48
  -9  -1   1  233.50    9.54
  -9  -1   1  238.43   10.33
  -9   1  -1  218.85    8.57
  -9   1  -1  221.52   10.02
  -9   1  -1  242.91   10.17
  -9  -1  -1  235.20    9.44
  -9  -1  -1  230.62   10.32
  -9   1   1  238.82    9.97
  -9  -1  -1  239.26   11.49
  -9   1   1  228.32    9.59
  -9   1   1  212.38    9.56
   9  -3  -1  253.98   10.92
   9   3   1  237.59   11.85
  -9   3  -1  234.66    8.75
  -9  -3   1  234.20   12.00
  -9   3  -1  234.06   11.24
  -9  -3   1  255.58   13.08
   9  -3   1  236.41    9.81
   9   3  -1  223.28   10.86
  -9  -3  -1  218.01   10.97
  -9  -3  -1  231.81   12.49
  -9   3   1  243.68   11.13
  -9  -5   1  185.11   12.19
  -9  -5   1  199.67   12.90
   9  -5  -1  162.08   10.33
  -9   5  -1  181.91   11.68
   9   5   1  201.54   12.68
  -9   5   1  200.73   11.83
   9  -5   1  186.58   10.27
  -9  -5  -1  163.11   11.30
  -9  -5  -1  174.10   11.90
   9   5  -1  192.17   11.64
  -9  -7   1  109.24   12.31
  -9   7  -1  113.25   12.63
   9  -7  -1  105.65   11.38
  -9  -7   1  100.86   11.91
   9   7   1  108.09   12.55
  -9  -7  -1   97.32   11.41
  -9  -7  -1   96.36   11.91
   9  -7   1  108.24   11.20
   9   7  -1  102.70   11.45
   9   7  -1  109.07   12.27
   9  -7   1  123.25   16.98
  -9   7   1   98.70   11.41
 -10   0  -1    0.62    1.31
 -10   0  -1    0.55    1.77
 -10   0  -1    1.40    1.67
 -10   0   1    1.96    1.65
 -10   0   1   -0.50    1.74
 -10   0   1   -0.54    1.22
 -10  -2   1    1.33    1.77
  10   2   1    1.37    1.83
 -10  -2   1    4.74    2.31
 -10   2  -1    1.82    2.24
  10   2   1    3.89    2.35
 -10   2  -1    1.98    1.86
  10  -2  -1    3.04    1.80
  10   2  -1    1.23    1.62
 -10   2   1    5.81    2.62
 -10  -2  -1    1.52    2.22
 -10   2   1    0.18    1.36
 -10  -2  -1    3.92    2.38
  10  -2   1    2.80    1.88
 -10  -4   1    1.61    2.45
 -10   4  -1    1.16    2.16
  10   4   1    3.12    2.67
  10  -4  -1    1.15    1.99
 -10  -4   1    2.51    2.71
  10  -4   1    6.90    2.83
 -10  -4  -1    2.86    2.89
  10   4  -1    9.10    3.38
 -10   4   1    4.34    2.70
 -10  -4  -1    9.07    3.71
 -10   6  -1   27.98    6.30
  10   6   1   33.93    7.07
 -10  -6   1   26.64    6.64
  10  -6  -1   22.34    5.21
 -10  -6   1   27.83    7.08
  10  -6   1   22.50    8.13
 -10  -6  -1   15.44    5.04
 -10   6   1   25.98    5.96
  10   6  -1   16.53    5.10
  10  -6   1   21.31    5.18
 -10  -6  -1   23.57    5.97
 -10   8  -1   12.57    5.18
  10   8   1   20.95    6.34
  10  -8  -1   17.41    5.73
 -10  -8   1   18.42    6.47
  10  -8   1   15.94    7.84
  10   8  -1    9.26    4.81
  10   8  -1   17.13    5.66
 -10  -8  -1   16.65    5.84
 -10   8   1   13.86    5.54
 -10  -8  -1   26.66    7.18
 -11  -1   1    4.90    2.54
 -11   1  -1    3.71    2.64
 -11  -1   1    2.84    2.24
 -11   1  -1    4.94    2.51
 -11   1  -1    2.76    1.86
 -11  -1   1    2.85    2.53
 -11   1   1    4.81    2.49
 -11  -1  -1    5.89    2.34
 -11  -1  -1    2.67    2.22
 -11   1   1    4.01    2.22
 -11  -1  -1    3.37    2.77
 -11   1   1    6.42    2.95
 -11   3  -1   37.66    6.09
  11   3   1   29.05    5.62
  11  -3  -1   32.36    5.45
 -11  -3   1   28.66    5.79
 -11  -3   1   25.37    5.53
 -11  -3  -1   30.79    5.42
 -11   3   1   39.63    6.16
  11  -3   1   38.58    5.31
 -11  -3  -1   41.93    7.31
  11   3  -1   31.65    5.69
 -11  -5   1   22.86    5.96
  11  -5  -1   34.87    6.30
  11   5   1   27.51    6.24
 -11   5  -1   26.94    5.98
 -11  -5   1   24.68    5.95
 -11  -5  -1   18.79    5.35
 -11  -5  -1   30.08    6.67
  11  -5   1   27.71    5.52
  11   5  -1   36.38    6.80
 -11   5   1   30.37    6.43
  11   7   1    4.90    4.12
 -11  -7   1    0.27    2.85
 -11   7  -1    3.34    3.35
  11  -7  -1    2.95    3.73
 -11  -7   1    1.03    2.77
 -11  -7  -1   -2.99    2.78
 -11  -7  -1    0.53    3.06
 -11   7   1    2.94    3.15
  11   7  -1    7.43    3.96
  11  -7   1   -1.50    3.66
  11   7  -1    0.88    3.30
 -12   0  -1    1.12    1.58
 -12   0   1   -0.38    1.60
 -12   0  -1    0.00    1.91
 -12   0  -1   -0.39    1.94
 -12   0   1   -0.30    1.57
 -12   0   1    0.34    1.90
 -12  -2   1   -1.17    1.79
  12  -2  -1    0.82    1.99
 -12  -2   1    1.03    2.39
 -12   2  -1    4.13    2.80
  12   2   1    0.98    2.09
 -12   2  -1   -0.64    1.69
  12  -2   1    1.10    1.78
 -12   2   1   -1.37    1.68
 -12  -2  -1   -0.08    1.78
 -12  -2  -1   -0.46    2.14
  12   2  -1    3.40    2.60
 -12  -4   1   -1.44    1.91
  12  -4  -1   -0.89    1.89
  12   4   1   -1.52    2.36
 -12   4  -1   -2.57    1.75
 -12  -4   1   -0.10    2.15
 -12  -4  -1    3.09    3.19
  12  -4   1    2.72    3.54
 -12   4   1    0.91    2.36
 -12  -4  -1    3.88    3.05
  12   4  -1    2.58    2.65
 -12  -6   1   15.72    5.84
  12  -6  -1    9.46    4.13
  12   6   1    7.40    4.28
 -12  -6   1    0.45    3.09
 -12   6  -1    7.87    4.08
 -12   6   1   16.47    5.31
  12   6  -1    1.63    3.16
 -12  -6  -1   11.70    4.79
 -12  -6  -1    3.63    3.96
  12  -6   1    5.66    5.06
 -13   1  -1   14.36    4.47
 -13  -1   1   12.68    4.42
 -13  -1   1    7.80    3.18
  13   1   1    7.56    3.59
 -13   1  -1   10.62    3.80
 -13   1  -1   18.95    4.11
  13   1   1    5.40    4.07
 -13   1   1   15.16    4.25
 -13  -1  -1   12.05    3.51
 -13  -1  -1   12.60    4.25
  13   1  -1    9.76    3.59
 -13   1   1    7.05    3.15
 -13   1   1   14.02    3.79
  13  -3  -1    7.96    3.31
 -13  -3   1    6.77    3.67
 -13   3  -1    6.35    3.57
  13   3   1   10.85    3.95
 -13  -3   1    7.82    4.30
  13   3  -1   12.02    4.24
 -13  -3  -1    5.06    3.37
 -13   3   1    7.27    3.69
 -13  -3  -1   10.06    4.55
 -13  -5   1    8.72    4.24
  13   5   1    3.62    3.94
  13  -5  -1   -0.19    2.69
 -13   5  -1    2.60    3.07
 -13  -5   1    4.00    3.78
 -13  -5  -1    7.77    4.17
 -13   5   1    7.29    3.72
  13  -5   1    6.10    5.02
 -13  -5  -1   15.86    5.68
  13   5  -1    5.34    3.97
  14   0   1    1.51    3.61
 -14   0   1    6.10    3.58
 -14   0   1   -2.13    2.08
 -14   0  -1    1.46    2.40
 -14   0   1    1.50    2.21
 -14   0  -1   -0.48    2.27
 -14   2  -1    2.36    2.73
  14  -2  -1    2.68    2.70
 -14  -2   1   -1.22    2.11
 -14  -2   1    2.45    2.93
  14   2   1    3.29    2.83
 -14  -2  -1    1.77    2.64
  14   2  -1    0.42    2.28
 -14  -2  -1   -0.09    2.79
 -14   2   1    2.06    2.56
  14  -4  -1    2.20    3.08
 -14   4  -1   -0.73    2.51
 -14  -4   1    3.18    3.86
 -14  -4   1    1.90    3.15
  14   4   1    5.46    4.16
 -14  -4  -1   -0.28    2.32
 -14   4   1    2.95    2.86
 -14  -4  -1    1.81    2.96
  14  -4   1    0.95    4.54
  15  -1  -1  113.77   11.15
 -15  -1   1  110.88   11.23
 -15   1  -1   96.94   10.96
  15   1   1   84.62   10.14
 -15  -1   1  108.68   11.86
  15   1  -1  117.33   15.54
  15  -1   1   75.68   13.21
 -15   1   1  140.10   12.63
 -15  -1  -1   85.77   10.69
  15   3   1   80.23   10.76
 -15   3  -1  102.65   11.47
 -15  -3   1  106.96   12.26
 -15  -3   1   83.21   11.62
 -15  -3  -1   74.90   11.20
 -15   3   1   83.70    9.96
  15  -3   1   62.85   14.02
 -16   0  -1    0.64    2.53
 -16   0  -1    1.41    2.87
 -16   0   1   -1.19    4.17
 -16   0   1    0.11    3.14
 -16   2  -1    4.70    3.43
 -16  -2   1   -3.14    2.57
 -16  -2   1    1.95    3.21
  16   2   1    0.63    2.86
 -16  -2  -1    2.02    3.45
  16  -2   1   -1.67    3.52
   0   0   2   14.43    1.11
   0   0  -2   14.44    1.24
   0   0  -2   14.67    1.58
   0   0   2   16.52    2.63
   0  -2   2  352.25   10.11
   0   2   2  354.39    8.54
   0  -2  -2  363.41    8.52
   0  -2   2  341.74    8.88
   0   2  -2  360.73    7.95
   0   2   2  343.52    9.16
   0  -2  -2  348.49    6.47
   0   2  -2  354.81    7.38
   0   4  -2    3.74    1.54
   0   4   2    3.41    2.02
   0  -4  -2    5.58    2.33
   0  -4   2    3.55    1.82
   0  -4   2    1.70    1.78
   0   4  -2    4.36    2.04
   0  -4  -2    3.12    1.43
   0   6  -2  169.17    8.00
   0  -6   2  176.67   10.57
   0  -6  -2  164.27    7.13
   0   6  -2  158.40   10.22
   0  -6  -2  152.39    9.91
   0   6   2  138.27    9.86
   0  -6   2  168.72   10.68
   0  -8  -2    9.72    4.11
   0  -8   2    3.56    3.30
   0   8   2    8.48    4.41
   0   8  -2   -2.28    2.32
  -1   1  -2    3.13    0.97
  -1  -1   2    3.44    1.26
   1   1   2    4.20    1.45
  -1  -1   2    2.75    1.54
   1   1   2    3.52    1.38
   1  -1  -2    2.30    1.21
  -1   1  -2    3.27    1.15
   1  -1  -2    2.03    0.73
  -1  -1  -2    4.53    1.17
  -1   1   2    2.02    0.99
   1   1  -2    2.21    0.79
  -1  -1  -2    5.15    1.23
  -1   1   2    1.58    1.44
   1   1  -2    1.27    0.97
   1  -1   2    2.47    1.65
   1  -1   2    2.43    1.02
   1  -3  -2   -0.48    0.59
   1  -3  -2    1.01    1.28
  -1  -3   2    3.16    1.82
  -1   3  -2    1.82    0.91
  -1   3  -2    0.25    0.99
   1   3   2    0.41    1.19
  -1  -3   2    1.38    1.68
   1   3   2    1.00    1.04
  -1   3   2   -1.53    1.03
   1   3  -2   -0.57    0.88
  -1   3   2    0.14    1.29
  -1  -3  -2    0.57    1.13
   1   3  -2   -0.17    0.84
   1  -3   2    0.73    1.65
   1  -3   2    0.65    1.20
  -1  -3  -2    1.17    1.02
  -1   5  -2    6.57    2.74
   1  -5  -2    2.73    1.88
  -1   5  -2    2.72    1.32
  -1  -5   2    4.72    2.30
   1  -5  -2    3.67    1.41
  -1  -5   2    3.59    2.43
   1   5   2    3.93    2.52
   1   5  -2    2.32    1.70
   1   5  -2    2.92    1.90
  -1  -5  -2    4.94    2.55
   1  -5   2    5.24    2.64
  -1  -5  -2    4.21    1.71
  -1   5   2    3.84    1.92
   1  -5   2    5.75    2.71
  -1  -7   2    3.02    2.86
  -1   7  -2    8.20    3.67
   1  -7  -2    6.54    3.43
   1   7   2    8.00    3.62
   1   7  -2    8.19    3.20
   1  -7   2    4.62    3.00
   1   7  -2    3.40    2.69
  -1   7   2    7.22    3.44
   1  -7   2    9.80    4.31
  -1  -7  -2    1.17    2.76
  -1   9  -2   -0.72    2.72
  -1  -9   2   -2.27    2.81
   1   9   2    1.20    3.10
   1  -9  -2    1.38    2.98
   1  -9   2   -0.46    3.24
  -1  -9  -2   -0.43    3.23
  -1   9   2    4.12    3.50
   1   9  -2    1.21    2.98
  -2   0   2    5.20    1.84
  -2   0   2    8.62    1.70
  -2   0  -2    4.68    1.30
   2   0   2    4.94    1.89
   2   0  -2    6.10    1.27
  -2   0   2    7.42    0.75
  -2   0  -2    7.22    1.58
   2  -2  -2  530.07   11.01
   2   2   2  522.01    8.08
  -2  -2   2  514.40   10.47
  -2  -2   2  527.52   12.14
  -2   2  -2  544.20    8.29
   2  -2  -2  529.80    5.67
   2   2   2  508.50   11.99
   2   2  -2  504.88   10.94
  -2   2   2  522.09   10.24
  -2  -2  -2  535.30   10.54
  -2  -2  -2  531.87   10.72
   2  -2   2  550.17   14.72
   2   2  -2  543.71    9.98
  -2   2   2  497.52   12.88
   2  -2   2  516.14    8.90
  -2   4  -2    0.44    0.75
  -2  -4   2    2.20    1.72
   2   4   2   -0.24    1.50
   2  -4  -2   -0.69    0.49
  -2   4  -2    0.47    1.28
   2  -4  -2    0.34    1.29
  -2  -4   2    0.08    1.20
  -2   4   2    0.99    1.66
   2   4  -2    0.46    1.24
  -2  -4  -2   -0.02    1.21
   2  -4   2   -0.47    1.31
   2  -4   2    0.10    1.16
   2   4  -2   -0.28    1.20
  -2  -4  -2    0.24    1.10
  -2   6  -2  197.31    7.33
  -2  -6   2  210.85   10.96
   2   6   2  208.15   12.32
  -2   6  -2  204.81   11.42
   2  -6  -2  215.69   11.52
  -2  -6   2  184.73   11.61
  -2  -6  -2  197.69   11.60
   2  -6   2  186.90   10.73
   2  -6   2  203.95   12.46
  -2   6   2  219.01   11.92
   2   6  -2  197.96   10.00
  -2  -6  -2  205.03    9.41
   2   6  -2  199.07   11.29
  -2   8  -2    1.48    2.50
  -2  -8   2   -0.84    2.60
   2   8   2    1.98    3.49
   2  -8  -2    1.83    2.65
   2   8  -2    1.05    2.55
   2  -8   2    0.89    2.55
  -2  -8  -2    4.28    3.71
  -2   8   2    4.05    3.46
   2  -8   2    3.22    4.51
   3   1   2  135.43    5.56
  -3   1  -2  134.06    4.52
   3   1   2  132.40    5.33
  -3  -1   2  131.33    5.77
  -3   1  -2  132.68    5.34
   3  -1  -2  130.12    3.77
  -3  -1   2  128.80    5.44
   3  -1   2  135.46    7.22
   3   1  -2  137.63    5.68
   3   1  -2  131.12    3.93
  -3   1   2  130.19    5.21
  -3   1   2  129.59    4.16
   3  -1   2  136.45    3.35
  -3   1   2  142.60    6.97
  -3  -1  -2  127.23    5.25
  -3  -1  -2  135.02    4.86
   3   3   2    4.16    2.19
  -3  -3   2    7.55    2.08
  -3   3  -2    6.58    2.07
   3   3   2    8.65    1.25
   3  -3  -2    4.59    1.78
  -3   3  -2    7.54    1.38
  -3  -3   2    3.29    1.98
   3   3  -2    8.96    2.62
   3   3  -2    6.82    2.12
   3  -3   2    6.89    1.91
  -3   3   2    4.66    1.81
  -3  -3  -2    4.54    1.91
   3  -3   2   12.27    4.13
  -3   3   2    8.13    2.65
  -3  -3  -2    5.53    1.86
   3   5   2   57.61    7.58
  -3   5  -2   35.82    5.35
  -3   5  -2   52.78    3.30
  -3  -5   2   54.66    7.44
  -3  -5   2   54.20    4.28
   3  -5  -2   58.15    6.81
  -3   5   2   51.37    6.41
   3   5  -2   62.09    6.82
   3  -5   2   46.68    7.61
  -3  -5  -2   62.65    6.56
   3   5  -2   52.45    6.52
  -3  -5  -2   46.55    6.39
   3  -5   2   63.67    6.80
  -3  -7   2    3.27    2.92
  -3   7  -2    5.98    3.30
   3   7   2    4.92    3.26
   3  -7  -2    4.29    2.92
   3   7  -2    5.11    2.80
   3   7  -2    3.62    2.95
  -3   7   2    1.85    2.22
   3  -7   2    2.23    2.66
  -3  -7  -2    4.16    3.08
   3  -7   2    8.56    4.44
  -3  -7  -2    4.24    2.56
  -3  -9   2   55.08   10.00
   3   9   2   45.28    8.85
  -3   9  -2   53.69    9.18
   3  -9  -2   63.12    9.86
   3  -9   2   66.27   10.42
  -3   9   2   51.21    9.34
  -3  -9  -2   65.73   10.79
   3   9  -2   65.12   10.44
  -4   0   2  566.94    8.02
  -4   0   2  574.15   13.86
   4   0   2  539.56   13.87
  -4   0  -2  573.96    7.65
   4   0  -2  572.86   10.94
  -4   0   2  569.97   11.53
  -4   0  -2  556.48   11.28
  -4   0  -2  569.12   10.90
  -4  -2   2   88.24    5.54
   4  -2  -2   92.17    5.10
   4   2   2   85.68    5.51
  -4  -2   2   91.71    5.64
   4  -2  -2   84.07    2.63
  -4   2  -2   86.29    3.83
  -4   2  -2   77.97    5.04
   4   2   2   84.97    3.63
  -4  -2   2   83.52    4.53
  -4  -2  -2   77.40    4.94
   4   2  -2   96.17    4.83
   4  -2   2   88.00    4.00
  -4  -2  -2   79.96    5.08
  -4   2   2   81.20    4.48
  -4   2   2   79.21    6.27
   4  -2   2   89.28    7.00
  -4   4  -2  168.22    8.74
  -4  -4   2  166.39    5.84
  -4   4  -2  169.58    5.03
  -4  -4   2  176.29    9.85
   4   4   2  177.36    9.77
   4  -4  -2  164.59    8.50
  -4  -4  -2  180.54    9.64
  -4   4   2  158.11    8.18
   4   4  -2  188.75    9.56
   4  -4   2  150.51   10.38
   4  -4   2  162.60    7.61
  -4  -4  -2  176.74    8.81
   4   4  -2  184.11    8.93
  -4  -6   2   24.52    5.20
   4  -6  -2   38.45    6.26
  -4   6  -2   31.07    5.65
   4   6   2   38.30    7.05
  -4   6   2   40.45    6.37
  -4  -6  -2   37.90    5.61
   4  -6   2   34.21    5.55
  -4  -6  -2   47.32    7.67
   4   6  -2   29.13    5.37
   4   6  -2   41.14    6.51
   4  -6   2   48.97    9.04
   4  -8  -2  129.25   12.66
  -4   8  -2  125.49   13.18
   4   8   2  127.19   13.64
   4   8  -2  120.14   11.11
   4  -8   2  153.33   16.99
  -4  -8  -2  133.82   14.40
  -4   8   2  126.59   13.14
   4   8  -2  125.34   13.07
   4  -8   2  162.68   14.66
  -4  -8  -2  129.36   11.03
   5   1   2   34.19    4.60
   5  -1  -2   38.47    3.56
  -5   1  -2   37.11    4.44
  -5  -1   2   28.89    3.75
  -5  -1   2   30.22    4.26
  -5   1  -2   33.03    3.47
  -5  -1   2   32.18    4.18
   5  -1   2   29.90    2.21
  -5  -1  -2   28.75    3.10
  -5  -1  -2   37.72    4.43
   5  -1   2   30.45    5.52
   5   1  -2   29.97    2.94
  -5   1   2   29.89    3.52
  -5   1   2   36.71    3.44
  -5   1   2   34.65    5.89
  -5  -1  -2   32.02    3.91
  -5  -3   2   74.65    7.10
  -5  -3   2   80.36    7.74
   5  -3  -2   71.04    5.31
  -5   3  -2   64.84    3.41
  -5  -3   2   67.83    3.98
   5   3   2   64.44    7.18
   5  -3   2   72.08    4.49
   5   3  -2   65.99    4.97
   5  -3   2   80.17    9.51
  -5   3   2   70.58    5.07
  -5  -3  -2   87.21    7.85
  -5  -3  -2   84.59    7.48
   5  -5  -2   15.24    3.71
   5   5   2   15.24    4.30
  -5  -5   2   10.89    3.75
  -5   5  -2   16.70    3.98
  -5  -5  -2   18.38    4.33
   5   5  -2   15.97    4.03
   5  -5   2   14.70    4.97
  -5  -5  -2   14.58    3.84
  -5   5   2   17.73    4.02
   5   5  -2   13.92    4.10
   5  -5   2   17.25    3.54
   5  -7  -2   20.30    5.13
   5   7   2   38.30    7.35
  -5  -7   2   20.94    5.22
  -5   7  -2   26.87    5.59
   5  -7   2   29.13    5.65
   5  -7   2   36.17    8.47
  -5  -7  -2   24.55    5.96
  -5   7   2   31.20    6.57
   5   7  -2   30.13    5.85
  -5  -7  -2   19.94    4.77
   5   7  -2   23.28    5.74
   5  -9  -2    0.59    3.11
   5   9   2   -1.47    2.93
  -5   9  -2    7.26    4.02
  -5  -9   2    2.71    3.58
  -5  -9  -2    3.03    4.03
  -5   9   2    2.34    3.79
   5   9  -2    2.85    3.71
   5  -9   2   -1.15    3.60
   5  -9   2    4.83    3.78
  -6   0   2  167.91    7.34
  -6   0  -2  163.62    7.31
  -6   0   2  161.66    7.10
  -6   0   2  153.21    8.65
  -6   0  -2  163.10    7.08
  -6   0  -2  163.84    5.46
  -6   0   2  153.08    5.56
   6   0   2  166.12    8.98
  -6  -2   2    7.57    2.43
   6  -2  -2    8.01    2.31
  -6   2  -2   16.10    2.49
   6   2   2   15.57    3.50
   6  -2  -2   12.51    1.84
  -6   2  -2   12.93    3.17
  -6  -2   2   12.34    2.78
  -6  -2   2    9.40    2.75
   6   2   2   19.55    3.31
  -6  -2  -2   16.17    3.03
  -6   2   2   10.51    3.59
   6  -2   2   10.16    2.00
   6   2  -2   16.83    2.90
  -6  -2  -2   10.74    2.91
  -6   2   2   13.90    2.65
  -6  -4   2   94.40    9.06
  -6  -4   2   88.52    8.81
   6  -4  -2   81.85    7.73
  -6   4  -2   78.20    7.60
  -6   4  -2   79.21    3.79
   6   4   2   84.33    8.87
  -6   4   2   92.44    8.22
  -6  -4  -2  108.94   10.02
   6   4  -2   80.97    7.45
   6  -4   2   98.63   13.07
   6  -4   2   87.93    5.84
  -6  -4  -2   78.68    8.09
  -6   6  -2    5.52    3.17
   6   6   2    6.70    3.34
  -6  -6   2   15.45    4.60
   6  -6  -2   13.11    3.89
  -6  -6  -2    7.90    3.64
   6   6  -2    2.81    2.97
  -6   6   2   12.44    4.09
  -6  -6  -2    4.05    2.85
   6  -6   2   20.51    6.62
   6   6  -2   12.57    4.02
   6  -6   2   11.19    3.68
   6   8   2   42.45    7.97
  -6   8  -2   58.88    9.51
  -6  -8   2   45.11    8.67
   6  -8  -2   35.49    6.86
  -6   8   2   72.48   10.31
   6  -8   2   58.21    8.56
  -6  -8  -2   56.05    9.47
  -6  -8  -2   51.58    7.81
   6   8  -2   62.25    8.76
   6  -8   2   67.78   12.69
   6   8  -2   76.34   10.45
   7   1   2   74.11    7.67
  -7  -1   2   62.48    6.47
  -7   1  -2   68.81    3.97
  -7   1  -2   78.04    5.88
  -7   1  -2   79.82    5.12
  -7  -1   2   69.74    6.39
  -7  -1   2   75.12    5.99
  -7   1   2   65.20    4.40
  -7   1   2   71.09    5.24
   7   1  -2   67.65    4.39
  -7   1   2   80.90    8.86
  -7  -1  -2   66.89    4.32
  -7   1   2   66.64    4.50
  -7  -1  -2   58.72    5.80
  -7  -1  -2   66.74    6.28
   7   3   2   87.44    4.04
   7   3   2   92.23    8.72
  -7   3  -2   94.52    6.84
  -7  -3   2   84.98    5.15
  -7  -3   2  104.14    9.56
   7  -3  -2   93.14    6.51
  -7   3  -2   80.00    4.46
   7  -3  -2   83.81    3.24
  -7  -3   2   98.85    9.08
  -7   3   2   92.43    6.35
  -7  -3  -2   73.41    7.46
   7   3  -2   97.76    6.44
  -7  -3  -2   92.73    6.82
   7  -3   2   93.19    5.47
  -7  -5   2  104.55   10.95
  -7   5  -2   95.62    9.78
   7   5   2   85.96    9.86
  -7  -5   2   96.38    9.72
   7  -5  -2   89.93    8.95
   7  -5   2   77.23   10.80
  -7   5   2  103.92    9.66
  -7  -5  -2   81.17    8.99
   7  -5   2   96.73    7.12
  -7  -5  -2   85.49    9.07
   7   5  -2  103.55    9.45
  -7   7  -2   18.38    5.11
  -7  -7   2    9.42    4.45
   7  -7  -2   12.85    4.39
   7   7   2   20.57    5.63
   7  -7   2   27.00    8.41
  -7  -7  -2   14.04    4.70
  -7   7   2   16.17    5.13
   7   7  -2    6.96    3.46
   7  -7   2   12.90    3.89
   7   7  -2   21.56    5.70
  -7  -7  -2   18.22    5.32
  -7   9  -2   22.24    6.30
  -7  -9   2   26.07    7.68
   7   9   2   27.90    7.30
   7  -9  -2   26.41    6.73
   7   9  -2   22.60    6.09
  -7  -9  -2   25.91    7.30
   7  -9   2   46.80    8.51
   7  -9   2   16.88    6.91
   7   9  -2   25.28    6.92
  -7  -9  -2   36.52    7.22
  -7   9   2   24.82    6.89
  -8   0   2   10.77    2.91
  -8   0  -2   10.63    2.85
   8   0   2    8.08    3.32
  -8   0   2    8.07    2.19
  -8   0   2    8.96    2.64
  -8   0  -2   10.28    2.20
  -8   0   2    6.40    3.11
  -8   0  -2    9.89    2.72
   8   2   2   71.81    5.62
  -8  -2   2   64.23    5.40
   8  -2  -2   86.14    7.56
   8  -2  -2   73.88    4.50
   8   2   2   84.54    8.02
  -8  -2   2   64.79    6.81
  -8   2  -2   78.17    5.11
  -8   2  -2   88.64    6.68
  -8  -2   2   76.19    7.83
   8   2  -2   72.17    6.67
  -8  -2  -2   73.06    5.48
  -8   2   2   74.03    5.48
   8  -2   2   70.76    4.57
  -8  -2  -2   59.41    6.82
  -8  -4   2   22.59    5.07
  -8   4  -2   24.37    4.82
   8   4   2   21.71    4.90
   8  -4  -2   22.88    4.61
  -8  -4   2   15.98    4.22
   8   4  -2   18.04    4.14
  -8   4   2   20.97    4.18
   8  -4   2   21.62    3.80
  -8  -4  -2   24.00    4.83
  -8  -4  -2   19.73    4.80
   8  -4   2   24.17    7.12
  -8   6  -2   26.85    5.72
   8  -6  -2   36.94    6.47
  -8  -6   2   26.07    6.38
   8   6   2   32.78    7.00
   8  -6   2   34.08    8.79
  -8  -6  -2   44.17    7.55
  -8  -6  -2   33.58    6.64
   8  -6   2   35.68    5.86
   8   6  -2   43.71    7.51
  -8   6   2   40.56    7.11
   8   6  -2   23.67    5.15
  -8  -8   2    2.81    3.85
  -8   8  -2    4.58    3.97
   8   8   2    6.68    3.92
   8  -8  -2   -0.05    3.00
   8  -8   2    2.59    5.26
   8   8  -2    3.10    3.28
  -8   8   2    5.79    3.94
   8   8  -2    2.79    3.31
   8  -8   2    0.07    2.99
  -8  -8  -2    2.17    3.22
  -8  -8  -2    3.61    3.54
  -9  -1   2   17.32    3.69
  -9  -1   2   19.41    4.18
  -9   1  -2   21.44    3.80
  -9   1  -2   25.90    3.64
  -9   1  -2   24.11    4.32
   9   1   2   21.01    4.98
  -9  -1  -2   25.19    4.60
  -9   1   2   18.12    3.47
  -9   1   2   27.58    4.88
   9   1  -2   21.86    3.66
  -9   1   2   30.46    4.24
  -9  -1  -2   23.26    4.34
  -9  -1  -2   20.64    3.44
  -9   3  -2   53.47    5.17
   9  -3  -2   57.99    6.79
   9   3   2   50.94    6.87
  -9   3  -2   47.78    6.41
  -9  -3   2   66.60    8.39
  -9  -3   2   49.30    6.90
  -9  -3  -2   65.58    7.34
   9  -3   2   54.82    5.56
  -9   3   2   49.51    5.99
  -9  -3  -2   39.35    6.13
   9   3  -2   37.18    5.41
  -9   5  -2    3.58    2.91
  -9  -5   2    8.84    3.88
   9   5   2   12.42    4.31
   9  -5  -2    4.68    2.78
  -9  -5   2    7.30    3.76
   9   5  -2    4.16    2.72
  -9  -5  -2    6.43    3.15
   9  -5   2    3.36    3.78
  -9  -5  -2    1.58    2.64
  -9   5   2    9.72    3.61
   9  -5   2    5.86    2.51
   9  -7  -2   44.39    7.82
  -9   7  -2   61.06    9.39
  -9  -7   2   48.17    8.96
   9   7   2   41.03    8.09
  -9   7   2   57.14    8.88
   9   7  -2   51.36    8.22
   9  -7   2   49.82   11.38
  -9  -7  -2   58.60    9.39
   9  -7   2   45.99    7.18
  -9  -7  -2   40.11    7.94
   9   7  -2   44.67    8.63
 -10   0   2  271.85   12.07
 -10   0  -2  281.84   12.27
 -10   0   2  292.36   12.12
 -10   0  -2  290.44   10.05
 -10   0   2  296.65   10.88
  10   0   2  300.72   15.24
 -10   0  -2  278.11   12.10
 -10   2  -2   89.48    6.37
  10  -2  -2   98.78    7.40
 -10  -2   2  102.02   10.43
 -10   2  -2   84.61    8.65
  10   2   2   97.74    7.53
 -10  -2   2  114.68   10.51
  10  -2  -2   86.63    5.89
  10   2   2  102.67    9.80
  10  -2   2   91.06    5.92
 -10  -2  -2   97.15    6.86
  10   2  -2   90.08    6.69
 -10   2   2   89.48    6.67
 -10  -2  -2   75.68    8.62
  10  -4  -2  122.68    9.01
 -10  -4   2  102.54   10.89
 -10  -4   2  123.49   11.85
  10   4   2  140.07   12.99
 -10   4  -2  132.65    9.70
 -10   4   2  116.54    8.58
  10   4  -2  119.34    8.79
 -10  -4  -2  115.53   11.25
 -10  -4  -2  120.78   10.91
  10  -4   2  130.43    8.04
  10  -4   2  134.41   17.89
  10   6   2   58.12    9.41
 -10  -6   2   51.90    9.02
 -10   6  -2   53.27    8.38
  10  -6  -2   35.42    6.84
  10   6  -2   42.60    7.11
  10   6  -2   47.67    8.65
 -10  -6  -2   41.82    7.50
 -10  -6  -2   56.71    8.88
  10  -6   2   53.35   11.98
 -10   6   2   43.10    7.53
 -11  -1   2   51.77    6.99
 -11  -1   2   56.64    7.16
 -11   1  -2   46.19    5.16
  11   1   2   65.20    9.24
 -11   1  -2   57.79    6.98
 -11   1  -2   42.74    6.35
  11   1  -2   49.02    5.98
 -11   1   2   38.74    5.71
 -11   1   2   65.32    7.23
 -11   1   2   61.03    6.67
 -11  -1  -2   60.66    7.34
 -11  -1  -2   55.83    6.01
  11  -1   2   57.10    9.74
 -11  -1  -2   54.61    7.52
  11  -3  -2    9.71    3.47
  11   3   2    1.29    2.25
 -11  -3   2   16.80    4.75
 -11  -3   2    9.99    4.19
 -11   3  -2    6.16    3.20
 -11   3   2    5.45    2.71
 -11  -3  -2    2.84    2.33
  11  -3   2    9.09    5.65
  11  -3   2    3.37    2.15
 -11  -3  -2   13.27    4.81
  11   3  -2   11.22    3.58
 -11   5  -2   19.25    5.25
 -11  -5   2   16.59    5.43
 -11  -5   2   29.03    6.33
  11   5   2   27.35    6.54
  11  -5  -2   17.49    4.78
 -11  -5  -2   23.20    5.78
 -11   5   2   30.30    6.23
  11   5  -2   21.80    5.20
  11  -5   2   18.87    7.34
 -11  -5  -2    7.57    3.67
  11  -7  -2    9.27    4.06
  11   7   2   20.96    6.64
 -11  -7   2   10.42    5.44
 -11   7  -2    3.64    3.59
 -11  -7  -2    8.54    4.43
 -11   7   2    3.47    3.68
 -11  -7  -2   10.23    4.99
  11   7  -2    5.17    4.15
  11  -7   2   14.60    8.12
 -12   0  -2   79.19    6.99
 -12   0   2  103.83    9.62
 -12   0   2   90.78    8.21
 -12   0   2   79.96    8.88
  12   0   2  105.57   12.93
 -12   0  -2   98.37   10.42
 -12   0  -2   82.61    9.02
 -12  -2   2    4.21    2.77
 -12  -2   2   -1.10    2.34
  12  -2  -2   -0.86    1.73
  12   2   2   -0.05    1.79
 -12   2  -2    4.61    2.77
 -12   2  -2   -1.11    1.99
 -12  -2  -2    0.43    2.84
 -12  -2  -2    2.52    2.17
 -12   2   2   -0.02    1.82
  12   2  -2    1.54    2.15
  12  -2   2    0.80    3.15
 -12   4  -2  101.89   11.18
 -12  -4   2   93.21   11.47
 -12  -4   2  106.49   12.26
  12   4   2  113.11   12.21
  12  -4  -2  100.99   10.48
  12   4  -2  126.90   11.71
 -12  -4  -2  105.09   11.94
 -12   4   2  104.17    9.95
 -12  -4  -2   97.53   10.35
  12  -4   2   98.60   15.99
  12  -6  -2    2.15    3.29
  12   6   2    2.42    3.70
 -12  -6   2   -2.90    2.80
 -12   6  -2    1.55    2.92
 -12   6   2    5.08    3.53
 -12  -6  -2   -0.09    2.81
  12  -6   2   -2.25    3.50
  12   6  -2    0.12    2.92
 -12  -6  -2   -0.30    3.19
 -13  -1   2    1.24    2.37
 -13   1  -2    0.70    2.28
 -13   1  -2   -0.73    2.02
 -13  -1   2   -0.89    2.52
 -13  -1  -2    4.03    3.02
 -13   1   2    1.25    2.19
 -13   1   2    2.57    2.31
 -13   1   2    1.06    2.01
  13  -1   2   -2.09    2.46
 -13  -1  -2   -1.44    1.91
  13   1  -2   -1.13    1.54
 -13  -3   2    2.03    2.59
 -13   3  -2    4.70    3.19
  13   3   2    5.76    3.42
  13  -3  -2    3.08    2.81
 -13  -3   2   12.25    4.93
 -13  -3  -2   -0.53    2.10
 -13   3   2    3.61    2.82
  13  -3   2    5.50    5.57
 -13  -3  -2    1.45    2.85
  13  -5  -2    5.29    3.58
  13   5   2    0.94    3.04
 -13  -5   2   -0.01    3.16
 -13  -5   2    2.02    3.32
 -13   5  -2   -1.30    2.44
 -13   5   2   -0.53    2.29
 -13  -5  -2    4.92    3.84
  13  -5   2    3.72    4.91
  13   5  -2   -2.19    2.89
 -13  -5  -2    1.80    3.56
 -14   0   2   21.55    6.72
 -14   0   2   33.84    6.12
 -14   0   2   38.49    6.83
  14   0   2   36.55    8.84
 -14   0  -2   30.96    6.28
 -14   0  -2   33.19    6.79
 -14  -2   2   -0.63    2.49
  14  -2  -2    5.69    3.47
 -14   2  -2    6.55    3.41
 -14  -2   2    1.06    2.63
  14   2   2    0.82    2.65
 -14  -2  -2    6.51    4.00
  14  -2   2   -0.15    3.26
 -14   2   2    1.36    2.43
  14   4   2   53.94    9.37
  14  -4  -2   68.44    9.36
 -14   4  -2   52.80    8.83
 -14  -4   2   42.87    7.96
 -14  -4   2   62.20    9.73
 -14  -4  -2   49.54    9.09
 -14   4   2   58.38    8.62
 -14  -4  -2   54.16    9.23
  14  -4   2   35.02   10.03
  15   1   2    2.37    2.79
 -15  -1   2   -2.67    2.11
 -15   1  -2    0.74    2.84
 -15  -1   2   -0.16    2.67
  15  -1   2   -5.97    2.00
 -15  -1  -2   -1.99    2.37
 -15   1   2   -0.75    1.94
  15  -3  -2   -2.81    2.22
  15   3   2    2.74    3.01
 -15   3  -2    0.13    2.57
 -15  -3   2   -0.37    2.94
 -15  -3   2    1.24    3.04
  15  -3   2    0.27    3.91
 -15  -3  -2    0.19    3.06
 -16   0   2   20.18    5.83
 -16   0  -2   22.09    5.94
 -16   0  -2   27.07    6.73
 -16  -2   2  186.01   16.47
 -16  -2   2  221.07   14.53
  16   2   2  199.73   14.23
  16  -2  -2  191.04   13.40
 -16   2  -2  186.42   13.84
  16  -2   2  127.91   17.77
  16   2  -2  208.86   15.38
 -16  -2  -2  183.22   16.92
   0   0  -3   -1.12    0.54
   0   0  -3   -1.20    0.85
   0   0   3   -1.31    1.42
   0   0   3    0.34    0.69
   0  -2   3    6.19    2.39
   0   2  -3    6.66    1.69
   0  -2  -3    8.27    1.92
   0   2  -3    5.06    1.44
   0   2   3    5.53    1.99
   0  -2  -3    4.25    1.33
   0  -2   3    6.20    1.83
   0   2   3    6.58    2.14
   0  -4   3   37.73    5.85
   0  -4  -3   24.27    3.03
   0  -4   3   24.59    4.12
   0   4   3   32.34    5.25
   0   4   3   22.57    3.79
   0   4  -3   27.18    3.68
   0   4  -3   24.95    3.92
   0  -4  -3   23.14    3.97
   0   6   3   79.02    8.71
   0  -6  -3  134.01   11.88
   0   6  -3  112.52    6.85
   0  -6   3  110.07   10.58
   0  -6   3  108.86    8.71
   0  -6  -3  108.47    6.05
   0   6  -3  120.11   10.54
   0  -8   3   54.05    8.75
   0  -8  -3   41.68    7.91
   0   8   3   74.56   10.67
   0   8  -3   62.17    9.37
   1   1   3  396.70    8.67
   1  -1  -3  399.82    8.18
  -1   1  -3  399.96    7.68
  -1  -1   3  368.36   10.33
  -1  -1   3  400.13    8.06
  -1   1  -3  405.43    7.98
   1  -1  -3  406.41    7.17
   1   1   3  401.29    9.96
  -1  -1  -3  391.93    8.01
  -1   1   3  409.69    7.54
   1  -1   3  407.16    6.05
  -1  -1  -3  412.90    7.21
   1  -1   3  378.38   11.35
   1   1  -3  398.95    5.53
   1   1  -3  405.32    8.49
  -1   1   3  402.44   10.80
  -1  -3   3  501.04   13.61
  -1   3  -3  511.23   10.36
   1  -3  -3  515.87   12.75
   1   3   3  478.70   13.62
   1   3   3  496.61   11.14
  -1  -3   3  494.75   13.46
  -1   3  -3  510.10   11.97
   1  -3  -3  499.36    8.43
   1  -3   3  489.26   15.49
  -1   3   3  486.63   12.46
  -1  -3  -3  505.30   10.70
   1   3  -3  497.66   11.71
   1  -3   3  485.92   12.20
   1   3  -3  487.25   11.26
  -1  -3  -3  498.32   12.32
  -1   3   3  473.42   13.25
  -1  -5   3  355.70   14.11
   1   5   3  329.94   14.21
  -1   5  -3  341.14    9.97
  -1  -5   3  359.32   13.38
   1  -5  -3  333.67    8.77
   1  -5  -3  339.49   13.34
  -1   5  -3  345.85   13.10
   1  -5   3  352.97   13.48
   1   5  -3  341.97   12.87
  -1  -5  -3  338.28   10.66
   1   5  -3  347.19   11.72
  -1  -5  -3  328.20   13.19
   1  -5   3  347.05   14.98
  -1   5   3  348.76   13.92
  -1   7  -3  116.93   11.15
   1  -7  -3  127.31   11.76
  -1  -7   3  134.50   12.68
   1   7   3  128.96   13.06
   1  -7   3  121.85   10.73
   1  -7   3  131.53   12.43
  -1  -7  -3  115.83   11.50
   1   7  -3  139.86   12.50
  -1   7   3  102.58   10.53
   1   7  -3  127.53    8.22
   1  -9  -3   46.43    8.51
  -1   9  -3   38.10    7.95
  -1  -9   3   22.26    6.14
   1   9   3   47.58    9.57
  -1   9   3   60.85   10.33
   1   9  -3   48.15    9.18
  -1  -9  -3   42.87    9.02
   1  -9   3   71.02   10.75
  -2   0  -3   -1.72    0.78
  -2   0   3    0.93    0.94
  -2   0   3    0.89    1.52
   2   0  -3   -0.03    0.77
   2   0   3   -2.40    1.25
  -2   0  -3    0.12    0.99
  -2   0  -3   -0.10    0.41
   2   2   3    0.28    1.26
  -2  -2   3   -0.90    0.98
  -2  -2   3   -0.39    1.39
   2  -2  -3   -0.08    0.96
  -2   2  -3    0.88    1.21
  -2   2  -3    0.13    0.82
   2   2   3   -0.31    0.95
   2  -2  -3    0.80    0.62
  -2   2   3   -0.07    1.03
   2   2  -3    0.26    0.75
   2   2  -3    0.11    0.99
  -2  -2  -3    0.13    0.98
   2  -2   3   -0.13    0.85
  -2  -2  -3    2.45    1.28
  -2   2   3    0.92    1.47
   2  -2   3    0.03    1.59
   2  -4  -3   10.77    1.57
  -2   4  -3    8.85    2.59
  -2   4  -3   10.99    2.05
   2   4   3   14.42    2.72
  -2  -4   3    7.89    2.71
   2  -4  -3   12.43    3.06
  -2  -4   3    9.06    2.67
   2   4   3    7.95    2.76
   2   4  -3    8.28    2.26
  -2  -4  -3    9.67    2.32
  -2   4   3    7.08    2.91
  -2   4   3    5.24    2.19
   2  -4   3   10.31    2.75
   2   4  -3    7.74    2.34
  -2  -4  -3   14.39    3.28
   2  -4   3   18.71    4.69
  -2   6  -3   50.46    7.13
   2   6   3   34.99    6.63
   2  -6  -3   31.11    5.69
  -2  -6   3   30.01    5.63
  -2  -6   3   39.68    5.89
  -2   6  -3   33.50    3.95
  -2  -6  -3   36.34    5.06
   2   6  -3   35.04    5.87
   2  -6   3   33.96    7.31
   2  -6   3   42.34    6.15
  -2   6   3   31.21    5.93
   2   6  -3   29.23    4.87
  -2  -6  -3   39.00    6.72
   2   8   3   41.97    8.86
  -2  -8   3   24.29    6.23
  -2   8  -3   39.10    7.60
   2  -8  -3   20.43    5.62
   2   8  -3   25.74    6.61
   2  -8   3   35.69    8.09
   2  -8   3   30.68    6.86
  -2  -8  -3   33.39    7.17
  -2   8   3   24.04    6.53
   3  -1  -3    0.21    0.73
  -3   1  -3    0.44    1.17
  -3  -1   3   -0.82    1.11
  -3   1  -3   -1.47    0.72
  -3  -1   3   -0.40    1.27
   3   1   3   -0.05    1.20
   3   1   3    1.57    1.62
   3   1  -3   -0.23    0.60
  -3   1   3    0.74    0.81
   3   1  -3    1.13    1.34
   3  -1   3    0.13    0.44
  -3   1   3    0.44    1.56
   3  -1   3   -1.60    1.52
  -3  -1  -3   -0.36    0.91
  -3  -1  -3   -0.65    1.05
  -3   1   3    0.87    0.99
  -3   3  -3    0.57    0.93
  -3   3  -3    2.89    1.73
  -3  -3   3    0.09    1.44
  -3  -3   3    0.85    1.56
   3   3   3   -0.21    1.45
   3   3   3    0.46    0.89
   3  -3  -3    0.72    1.28
   3  -3  -3    1.10    0.58
   3  -3   3    1.08    1.79
   3   3  -3   -0.91    1.16
   3  -3   3    0.74    1.16
  -3  -3  -3   -1.75    1.07
  -3   3   3    0.64    1.28
  -3  -3  -3   -0.62    0.92
   3   3  -3   -0.15    1.07
  -3   3   3    1.78    1.93
   3  -5  -3   -0.76    1.09
  -3   5  -3    3.87    2.09
   3   5   3    0.30    1.51
  -3  -5   3   -0.32    1.31
  -3  -5   3    0.00    1.34
  -3   5  -3    1.62    1.10
  -3  -5  -3   -0.10    1.75
   3   5  -3   -0.83    1.29
   3  -5   3    1.95    2.54
   3  -5   3    2.09    1.78
   3   5  -3    1.76    1.81
  -3  -5  -3    4.01    1.92
  -3   5   3    2.05    1.91
  -3  -7   3   -1.69    2.17
   3   7   3   -0.70    2.09
   3  -7  -3    0.22    2.05
  -3   7  -3    2.10    2.71
   3   7  -3    3.65    2.96
   3  -7   3    1.10    3.36
  -3   7   3    1.11    2.49
  -3  -7  -3   -0.04    2.35
  -3  -7  -3   -0.81    1.62
   3   7  -3    2.10    2.36
   3  -7   3    0.39    2.21
   3  -9  -3    8.43    4.17
  -3  -9   3   12.88    5.21
   3   9   3    6.67    4.63
  -3   9  -3    4.64    4.22
   3   9  -3    1.54    3.45
  -3   9   3    5.42    4.37
   3  -9   3    3.28    3.84
  -3  -9  -3    5.39    4.77
  -4   0   3   -0.92    1.46
  -4   0  -3    0.92    1.29
  -4   0  -3    0.42    1.06
  -4   0   3   -0.66    0.88
  -4   0  -3    0.28    0.52
  -4   0   3   -0.55    0.50
   4   0  -3   -0.13    0.91
   4   0   3    0.94    1.73
   4  -2  -3    9.41    2.34
   4  -2  -3    5.95    1.16
   4   2   3    7.47    1.90
   4   2   3    5.80    2.21
  -4   2  -3    6.71    2.24
  -4  -2   3    8.14    2.33
  -4   2  -3    7.59    1.70
  -4  -2   3    4.91    2.14
   4   2  -3    4.42    1.79
  -4   2   3    6.48    2.82
   4   2  -3    5.45    1.56
   4  -2   3    7.75    1.47
  -4  -2  -3    5.25    1.97
  -4  -2  -3    8.63    2.26
  -4   2   3    7.63    1.87
   4  -2   3    3.16    2.53
   4   4   3    9.47    1.42
  -4   4  -3    5.86    1.46
  -4   4  -3    7.97    2.73
  -4  -4   3    9.23    2.46
  -4  -4   3   10.71    3.54
   4   4   3    9.99    3.27
   4  -4  -3    6.75    2.47
  -4   4   3    9.47    3.48
   4  -4   3    9.53    3.77
   4   4  -3    9.06    2.73
  -4  -4  -3    3.34    1.81
   4  -4   3   10.79    2.59
   4   4  -3    7.85    2.38
  -4   4   3   11.19    2.88
  -4  -4  -3    8.59    2.62
   4   6   3   10.89    3.72
  -4  -6   3   19.67    5.26
  -4   6  -3   19.57    4.62
   4  -6  -3   14.98    4.26
   4  -6   3   30.63    5.42
  -4  -6  -3   18.66    4.91
  -4   6   3   13.90    4.03
   4   6  -3   14.94    4.24
  -4  -6  -3   19.68    4.32
   4   6  -3   20.73    4.85
   4  -6   3   17.07    6.34
   4   8   3   24.26    6.15
  -4  -8   3   10.00    4.54
  -4   8  -3   33.71    7.44
   4  -8  -3   14.86    4.96
   4   8  -3   16.24    5.04
   4  -8   3   19.84    5.56
  -4   8   3   37.45    7.38
   4  -8   3   22.35    6.98
  -4  -8  -3   34.75    7.54
   4   8  -3   33.96    6.39
  -5  -1   3  252.04    9.15
  -5   1  -3  251.48    9.04
  -5  -1   3  247.06    9.83
  -5   1  -3  247.66    8.01
   5   1   3  254.05    9.97
   5  -1  -3  259.78    7.16
   5   1  -3  259.85    6.28
  -5   1   3  251.74    6.81
  -5  -1  -3  243.49    8.93
   5  -1   3  254.35    5.05
   5  -1   3  255.99   12.27
  -5   1   3  265.52   11.83
  -5   1   3  260.95    9.09
  -5  -1  -3  268.90    9.39
   5   1  -3  259.28    9.39
  -5  -1  -3  258.43    6.83
  -5  -3   3  239.57   10.83
  -5   3  -3  234.13   10.03
   5   3   3  240.25   10.74
   5  -3  -3  239.10    9.64
  -5  -3   3  238.19    8.73
   5  -3  -3  251.35    4.36
  -5   3  -3  249.51    7.26
   5   3  -3  232.82   10.55
   5  -3   3  245.81    7.81
  -5   3   3  253.66    9.13
  -5   3   3  244.21   12.51
   5  -3   3  259.46   13.77
  -5  -3  -3  248.65   10.09
   5   3  -3  246.76    9.05
  -5  -3  -3  248.31   10.19
  -5   5  -3  194.63   10.79
  -5  -5   3  174.21   11.37
   5   5   3  174.20   11.07
   5  -5  -3  200.64   10.74
   5   5  -3  179.26   10.59
   5   5  -3  175.71    9.70
  -5  -5  -3  171.36   10.73
  -5  -5  -3  199.31   10.66
   5  -5   3  170.64    8.82
  -5   5   3  169.96    9.71
   5  -5   3  169.76   12.96
   5  -7  -3   86.29    9.86
   5   7   3   90.97   11.23
  -5   7  -3   71.61    9.15
  -5  -7   3  101.24   11.37
  -5  -7  -3   97.68    9.88
  -5   7   3   95.73   10.52
   5  -7   3  100.73   13.53
  -5  -7  -3   82.96   10.76
   5  -7   3   91.74    9.65
   5   7  -3   87.85    9.89
   5   7  -3   79.64    9.33
  -5   9  -3   40.68    8.65
   5   9   3   30.52    7.63
   5  -9  -3   31.91    7.00
  -5  -9   3   36.91    8.16
   5  -9   3   30.84    7.32
  -5   9   3   39.09    8.19
   5   9  -3   37.40    8.11
   5   9  -3   27.24    6.79
  -5  -9  -3   31.07    7.84
   5  -9   3   36.46    9.71
  -6   0  -3   -0.25    0.63
  -6   0  -3   -0.28    1.23
  -6   0  -3   -1.06    1.04
  -6   0   3   -0.85    1.52
   6   0   3   -0.60    1.60
   6   0  -3    0.45    1.21
  -6   0   3   -0.40    0.75
  -6   0   3   -1.89    0.90
   6   2   3    0.59    1.36
   6  -2  -3   -1.24    1.09
  -6  -2   3   -0.11    1.37
  -6   2  -3    0.13    0.92
   6   2   3    1.30    1.53
  -6  -2   3    1.14    1.55
  -6   2  -3    0.23    1.61
   6  -2  -3    0.02    0.79
  -6  -2  -3   -0.11    1.18
   6  -2   3   -1.50    1.41
   6   2  -3   -0.89    0.79
   6   2  -3   -0.40    1.17
  -6   2   3   -2.53    1.32
  -6  -2  -3   -1.26    0.96
  -6   2   3   -0.18    1.01
   6  -2   3   -0.31    0.80
  -6   4  -3   17.29    2.54
   6   4   3   18.97    4.35
   6  -4  -3   20.65    4.14
  -6   4  -3   18.29    4.13
  -6  -4   3   13.78    3.79
  -6  -4   3   23.57    3.50
  -6  -4  -3   15.71    3.75
   6  -4   3   15.79    5.03
   6  -4   3   16.97    3.19
   6   4  -3   23.50    4.26
  -6   4   3   20.61    3.96
   6   4  -3   18.23    4.18
  -6  -4  -3   22.50    4.78
  -6   6  -3   62.25    8.17
  -6  -6   3   76.85    9.81
   6  -6  -3   59.85    7.67
   6   6   3   79.39   10.03
   6   6  -3   60.13    7.86
  -6  -6  -3   64.32    8.72
  -6  -6  -3   54.61    7.75
   6   6  -3   77.22    8.99
   6  -6   3   88.60   13.24
   6  -6   3   70.73    7.95
  -6   6   3   66.22    8.41
   6   8   3   51.26    9.73
   6  -8  -3   40.73    7.54
  -6   8  -3   54.40    9.49
  -6  -8   3   49.66    8.64
   6  -8   3   58.27    8.70
  -6   8   3   45.30    8.22
  -6  -8  -3   60.15   10.01
  -6  -8  -3   53.81    7.96
   6  -8   3   47.31   10.58
   6   8  -3   54.81    8.55
   6   8  -3   37.08    6.98
   7   1   3  293.46   12.27
  -7  -1   3  289.12   12.15
  -7  -1   3  289.63   11.08
  -7   1  -3  267.19    9.55
  -7   1  -3  287.37   11.05
   7  -1  -3  302.02    9.15
   7  -1   3  282.62   14.04
   7  -1   3  287.67    7.13
  -7  -1  -3  281.87   10.92
   7   1  -3  284.77   11.16
   7   1  -3  278.06    8.18
  -7   1   3  285.79   10.73
  -7  -1  -3  264.44   10.72
  -7   1   3  278.27    8.38
  -7   1   3  277.90   13.60
  -7  -1  -3  293.14    8.27
   7   3   3  428.37   15.40
  -7  -3   3  437.29   15.55
  -7  -3   3  440.57   12.62
   7  -3  -3  423.87    7.47
   7   3   3  427.72    9.99
  -7   3  -3  436.39   10.81
  -7   3  -3  426.83   14.64
   7  -3  -3  423.81   13.95
  -7  -3  -3  423.14   14.84
   7   3  -3  432.59   15.89
   7   3  -3  426.39   12.65
  -7  -3  -3  428.13   13.95
  -7   3   3  451.34   13.27
   7  -3   3  416.19   10.71
   7  -3   3  432.79   19.66
   7   5   3  294.75   15.03
  -7  -5   3  298.24   15.14
  -7   5  -3  336.01   14.92
   7  -5  -3  313.13   14.06
   7  -5   3  303.84   18.48
   7   5  -3  336.86   15.81
  -7  -5  -3  311.92   14.89
  -7   5   3  306.18   13.38
   7  -5   3  306.57   11.79
  -7  -5  -3  323.29   14.62
   7   5  -3  326.89   13.42
   7  -7  -3  116.37   12.02
  -7  -7   3   99.50   11.41
   7   7   3  132.74   14.40
  -7   7  -3  108.01   11.27
  -7   7   3  125.96   12.62
   7   7  -3  128.91   12.04
   7  -7   3  138.07    9.97
  -7  -7  -3  138.61   12.75
   7  -7   3  123.54   17.26
  -7  -7  -3  111.00   12.47
   7   7  -3  116.10   12.01
  -8   0  -3   -0.99    1.04
   8   0  -3    0.07    1.28
  -8   0   3   -0.26    1.52
  -8   0  -3   -2.21    0.95
  -8   0   3   -0.86    1.15
   8   0   3   -0.10    1.75
  -8   0  -3    0.55    0.87
  -8   0   3   -0.16    0.94
   8  -2  -3    1.51    1.24
  -8  -2   3    1.20    1.97
   8  -2  -3    2.25    1.91
   8   2   3    2.20    2.14
  -8   2  -3    5.19    2.12
  -8  -2   3    2.51    1.88
  -8  -2   3    3.43    2.40
   8   2   3    3.03    2.27
  -8   2  -3    3.51    2.17
  -8  -2  -3    3.99    1.94
   8   2  -3    4.04    1.81
   8  -2   3   -0.67    2.19
  -8   2   3    6.15    2.09
  -8   2   3    2.18    2.50
  -8  -2  -3    2.51    1.92
   8   2  -3    4.46    2.45
   8  -2   3    2.54    1.29
   8  -4  -3    3.60    2.42
  -8  -4   3    5.49    2.93
   8   4   3   11.59    4.08
  -8   4  -3    6.70    2.91
  -8   4   3    8.84    3.03
  -8  -4  -3    6.72    2.79
  -8  -4  -3    4.44    2.79
   8   4  -3    7.67    3.13
   8   4  -3    9.41    3.07
   8  -4   3   11.07    2.72
   8  -4   3   -0.93    2.62
  -8  -6   3   45.95    7.72
   8  -6  -3   39.08    6.54
   8   6   3   40.75    7.45
  -8   6  -3   43.54    7.19
   8   6  -3   40.79    6.58
   8   6  -3   58.34    9.06
  -8  -6  -3   40.98    7.23
   8  -6   3   42.44    6.22
  -8   6   3   50.03    7.57
   8  -6   3   48.53   11.00
  -8  -6  -3   41.19    7.09
  -8   8  -3   24.12    6.51
   8   8   3   16.60    5.62
   8  -8  -3   19.61    5.60
  -8  -8   3   28.15    7.14
  -8   8   3   26.17    6.67
   8   8  -3   30.72    6.87
   8   8  -3   32.98    7.25
  -8  -8  -3   34.93    7.53
  -8  -8  -3   17.62    5.71
   8  -8   3   10.34    6.09
   9  -1  -3    0.48    1.33
   9   1   3    2.55    2.18
  -9  -1   3    4.96    2.59
  -9  -1   3    4.10    2.64
  -9   1  -3   -0.17    1.47
  -9  -1   3    1.59    1.95
  -9   1  -3    1.26    1.48
  -9   1   3   -1.04    1.65
  -9  -1  -3   -0.25    1.21
   9   1  -3    1.50    1.96
   9   1  -3    0.79    1.21
  -9  -1  -3   -0.16    1.62
   9  -1   3    3.43    3.05
  -9  -1  -3   -0.26    0.91
   9  -1   3    1.20    1.08
  -9   1   3    0.52    1.62
  -9   1   3    1.33    1.39
   9  -3  -3    1.83    2.01
   9   3   3    2.15    2.26
  -9   3  -3   -0.08    1.34
  -9  -3   3   -0.42    1.66
  -9   3  -3    1.83    1.99
  -9  -3   3    3.12    2.58
  -9  -3   3   -0.63    1.79
  -9  -3  -3   -0.99    1.41
   9  -3   3   -0.42    3.15
   9  -3   3   -1.18    1.12
  -9   3   3   -0.86    1.25
   9   3  -3   -0.24    1.49
   9   3  -3   -1.34    1.94
  -9  -3  -3    2.05    1.98
   9  -5  -3   -0.53    2.00
  -9  -5   3    0.93    2.52
  -9   5  -3    2.54    2.52
   9   5   3    2.44    3.06
  -9   5   3   -1.39    1.79
   9   5  -3   -0.27    1.87
   9  -5   3    3.03    4.44
  -9  -5  -3    0.13    2.50
   9   5  -3    0.24    2.66
  -9  -5  -3   -3.11    1.79
   9  -5   3    0.30    1.81
   9  -7  -3    3.82    3.05
  -9  -7   3    4.54    4.16
   9   7   3   -2.45    2.26
  -9   7  -3    2.52    3.17
  -9  -7  -3   -0.71    2.18
   9   7  -3    1.00    2.86
   9  -7   3   -3.23    3.78
  -9  -7  -3   -1.95    2.17
   9   7  -3    0.38    2.88
  -9   7   3    1.88    2.94
 -10   0   3    0.42    1.32
 -10   0  -3   -0.11    1.51
 -10   0  -3   -0.23    1.65
  10   0   3    1.16    2.32
 -10   0   3    0.86    1.65
 -10   0  -3   -0.91    0.92
  10   0  -3   -1.74    1.26
 -10  -2   3    4.31    2.67
 -10   2  -3    1.60    2.15
  10  -2  -3   -0.12    1.62
 -10   2  -3    3.03    2.01
  10  -2  -3    0.64    1.43
  10   2   3    0.78    2.33
 -10  -2   3    0.75    1.88
 -10  -2   3    4.01    2.50
  10   2   3    0.38    1.89
 -10  -2  -3    2.62    2.44
  10  -2   3    0.57    2.75
 -10  -2  -3    2.62    1.78
 -10   2   3    1.67    1.80
  10   2  -3    2.87    1.89
  10  -2   3    2.55    1.57
  10   4   3    3.74    3.17
 -10   4  -3   11.15    4.01
  10  -4  -3    3.35    2.47
 -10  -4   3    2.29    3.20
  10  -4   3    5.58    4.60
  10   4  -3    1.64    2.00
 -10  -4  -3    3.79    2.93
 -10   4   3    2.89    2.31
  10   4  -3    9.48    3.93
 -10  -4  -3    5.68    2.96
  10   6   3    1.28    3.07
 -10   6  -3   14.61    4.71
  10  -6  -3   17.19    5.06
 -10  -6   3   14.80    5.02
 -10   6   3   14.16    4.55
  10   6  -3    9.57    6.29
 -10  -6  -3   11.33    4.44
  10  -6   3   21.09    8.36
 -10  -6  -3   12.87    4.59
  10   6  -3   11.68    4.93
  11  -1  -3   97.23    8.49
  11   1   3  100.96   11.43
 -11  -1   3  104.41   10.25
 -11   1  -3   93.11    8.82
 -11   1  -3   81.46    8.62
 -11  -1   3   70.69    7.92
 -11   1   3   99.94    6.73
  11   1  -3   95.96    6.71
 -11  -1  -3   89.63    6.12
 -11   1   3  114.51   10.31
  11  -1   3   98.66   13.05
 -11  -1  -3   94.86    9.36
  11   1  -3   90.06    9.36
 -11  -1  -3   91.12    9.23
 -11  -3   3   66.38    8.78
 -11   3  -3   72.70    9.26
  11  -3  -3   63.35    7.78
  11   3   3   63.84    8.63
 -11  -3   3   93.32   10.67
 -11   3   3   69.73    7.59
  11  -3   3   58.37   11.49
 -11  -3  -3   70.15    9.61
  11   3  -3   61.19    8.73
 -11  -3  -3   65.79    7.44
  11   3  -3   72.63    7.77
  11   5   3   60.70    9.35
  11  -5  -3   52.67    8.23
 -11  -5   3   54.00    8.95
 -11   5  -3   53.59    8.33
 -11  -5  -3   54.29    8.99
  11   5  -3   53.37    8.96
 -11  -5  -3   54.89    8.42
 -11   5   3   55.40    7.88
  11  -5   3   40.28   10.28
  11   7   3   53.79    9.78
 -11  -7   3   27.33    7.78
  11  -7  -3   34.72    7.38
 -11   7  -3   42.58    8.82
 -11  -7  -3   45.88    8.63
  11   7  -3   35.58    7.98
 -11  -7  -3   47.20    9.04
 -11   7   3   45.89    8.44
  11  -7   3   36.75   10.86
 -12   0   3    1.46    1.82
 -12   0  -3   -0.66    1.77
 -12   0  -3   -2.14    1.56
  12   0   3    0.32    2.75
 -12   0   3    2.29    2.27
  12   0  -3    1.73    2.24
  12  -2  -3    1.20    2.24
 -12  -2   3    1.92    2.28
  12   2   3    1.63    2.34
 -12   2  -3    4.35    3.04
 -12   2  -3    3.61    2.64
 -12  -2  -3    6.14    3.44
 -12   2   3    1.29    2.11
 -12  -2  -3   -0.39    1.51
  12   2  -3    2.46    2.99
  12  -2   3    1.43    3.64
  12  -4  -3    6.89    3.45
 -12   4  -3   13.48    4.46
  12   4   3   10.19    4.38
 -12  -4   3   11.45    4.44
 -12   4   3   10.74    3.94
 -12  -4  -3   13.48    5.35
 -12  -4  -3    3.44    2.89
  12  -4   3   12.20    6.42
  12   4  -3    6.29    4.20
  12   6   3   18.72    6.35
  12  -6  -3   33.78    7.17
 -12   6  -3   21.52    6.02
 -12  -6   3   18.10    6.73
 -12   6   3   19.08    5.35
 -12  -6  -3   24.33    6.46
  12   6  -3   24.63    7.00
 -12  -6  -3   27.58    7.02
  12  -6   3   48.38   12.74
 -13   1  -3  197.50   12.58
  13  -1  -3  161.57   10.39
 -13  -1   3  171.35   11.43
 -13   1  -3  170.79   11.07
  13   1  -3  197.01   12.68
 -13   1   3  191.14   11.83
 -13  -1  -3  174.24   12.42
  13  -1   3  184.65   15.37
 -13  -1  -3  178.57   11.85
  13  -3  -3  223.69   13.28
 -13  -3   3  248.63   14.94
 -13   3  -3  229.78   13.93
  13   3   3  224.57   14.38
 -13   3   3  226.71   12.46
 -13  -3  -3  240.43   15.60
  13  -3   3  234.44   19.07
  13   3  -3  206.13   14.02
 -13   5  -3  198.98   14.00
  13   5   3  199.88   14.92
  13  -5  -3  185.79   13.40
 -13  -5   3  189.31   17.30
  13   5  -3  185.19   17.23
 -13   5   3  181.64   12.33
  13  -5   3  173.60   22.86
 -13  -5  -3  183.84   13.23
 -13  -5  -3  183.33   16.85
  14   0  -3    0.48    2.62
  14   0   3    0.27    3.27
 -14   0   3   -2.35    1.89
 -14   0  -3    6.93    3.70
 -14   0  -3   -2.11    1.91
  14  -2  -3    0.22    2.44
 -14  -2   3    5.22    3.53
  14   2   3    2.04    2.92
 -14   2  -3    1.19    2.55
  14   2  -3    0.02    2.83
 -14  -2  -3   -4.35    1.75
  14  -2   3    1.20    3.93
 -14   4  -3    0.84    3.01
  14   4   3    0.29    3.07
  14  -4  -3    8.50    4.17
 -14  -4   3    7.09    4.48
  14   4  -3    9.75    4.62
  14  -4   3    2.93    5.01
 -14  -4  -3   -0.05    2.81
 -15   1  -3   -0.98    2.77
 -15   1  -3    2.23    3.42
  15   1   3    1.99    2.91
 -15  -1   3   -0.34    2.56
 -15  -1  -3    0.30    2.61
  15   1  -3    1.31    3.04
 -15   1   3    0.47    2.46
  15  -1   3    1.84    4.22
 -15  -3   3    4.83    3.71
 -15   3  -3    6.45    3.82
  15   3   3    4.12    3.16
  15  -3  -3    0.29    2.99
  15   3  -3    4.08    4.54
 -15  -3  -3    4.25    3.94
  15  -3   3    1.28    4.23
 -16   0   3   -0.87    2.95
 -16   0  -3    3.65    3.20
 -16   0  -3    0.72    2.95
 -16   2  -3    3.67    3.78
 -16  -2   3   -0.23    2.74
  16   2   3    1.55    3.04
  16  -2  -3    1.90    3.59
 -16  -2  -3    2.59    3.55
  16   2  -3    0.75    3.39
  16  -2   3    2.62    4.94
   0   0  -4  291.90    7.49
   0   0   4  298.43    6.19
   0   0  -4  300.29    5.89
   0   0   4  284.90   10.26
   0   2   4   63.00    6.40
   0  -2   4   60.34    3.99
   0   2   4   59.00    4.43
   0  -2   4   52.72    6.24
   0   2  -4   53.80    3.38
   0  -2  -4   56.32    3.98
   0  -2  -4   55.29    3.44
   0   2  -4   54.12    3.83
   0  -4   4  184.10   10.22
   0   4  -4  180.18    7.59
   0   4   4  168.17    9.17
   0  -4   4  178.05    9.12
   0  -4  -4  167.02    6.52
   0   4   4  177.40    8.61
   0   4  -4  178.99    8.16
   0  -4  -4  164.89    8.53
   0   6  -4    7.57    3.27
   0   6   4   10.58    3.92
   0  -6   4    9.48    4.06
   0  -6  -4   15.62    4.33
   0  -6   4    8.60    3.32
   0  -6  -4    5.82    2.17
   0   6  -4    7.89    2.59
   0  -8   4  112.08   11.96
   0   8  -4  107.84   11.76
   0   8   4  104.97   12.75
   0  -8  -4   85.33   10.49
   1   1   4   38.18    5.02
  -1  -1   4   30.32    4.64
   1  -1  -4   33.10    3.21
   1   1   4   25.72    3.07
   1  -1  -4   29.11    3.09
  -1   1  -4   25.57    2.88
  -1  -1   4   31.20    3.11
  -1   1  -4   25.60    2.71
  -1   1   4   27.88    2.86
  -1  -1  -4   29.02    2.73
   1  -1   4   28.74    1.94
  -1   1   4   33.79    5.06
   1   1  -4   28.87    3.38
   1  -1   4   23.88    4.25
   1   1  -4   31.40    1.81
  -1  -1  -4   27.66    3.11
  -1  -3   4    0.40    1.31
   1  -3  -4    0.82    1.29
  -1   3  -4    0.59    1.01
   1  -3  -4    0.26    0.71
  -1  -3   4   -0.26    1.53
   1   3   4    0.37    1.22
   1   3   4   -0.75    1.29
  -1   3  -4   -0.13    0.99
  -1  -3  -4    0.65    1.23
  -1   3   4    1.48    1.55
  -1  -3  -4    0.84    1.02
  -1   3   4   -0.19    1.27
   1  -3   4   -1.47    1.62
   1  -3   4    0.22    1.13
   1   3  -4   -0.52    0.86
   1   3  -4   -0.17    1.08
  -1  -5   4   40.98    6.42
   1  -5  -4   28.78    5.14
  -1   5  -4   35.09    5.37
  -1   5  -4   37.73    4.38
   1   5   4   32.72    5.56
   1   5   4   47.43    5.83
   1  -5  -4   37.57    3.69
  -1  -5   4   34.18    5.76
   1   5  -4   28.92    4.54
   1  -5   4   33.50    5.26
  -1   5   4   34.66    5.38
   1   5  -4   23.82    3.93
   1  -5   4   54.22    8.42
  -1  -5  -4   35.69    5.63
  -1  -5  -4   29.00    3.93
  -1   5   4   40.16    6.01
   1   7   4   -2.74    1.80
  -1   7  -4   -1.64    1.68
   1  -7  -4   -0.88    1.72
  -1  -7   4    0.46    2.74
  -1   7   4   -0.63    2.36
   1  -7   4   -0.69    2.54
  -1  -7  -4   -1.64    1.67
   1  -7   4    0.72    2.44
   1   7  -4   -2.49    1.66
   1   7  -4   -0.37    1.63
   1   9   4    5.20    3.99
  -1   9  -4    5.82    4.37
   1  -9  -4   21.32    6.31
  -1  -9   4   18.53    5.98
   1  -9   4   20.48    6.25
   1   9  -4   10.27    5.13
  -1   9   4   11.46    5.40
  -1  -9  -4   18.13    5.99
  -2   0  -4  767.62   12.46
   2   0  -4  773.89   12.55
  -2   0  -4  760.43   13.04
  -2   0   4  801.09    6.52
  -2   0   4  760.51   17.22
   2   0   4  777.09   17.19
  -2   0  -4  797.63    6.78
  -2   0   4  791.96   12.88
   2   2   4   69.89    5.13
  -2  -2   4   81.15    5.99
  -2   2  -4   78.14    4.69
  -2   2  -4   77.45    4.33
   2  -2  -4   77.09    4.82
   2   2   4   71.02    4.77
  -2  -2   4   70.68    4.87
   2  -2  -4   71.48    3.40
  -2   2   4   75.25    5.92
  -2  -2  -4   77.54    4.27
   2  -2   4   66.24    8.00
   2   2  -4   75.49    4.80
  -2   2   4   77.20    4.26
   2   2  -4   74.96    3.36
   2  -2   4   73.02    3.91
  -2  -2  -4   77.33    4.59
   2   4   4  251.28    8.66
   2   4   4  245.55   11.57
   2  -4  -4  248.79   10.57
  -2  -4   4  245.37   11.30
  -2   4  -4  254.62   10.28
  -2   4  -4  255.48    8.50
   2  -4  -4  248.40    6.46
  -2  -4   4  255.40   11.08
   2   4  -4  263.73   10.41
  -2  -4  -4  253.13    9.26
  -2   4   4  264.44   10.66
   2  -4   4  255.37   13.45
   2  -4   4  264.40   10.26
  -2  -4  -4  247.26   10.29
  -2   4   4  245.31   11.39
   2   4  -4  239.95    9.26
  -2   6  -4   25.76    5.51
  -2  -6   4   12.16    3.92
  -2   6  -4   14.52    2.92
   2  -6  -4   17.73    4.41
   2   6   4   16.65    4.61
  -2  -6   4   18.29    4.62
   2   6  -4   12.89    3.75
  -2   6   4   12.64    4.11
  -2  -6  -4   14.21    4.30
   2   6  -4   16.54    4.12
   2  -6   4   14.31    5.45
   2  -6   4   13.38    3.78
  -2  -6  -4   14.49    3.39
  -2   8  -4  167.32   12.59
   2  -8  -4  175.99   12.91
   2   8   4  200.49   18.11
  -2  -8   4  177.34   15.57
   2  -8   4  161.70   13.54
   2  -8   4  160.43   14.59
  -2   8   4  182.45   13.75
   2   8  -4  162.15   10.86
   2   8  -4  173.83   12.75
  -2  -8  -4  145.62   14.29
  -3   1  -4    0.77    1.07
  -3  -1   4    1.56    1.34
  -3  -1   4   -2.05    1.27
   3  -1  -4    0.49    0.94
   3   1   4    1.52    1.18
  -3   1  -4    0.41    1.20
   3   1   4    2.36    1.87
   3  -1   4   -0.34    1.74
   3   1  -4    0.94    0.43
  -3   1   4   -1.58    1.28
  -3  -1  -4   -0.15    0.82
  -3   1   4    0.98    1.11
  -3  -1  -4    1.79    1.27
   3   1  -4   -0.28    1.15
  -3   1   4    0.75    0.69
   3  -3  -4  112.82    6.69
  -3   3  -4  109.69    6.50
  -3  -3   4  131.04    7.40
  -3   3  -4  116.92    5.49
   3   3   4  125.92    5.74
   3  -3  -4  122.78    4.02
  -3  -3   4  116.76    7.29
   3   3   4  127.35    7.76
  -3  -3  -4  120.32    6.43
   3   3  -4  127.14    7.17
   3   3  -4  127.77    5.61
   3  -3   4  124.62    5.70
  -3  -3  -4  116.49    6.43
   3  -3   4  118.31    9.28
  -3   3   4  107.01    7.91
  -3   3   4  108.96    5.92
   3  -5  -4    1.24    1.55
  -3  -5   4   -0.01    1.55
  -3   5  -4   -0.29    1.62
  -3  -5   4   -1.24    1.49
  -3   5  -4    0.53    1.16
   3   5   4   -0.72    1.66
   3   5  -4   -0.20    1.37
  -3  -5  -4   -0.20    1.24
   3  -5   4    2.55    2.64
  -3  -5  -4    2.22    1.97
  -3   5   4   -0.97    1.46
   3   5  -4    5.58    2.54
  -3   5   4    0.20    1.57
   3  -5   4   -0.26    1.27
   3   7   4   28.87    7.07
  -3   7  -4   20.58    5.40
  -3  -7   4   43.82    7.77
   3  -7  -4   19.73    5.29
   3  -7   4   35.31    6.36
  -3   7   4   34.19    7.04
   3  -7   4   31.80    7.46
  -3  -7  -4   22.66    4.48
   3   7  -4   29.82    5.68
  -3  -7  -4   23.34    5.98
   3   7  -4   26.26    5.73
   3   9   4   13.72    5.75
   3  -9  -4   18.89    6.15
  -3  -9   4   13.94    5.32
  -3   9  -4   14.12    5.40
   3  -9   4   10.68    4.99
  -3   9   4    5.31    4.41
  -3  -9  -4   10.91    5.25
   3   9  -4    7.98    4.75
  -4   0  -4  257.76    8.84
   4   0   4  247.41   11.19
  -4   0   4  254.34    8.74
   4   0  -4  252.41    8.00
  -4   0  -4  256.50    3.08
  -4   0   4  246.88   10.80
  -4   0   4  257.99    3.82
  -4   0  -4  273.10    8.87
   4   2   4  603.59   13.43
   4  -2  -4  592.34   14.19
  -4  -2   4  591.88   14.97
  -4   2  -4  614.49   12.25
   4  -2  -4  602.24    9.82
  -4   2  -4  600.17   14.31
  -4  -2   4  586.08   15.44
   4   2   4  577.16   14.89
   4  -2   4  599.01   20.21
  -4   2   4  585.96   17.99
   4   2  -4  590.22   14.62
  -4   2   4  617.54   11.72
   4  -2   4  593.64    8.93
  -4  -2  -4  587.33   12.71
  -4  -2  -4  605.43   14.23
   4   2  -4  589.29    9.96
   4  -4  -4    8.33    2.72
  -4  -4   4   19.07    3.88
  -4  -4   4   15.30    3.98
   4  -4  -4   16.88    1.61
  -4   4  -4   16.74    2.65
   4   4   4   21.17    2.83
  -4   4  -4   11.22    3.18
   4   4   4   15.45    3.93
   4  -4   4   18.14    5.37
  -4   4   4   19.69    4.90
  -4   4   4    7.46    2.43
   4  -4   4   18.52    3.24
  -4  -4  -4   22.75    4.20
   4   4  -4   17.77    3.38
  -4  -4  -4   15.71    3.37
   4   4  -4   12.88    3.46
   4   6   4  246.69   14.34
   4  -6  -4  247.54   13.08
  -4  -6   4  256.74   14.13
  -4   6  -4  257.24   13.28
  -4  -6  -4  241.97   12.12
   4   6  -4  248.45   12.84
  -4   6   4  244.73   12.73
  -4  -6  -4  223.75   13.10
   4  -6   4  244.62   11.86
   4  -6   4  255.68   16.52
   4   6  -4  251.11   12.46
   4   8   4   46.80    8.72
  -4  -8   4   58.67    9.21
   4  -8  -4   42.31    8.04
  -4   8  -4   48.18    8.44
   4  -8   4   59.93    9.24
   4   8  -4   52.65    8.45
  -4   8   4   61.35    9.64
   4   8  -4   51.83    8.08
  -4  -8  -4   67.42   10.29
   4  -8   4   37.85    9.29
  -5  -1   4  155.15    7.68
  -5   1  -4  151.34    7.55
   5  -1  -4  147.92    5.80
  -5   1  -4  150.61    6.78
   5   1   4  151.86    8.30
  -5  -1   4  138.88    8.21
  -5   1   4  139.04    4.80
  -5  -1  -4  151.10    5.16
   5   1  -4  151.24    4.24
   5   1  -4  147.04    7.23
   5  -1   4  146.22    2.89
  -5  -1  -4  152.37    7.49
  -5   1   4  160.45    9.67
   5  -1   4  132.62    9.71
  -5   1   4  144.46    7.20
  -5  -1  -4  162.92    7.53
  -5   3  -4   16.60    3.55
   5   3   4   11.55    2.28
   5  -3  -4   14.25    3.36
  -5  -3   4   18.51    3.85
   5   3   4    8.41    2.76
  -5   3  -4   12.66    2.44
  -5  -3   4   11.98    3.28
   5  -3  -4   14.64    1.78
   5   3  -4   14.29    3.45
  -5  -3  -4   10.82    3.14
  -5   3   4   10.07    2.46
  -5  -3  -4   18.78    3.63
   5  -3   4   10.89    4.23
   5  -3   4   13.42    2.27
  -5   3   4   21.78    5.24
   5   3  -4    9.42    2.23
  -5  -5   4   62.41    7.82
   5  -5  -4   86.13    9.59
  -5   5  -4   77.69    4.66
   5   5   4   67.21    8.55
  -5   5  -4   73.38    8.15
  -5  -5  -4   88.15    8.64
  -5  -5  -4   56.77    7.45
   5  -5   4   74.33    6.87
   5   5  -4   75.73    8.56
  -5   5   4   68.66    7.83
   5   5  -4   62.76    6.97
   5  -5   4   73.78   11.00
  -5   7  -4   14.81    4.77
   5   7   4   16.68    5.30
  -5  -7   4   20.70    5.31
   5  -7  -4   23.48    5.77
   5   7  -4   11.92    4.23
   5  -7   4    7.24    5.14
  -5  -7  -4   25.05    5.13
   5  -7   4    6.78    3.30
  -5   7   4   25.03    5.82
   5   7  -4   22.07    5.33
  -5  -7  -4   29.01    6.76
  -5  -9   4   54.65    9.73
  -5   9  -4   47.46    8.85
   5  -9  -4   56.03    9.78
   5   9   4   63.85   10.87
  -5   9   4   67.14   10.79
   5   9  -4   55.90    9.57
   5  -9   4   41.20   10.36
   5  -9   4   45.35    8.77
  -5  -9  -4   58.26   10.40
   5   9  -4   80.93   10.63
   6   0   4    2.46    2.36
  -6   0  -4    0.96    1.52
  -6   0  -4    0.26    0.62
  -6   0   4    1.05    1.76
  -6   0  -4    1.90    1.53
  -6   0   4   -1.00    1.07
  -6   0   4    0.70    0.79
   6   0  -4   -0.96    0.89
   6   2   4   18.72    3.78
  -6   2  -4    8.43    2.50
  -6  -2   4   12.94    3.40
   6   2   4   11.30    2.94
  -6   2  -4   20.76    3.31
   6  -2  -4   16.12    3.56
  -6  -2   4   12.36    3.09
   6  -2  -4   19.52    2.50
   6   2  -4   22.72    4.14
   6   2  -4   14.71    2.38
  -6  -2  -4   17.57    2.98
  -6  -2  -4   18.55    3.67
   6  -2   4   19.56    2.18
  -6   2   4   18.62    2.92
   6  -2   4   21.37    5.93
  -6   2   4   27.18    6.33
  -6  -4   4   13.06    3.06
   6   4   4    8.20    3.51
  -6   4  -4   11.61    3.48
   6  -4  -4   15.64    3.75
  -6   4  -4    8.28    2.02
  -6  -4   4   11.00    3.59
   6   4  -4    4.67    2.66
   6   4  -4    9.89    2.72
   6  -4   4   10.85    2.52
  -6   4   4    5.77    3.50
  -6   4   4   13.20    3.12
   6  -4   4    8.00    4.32
  -6  -4  -4   10.24    3.30
  -6  -4  -4   10.63    3.23
  -6  -6   4   25.00    5.79
  -6   6  -4   23.10    5.60
   6   6   4   29.06    6.73
   6  -6  -4   25.23    5.66
   6   6  -4   20.84    4.81
  -6   6   4   25.16    5.34
   6  -6   4   38.37    9.35
  -6  -6  -4   35.01    6.64
  -6  -6  -4   19.38    5.28
   6   6  -4   12.27    4.00
   6  -6   4   31.71    5.42
  -6  -8   4    2.05    3.27
   6   8   4    7.43    4.15
  -6   8  -4    8.07    3.90
   6  -8  -4    2.02    3.35
   6  -8   4    3.11    5.01
  -6  -8  -4    9.51    4.99
   6   8  -4    5.21    3.73
   6  -8   4    5.87    3.29
  -6   8   4    9.17    4.15
   6   8  -4   10.39    4.50
  -6  -8  -4    5.57    3.66
  -7   1  -4   37.18    5.00
   7   1   4   39.49    6.24
  -7  -1   4   34.44    5.13
   7  -1  -4   39.27    4.29
  -7  -1   4   42.28    6.63
  -7   1  -4   45.46    5.35
   7  -1   4   41.55    7.78
  -7   1   4   47.09    7.85
  -7  -1  -4   45.98    6.05
   7   1  -4   41.52    3.72
   7   1  -4   50.64    5.87
   7  -1   4   39.05    2.39
  -7  -1  -4   41.14    5.72
  -7   1   4   48.18    6.25
  -7  -1  -4   40.28    3.69
  -7   1   4   44.54    4.01
   7   3   4   63.34    7.22
   7  -3  -4   59.49    3.31
   7  -3  -4   58.01    6.63
  -7  -3   4   69.11    7.80
  -7   3  -4   55.51    5.13
  -7  -3   4   71.80    5.81
   7   3   4   61.22    4.54
  -7   3  -4   64.94    7.30
   7  -3   4   68.55    4.24
   7  -3   4   65.28    9.89
   7   3  -4   65.58    5.80
  -7  -3  -4   67.71    6.62
  -7  -3  -4   62.46    7.13
   7   3  -4   65.99    7.90
  -7   3   4   66.20    6.38
  -7   3   4   62.83    9.72
   7   5   4    4.51    3.24
  -7  -5   4    4.17    2.79
   7  -5  -4    6.87    3.37
  -7   5  -4   10.55    3.69
   7   5  -4    7.98    3.16
   7  -5   4    5.03    2.26
   7  -5   4    6.87    4.46
  -7   5   4   11.48    3.63
   7   5  -4    8.16    3.72
  -7  -5  -4    5.26    2.88
  -7  -5  -4    9.41    3.63
   7  -7  -4   41.67    7.50
   7   7   4   49.83    8.76
  -7   7  -4   31.41    6.97
  -7  -7   4   38.52    7.70
   7   7  -4   49.53    8.24
   7   7  -4   46.34    7.45
  -7  -7  -4   43.67    8.03
  -7   7   4   56.26    8.27
  -7  -7  -4   39.72    7.21
   7  -7   4   49.72   11.15
   8   0   4  101.46   11.64
  -8   0  -4  101.61    4.39
  -8   0  -4  103.66    7.37
  -8   0   4   98.51   10.73
   8   0  -4  106.83    6.76
  -8   0   4  124.16    7.76
  -8   0  -4  114.00    7.36
  -8   0   4   92.17    4.77
  -8  -2   4  115.48    8.10
   8  -2  -4   93.20    5.15
   8   2   4   94.72    7.11
  -8   2  -4  104.79    7.66
  -8  -2   4   86.63    7.06
   8  -2  -4   98.62    7.20
  -8   2  -4  102.88    6.34
   8   2   4  104.97    9.66
   8   2  -4  102.68    5.59
  -8  -2  -4   85.61    8.26
   8  -2   4  103.88   12.97
   8  -2   4  100.87    4.66
   8   2  -4  113.54    9.91
  -8   2   4   95.79    5.77
  -8   2   4  103.75   12.34
  -8  -2  -4  107.71    6.27
   8  -4  -4   52.07    6.94
  -8   4  -4   54.20    7.56
   8   4   4   45.30    7.07
  -8  -4   4   45.83    7.38
  -8  -4  -4   59.22    7.37
   8   4  -4   59.90    6.71
   8  -4   4   77.03    9.47
   8  -4   4   64.48   11.66
  -8  -4  -4   69.14    7.80
  -8   4   4   58.78    6.72
   8   4  -4   52.13    7.33
  -8   6  -4   28.04    6.24
   8  -6  -4   30.82    6.31
  -8  -6   4   32.37    7.06
   8   6   4   26.22    6.36
   8   6  -4   32.29    6.86
  -8  -6  -4   26.80    6.40
  -8   6   4   47.13    7.35
   8   6  -4   24.04    5.12
   8  -6   4   40.09   10.19
  -8  -6  -4   40.06    6.82
  -8  -8   4   32.04    7.42
   8   8   4   20.44    6.54
  -8   8  -4   21.40    6.33
   8  -8  -4   19.91    6.12
  -8   8   4   35.08    7.38
  -8  -8  -4   21.31    6.27
   8  -8   4   18.53    8.49
  -8  -8  -4   26.83    6.71
   8   8  -4   19.62    6.13
  -9  -1   4   85.92    8.30
   9   1   4  102.64   11.09
   9  -1  -4   95.69    6.32
  -9  -1   4   97.32    8.38
  -9   1  -4  107.15    7.99
  -9   1  -4  102.90    7.12
   9  -1   4   81.37   10.85
  -9   1   4   98.98    5.59
  -9  -1  -4  106.67    9.62
   9   1  -4   89.97    8.48
  -9  -1  -4  116.22    9.97
   9   1  -4   98.62    5.47
  -9  -1  -4   95.46    5.29
  -9   1   4   91.23    8.67
  -9   1   4  101.82   11.93
   9  -3  -4    9.23    3.39
  -9   3  -4    5.81    2.34
   9   3   4    4.80    3.08
  -9   3  -4   10.78    3.67
  -9  -3   4   14.17    3.74
  -9  -3   4   11.07    4.00
  -9  -3  -4    9.32    2.98
  -9   3   4    7.80    2.73
   9   3  -4   16.93    4.85
   9   3  -4   10.35    2.75
  -9  -3  -4    7.88    3.16
   9  -3   4    1.36    3.39
  -9  -5   4   95.98   11.54
   9  -5  -4   98.49   10.76
   9   5   4   86.95   10.94
  -9   5  -4  105.40   11.78
  -9   5   4   83.75    9.18
   9  -5   4   76.18   12.64
  -9  -5  -4   77.84    8.92
  -9  -5  -4   76.42    9.44
   9   5  -4   82.63   10.70
  -9   7  -4    3.08    3.36
   9   7   4    3.73    3.98
   9  -7  -4    2.07    3.09
  -9  -7   4    7.05    4.29
  -9  -7  -4   -0.52    2.86
  -9  -7  -4    6.49    3.94
   9   7  -4    3.88    3.63
  -9   7   4    3.35    3.54
   9  -7   4    2.82    5.21
 -10   0  -4  216.74   11.05
 -10   0   4  195.51   10.88
 -10   0   4  198.37    8.11
  10   0   4  201.63   13.41
 -10   0   4  194.09   12.75
  10   0  -4  189.78    9.97
 -10   0  -4  176.71   10.70
 -10   2  -4  364.84   15.33
 -10   2  -4  348.26   12.85
  10   2   4  337.37   15.30
  10  -2  -4  347.06   11.11
  10  -2  -4  355.80   14.62
 -10  -2   4  340.84   14.94
  10   2   4  421.97   20.12
 -10  -2   4  360.65   15.28
 -10  -2  -4  353.93   15.32
  10  -2   4  320.77   19.50
  10   2  -4  317.65   15.01
 -10   2   4  367.16   12.20
 -10  -2  -4  364.37   11.92
 -10   4  -4   27.99    6.00
  10  -4  -4   45.79    6.77
  10   4   4   45.45    7.79
 -10  -4   4   38.14    7.52
 -10   4   4   30.46    5.49
  10   4  -4   35.59    6.84
 -10  -4  -4   27.72    5.90
  10  -4   4   19.66    7.91
 -10  -4  -4   39.16    6.13
  10  -6  -4  171.36   12.58
  10   6   4  165.07   16.06
 -10  -6   4  191.98   14.23
 -10   6  -4  135.40   13.19
 -10  -6  -4  155.13   13.83
 -10   6   4  178.84   12.19
  10   6  -4  154.82   14.89
 -10  -6  -4  163.11   15.65
  10  -6   4  184.88   22.98
 -11  -1   4   -1.19    1.53
 -11  -1   4   -0.08    2.36
  11  -1  -4    3.21    2.15
 -11   1  -4    1.21    1.84
  11   1   4    2.25    3.10
 -11   1  -4   -0.38    1.82
  11   1  -4   -2.69    1.75
  11  -1   4   -2.81    2.37
 -11  -1  -4    2.88    2.40
 -11   1   4    2.32    1.51
 -11  -1  -4    3.28    2.63
 -11   1   4   -1.02    2.00
  11  -3  -4   49.28    7.23
 -11   3  -4   50.25    7.70
 -11  -3   4   65.68    8.67
  11   3   4   59.29    8.64
 -11  -3  -4   43.23    6.11
  11   3  -4   41.16    7.52
  11  -3   4   52.77   11.27
 -11  -3  -4   46.61    8.11
 -11   3   4   81.13    8.14
  11   5   4    3.04    2.96
 -11  -5   4    4.74    3.65
  11  -5  -4    9.08    3.90
 -11   5  -4    8.25    3.76
  11  -5   4    0.34    4.30
  11   5  -4    2.83    3.83
 -11   5   4    2.99    3.13
 -11  -5  -4   -0.88    2.59
 -11  -5  -4   12.07    4.66
  11   7   4    7.02    4.60
  11  -7  -4    8.59    4.41
 -11  -7   4   16.05    5.91
 -11   7  -4   11.04    5.09
  11  -7   4    3.72    5.84
 -11  -7  -4   17.26    5.69
 -11  -7  -4    4.71    3.82
  11   7  -4   11.18    4.99
 -11   7   4   16.38    5.76
 -12   0   4   22.58    4.83
 -12   0  -4   25.00    5.67
  12   0  -4   23.67    4.86
  12   0   4   26.73    7.06
 -12   0  -4   20.73    4.66
 -12   2  -4   28.10    5.15
 -12   2  -4   27.40    5.71
  12  -2  -4   27.27    5.34
 -12  -2   4   30.74    6.19
  12   2   4   17.87    5.01
 -12  -2  -4   22.93    5.48
  12  -2   4   26.31    8.24
  12   2  -4   27.03    5.91
  12  -4  -4    2.06    2.74
  12   4   4   -1.57    2.45
 -12   4  -4    3.50    3.21
 -12  -4   4   -1.00    2.53
 -12  -4  -4   -1.63    2.23
 -12   4   4    1.30    2.33
  12  -4   4   -1.63    3.24
  12   4  -4    0.37    2.62
 -12  -6   4   37.97    8.41
  12   6   4   28.71    7.68
 -12   6  -4   29.85    6.83
  12  -6  -4   24.79    6.68
 -12  -6  -4   23.96    7.06
  12   6  -4   27.15    6.85
 -12  -6  -4   38.53    7.80
 -12   6   4   35.39    7.19
  12  -6   4   34.38   10.65
 -13  -1   4    4.62    3.20
 -13   1  -4   17.02    4.97
 -13   1  -4   12.33    4.01
  13  -1   4    1.37    3.65
 -13   1   4    7.37    3.45
 -13  -1  -4    9.19    3.96
 -13  -1  -4    9.18    3.80
  13   1  -4   12.00    4.42
  13   3   4   -0.91    2.31
 -13  -3   4   -1.26    2.65
 -13   3  -4    4.22    3.42
  13  -3  -4   -1.46    1.97
 -13  -3  -4   -0.50    2.02
  13   3  -4   -0.51    2.51
  13  -3   4   -0.62    3.40
 -13  -5   4    9.37    4.86
 -13   5  -4   19.06    5.84
  13   5   4   14.45    5.89
  13  -5  -4    5.93    4.19
 -13  -5  -4   20.80    6.15
  13  -5   4    5.10    5.57
  13   5  -4    9.34    5.15
 -14   0   4   -0.77    2.52
  14   0   4    1.79    3.84
 -14   0  -4    4.94    3.28
  14   0  -4    9.13    3.79
 -14   0  -4    0.91    2.55
 -14   2  -4  113.65   12.44
  14  -2  -4  100.19   11.05
  14   2   4   93.90   11.09
 -14  -2   4  109.67   11.96
  14  -2   4   89.87   14.95
  14   2  -4  105.49   12.11
 -14  -2  -4   93.17   11.87
 -14   4  -4    0.05    2.68
  14  -4  -4   -1.21    2.51
 -14  -4   4    2.77    3.66
  14   4   4   -1.65    2.72
 -14  -4  -4    1.16    3.52
  14   4  -4    0.27    2.71
  14  -4   4    5.02    5.57
 -15   1  -4    0.19    2.48
 -15   1  -4   -0.93    2.60
 -15  -1   4   -0.30    2.58
  15   1   4    0.18    2.68
  15  -1   4   -1.53    3.27
  15   1  -4    1.88    3.08
 -15   1   4    1.68    2.79
 -15  -1  -4    2.33    3.31
 -15  -3   4    2.82    3.26
  15  -3  -4    2.85    3.60
 -15   3  -4    0.11    3.04
  15   3   4   -0.61    2.32
  15  -3   4    3.39    4.86
 -15  -3  -4    3.60    4.50
  15   3  -4    2.63    3.68
 -16   0  -4  250.29   16.24
 -16   0   4  236.75   15.48
 -16   0  -4  246.38   16.20
   0   0   5    0.28    1.58
   0   0   5    0.02    0.76
   0   0  -5   -0.49    0.58
   0   0  -5   -0.22    1.07
   0   2   5   14.59    3.42
   0   2  -5   13.98    2.63
   0  -2  -5   18.43    3.04
   0   2   5   16.21    2.97
   0   2  -5   16.89    2.45
   0  -2   5   13.49    4.05
   0  -2   5   16.13    2.72
   0  -2  -5   15.87    2.57
   0  -4  -5   -1.22    1.23
   0  -4  -5   -0.31    0.80
   0   4   5    0.89    1.36
   0  -4   5   -0.73    1.85
   0   4   5    0.92    1.70
   0  -4   5    0.70    1.53
   0   4  -5   -0.78    0.92
   0   4  -5   -0.94    1.10
   0  -6   5    8.88    4.16
   0  -6  -5    8.46    3.41
   0   6   5    7.61    3.56
   0   6  -5    5.76    2.58
   0  -6   5   10.24    3.43
   0   6  -5    6.64    2.88
   0   6   5    5.57    2.89
   0   8  -5   -0.97    2.60
   0  -8  -5   -3.03    1.97
   0  -8   5    0.26    3.02
   0   8   5   -0.10    2.66
   1   1   5    6.59    2.65
  -1  -1   5    3.05    1.39
  -1  -1   5    6.14    2.89
   1  -1  -5    4.78    1.64
   1   1   5    6.38    1.95
  -1   1  -5    4.61    1.53
   1  -1  -5    5.42    1.76
  -1   1  -5    3.84    1.54
  -1  -1  -5    8.12    2.30
   1   1  -5    6.06    2.01
  -1   1   5    5.65    1.67
  -1  -1  -5    2.92    1.25
   1   1  -5    5.11    1.15
   1  -1   5    1.31    2.30
  -1   1   5    7.76    3.31
   1  -1   5    6.14    1.31
   1   3   5   42.79    5.61
   1   3   5   33.64    4.86
   1  -3  -5   34.95    4.54
   1  -3  -5   37.44    3.70
  -1  -3   5   34.61    4.41
  -1   3  -5   34.76    4.21
  -1   3  -5   28.91    3.74
  -1  -3   5   30.44    5.70
  -1   3   5   39.30    5.10
   1  -3   5   32.76    6.18
  -1   3   5   43.63    6.28
  -1  -3  -5   35.83    3.99
  -1  -3  -5   35.51    4.24
   1  -3   5   40.53    4.63
   1   3  -5   40.15    4.07
   1   3  -5   27.34    4.04
  -1  -5   5   22.28    4.67
   1  -5  -5   29.71    3.56
   1   5   5   33.87    5.13
  -1   5  -5   32.13    5.31
  -1   5  -5   33.74    4.68
  -1  -5   5   41.74    7.07
   1  -5  -5   30.95    5.50
   1   5   5   27.55    5.59
   1  -5   5   29.80    4.96
   1   5  -5   37.68    5.26
  -1  -5  -5   24.50    4.85
   1  -5   5   26.77    6.29
   1   5  -5   26.75    4.66
  -1  -5  -5   31.84    4.35
  -1   5   5   27.01    5.28
  -1   5   5   31.15    5.40
   1  -7  -5    4.29    3.18
   1   7   5    3.54    3.30
  -1   7  -5    2.75    3.27
  -1  -7   5    7.92    3.36
  -1   7  -5    4.26    3.01
   1   7  -5    5.89    2.76
   1  -7   5    6.41    3.46
  -1   7   5    5.36    3.69
   1   7  -5    7.04    3.16
  -1  -7  -5    4.14    3.07
   1  -7   5    5.95    4.59
  -1  -9   5    1.93    3.44
   1   9   5    2.21    3.60
  -1   9  -5   -1.10    2.85
   1  -9  -5    1.81    3.59
   1   9  -5    4.76    3.89
   1  -9   5    2.11    3.65
  -1   9   5    0.76    3.16
  -1  -9  -5   -1.10    3.50
   2   0  -5   -0.95    0.92
   2   0   5   -1.28    1.52
  -2   0   5   -0.76    0.43
  -2   0  -5   -1.20    0.46
  -2   0   5   -0.27    1.03
  -2   0   5    0.13    1.91
  -2   0  -5   -1.49    1.00
  -2   0  -5   -1.31    0.91
   2  -2  -5    0.34    0.89
  -2  -2   5   -1.89    1.47
   2   2   5    1.83    1.86
  -2   2  -5    1.82    1.29
  -2   2  -5    0.53    1.08
   2   2   5   -0.12    1.31
   2  -2  -5    0.49    1.13
  -2  -2   5    0.76    1.32
  -2   2   5   -1.04    1.26
   2   2  -5    3.97    1.78
   2   2  -5    2.20    0.96
   2  -2   5    1.36    2.32
   2  -2   5    2.73    1.14
  -2   2   5    2.94    1.35
  -2  -2  -5    0.92    1.12
  -2  -2  -5    3.05    1.38
   2   4   5    2.93    2.29
  -2   4  -5    1.35    1.59
  -2   4  -5    3.27    1.76
  -2  -4   5    2.63    1.82
   2  -4  -5    3.77    2.16
   2   4   5    0.90    1.44
  -2  -4   5    1.20    2.15
   2  -4  -5    2.67    1.29
  -2  -4  -5   -0.08    1.18
   2  -4   5    4.32    3.07
   2  -4   5    3.52    1.89
  -2   4   5    2.99    2.05
  -2  -4  -5    2.74    1.75
   2   4  -5    3.17    1.73
  -2   4   5    1.67    2.10
   2   4  -5    3.59    1.80
  -2  -6   5    2.01    2.53
   2  -6  -5    0.06    2.02
  -2  -6   5    0.52    2.00
  -2   6  -5    3.54    1.99
  -2   6  -5   -1.35    1.55
   2   6   5    2.52    2.40
   2  -6   5    0.98    3.06
  -2  -6  -5    3.56    2.47
   2   6  -5    1.84    2.11
   2   6  -5    1.74    2.07
  -2   6   5    3.14    2.79
  -2  -6  -5    0.82    1.79
   2  -6   5    1.17    2.15
  -2  -8   5    1.94    3.08
   2   8   5    1.87    3.21
   2  -8  -5   -0.98    2.76
  -2   8  -5   -1.69    2.49
   2   8  -5    1.88    2.62
  -2  -8  -5   -1.33    2.78
   2   8  -5   -3.06    2.14
   2  -8   5    1.32    2.79
  -2   8   5    1.52    3.09
   2  -8   5    1.28    3.99
  -3   1  -5  218.47    8.10
   3   1   5  227.23    9.87
  -3  -1   5  238.70   10.69
   3   1   5  235.54    8.69
  -3   1  -5  221.40    7.90
  -3  -1   5  227.07    8.43
   3  -1  -5  225.33    7.17
  -3  -1  -5  219.81    8.31
   3   1  -5  235.41    8.58
   3  -1   5  226.79   11.70
  -3   1   5  228.00    5.26
  -3  -1  -5  224.83    5.56
  -3   1   5  224.36    8.31
  -3   1   5  240.61   11.27
  -3   3  -5  239.62    8.55
  -3   3  -5  260.20   10.08
   3  -3  -5  243.36   10.06
  -3  -3   5  217.95   10.53
   3   3   5  242.30   10.97
   3   3   5  233.96    9.06
  -3  -3   5  257.29   10.94
   3  -3  -5  240.47    6.66
  -3   3   5  234.37    8.54
   3  -3   5  244.02    8.22
   3   3  -5  238.97    7.46
  -3   3   5  245.04   12.15
  -3  -3  -5  234.09    9.19
   3  -3   5  229.34   13.26
  -3  -3  -5  229.69    8.88
   3   3  -5  233.83    9.90
  -3   5  -5  158.73    7.46
  -3   5  -5  140.58    9.12
   3   5   5  167.74   10.98
  -3  -5   5  154.02    9.35
  -3  -5   5  148.51   10.20
   3  -5  -5  167.92    9.93
   3   5  -5  167.41    9.80
   3  -5   5  151.13    8.89
  -3  -5  -5  150.90    8.47
  -3   5   5  172.45   11.27
   3  -5   5  176.29   12.97
   3   5  -5  153.88    8.67
  -3  -5  -5  162.06    9.63
  -3   5   5  163.82    9.55
   3   7   5   76.28   10.59
  -3  -7   5   72.30    9.52
   3  -7  -5   98.88   11.57
  -3   7  -5  107.08   11.20
  -3   7   5   81.49   10.11
   3   7  -5   79.07    8.99
  -3  -7  -5   62.34    9.00
   3  -7   5   89.19   12.59
   3  -7   5   86.98    9.84
  -3  -7  -5   88.30    9.10
   3   7  -5   70.64    8.68
   3  -9  -5   44.33    8.39
   3   9   5   54.20    9.90
  -3  -9   5   50.81    9.21
  -3   9  -5   63.42   10.41
  -3   9   5   52.37    9.69
   3   9  -5   58.12    9.41
  -3  -9  -5   52.03    9.89
   3  -9   5   56.96    9.64
   4   0   5   -0.82    1.85
  -4   0  -5    0.21    1.12
  -4   0   5   -0.12    0.98
  -4   0   5   -1.09    1.49
  -4   0  -5    0.50    1.18
   4   0  -5   -0.30    0.97
  -4   2  -5    1.30    1.47
  -4  -2   5    0.60    1.70
   4  -2  -5    0.69    1.29
  -4  -2   5   -0.69    1.11
   4   2   5    0.35    1.24
   4   2   5   -0.79    1.30
   4  -2  -5   -0.30    0.75
  -4   2  -5   -0.69    0.85
   4  -2   5    1.24    0.89
  -4   2   5    0.25    0.85
   4   2  -5    0.87    1.29
   4   2  -5   -0.28    0.56
  -4  -2  -5    0.45    1.43
   4  -2   5    2.32    2.70
  -4  -2  -5    0.45    1.12
  -4   2   5    0.93    1.84
  -4   4  -5    3.76    1.60
   4   4   5    3.24    1.64
  -4   4  -5    1.74    1.65
   4  -4  -5    3.23    1.04
   4   4   5    0.90    2.29
  -4  -4   5    1.55    1.85
   4  -4  -5    2.60    2.12
  -4  -4   5    2.96    2.21
  -4   4   5    2.88    2.42
   4  -4   5    1.82    1.75
  -4  -4  -5    2.56    1.77
   4   4  -5    1.13    1.81
   4  -4   5   -2.32    1.77
   4   4  -5    1.82    1.45
  -4  -4  -5    2.31    1.92
  -4   4   5    3.44    1.96
  -4  -6   5    7.55    3.88
   4  -6  -5    4.39    2.62
  -4   6  -5    6.82    3.79
   4   6   5    6.66    3.92
   4   6  -5    6.42    3.07
  -4  -6  -5    3.28    2.98
   4   6  -5    8.00    3.42
  -4   6   5    8.01    3.71
   4  -6   5    5.85    3.03
  -4  -6  -5    3.97    2.45
   4  -6   5    4.16    4.00
  -4  -8   5    2.09    3.58
   4  -8  -5    4.02    3.71
   4   8   5    1.44    3.17
  -4   8  -5    0.87    2.90
   4   8  -5    0.73    2.59
  -4   8   5   -0.81    2.57
   4  -8   5    6.05    5.31
  -4  -8  -5    4.33    3.93
   4  -8   5    6.06    3.63
   4   8  -5    7.98    4.11
  -5   1  -5    1.27    1.41
  -5   1  -5    1.27    1.39
  -5  -1   5    1.89    2.14
   5  -1  -5    0.90    1.02
   5   1   5    0.38    1.80
  -5  -1   5    1.63    1.44
   5  -1   5    3.68    2.88
  -5  -1  -5    0.31    1.56
  -5   1   5    0.93    0.83
  -5  -1  -5    1.13    0.91
  -5   1   5    6.56    3.17
  -5   1   5   -0.59    1.00
   5   1  -5   -0.16    1.31
  -5  -1  -5    0.54    1.23
   5   1  -5    1.30    0.49
  -5  -3   5    0.48    1.62
  -5   3  -5    3.66    2.26
   5  -3  -5   -0.20    0.83
   5   3   5    1.23    1.48
  -5   3  -5    2.12    1.46
   5   3   5    1.63    1.85
   5  -3  -5   -0.31    1.18
  -5  -3   5    1.24    1.77
  -5  -3  -5    2.22    1.66
   5  -3   5    5.04    3.49
   5   3  -5    1.64    1.88
  -5  -3  -5   -0.72    1.23
  -5   3   5    0.88    1.33
   5  -3   5    1.62    1.20
   5   3  -5    3.81    1.60
  -5   3   5    1.92    2.63
   5  -5  -5    1.62    2.23
  -5   5  -5    1.83    2.24
  -5  -5   5    2.84    2.58
  -5   5  -5    4.58    1.83
   5   5   5    0.68    2.48
   5   5  -5    1.23    2.54
  -5   5   5    0.99    1.85
   5   5  -5   -1.36    1.26
  -5  -5  -5   -1.03    1.76
   5  -5   5    2.22    1.73
   5  -5   5    0.29    2.91
  -5  -5  -5    2.75    2.18
  -5   5   5    1.36    2.64
  -5  -7   5    5.76    3.64
   5   7   5    1.50    2.87
  -5   7  -5    5.19    3.10
   5  -7  -5    5.31    3.10
   5  -7   5    3.65    3.02
   5   7  -5    4.56    2.94
  -5  -7  -5   -0.57    2.22
  -5   7   5    4.31    3.05
   5   7  -5    3.50    2.96
   5  -7   5    2.29    3.94
  -5  -7  -5    4.14    3.18
  -5   9  -5    1.65    3.19
   5  -9  -5    4.11    3.85
   5   9   5    2.13    3.34
  -5  -9   5    0.87    3.07
   5   9  -5   -0.75    2.88
  -5   9   5   -1.10    2.99
   5  -9   5    0.81    4.91
   5   9  -5    0.59    3.15
  -5  -9  -5    1.74    4.18
  -6   0   5    0.02    0.59
   6   0  -5    0.86    1.10
  -6   0   5   -0.86    0.80
  -6   0  -5   -1.02    1.22
  -6   0  -5   -0.67    1.26
   6   0   5   -1.25    1.57
  -6   0  -5    0.19    0.38
  -6   0   5   -0.33    1.60
   6  -2  -5    3.95    1.45
  -6  -2   5    5.46    2.40
  -6   2  -5    5.76    2.16
  -6  -2   5    4.30    2.35
   6   2   5    4.45    2.53
  -6   2  -5    2.22    1.71
   6   2   5    2.83    1.83
   6  -2  -5    4.29    1.98
   6   2  -5    4.21    1.35
   6   2  -5    2.02    2.05
  -6   2   5    3.49    1.52
  -6  -2  -5    4.29    1.60
  -6   2   5    4.56    3.15
  -6  -2  -5    2.11    1.93
   6  -2   5    3.84    1.03
   6  -2   5    3.21    2.72
   6  -4  -5    2.27    2.33
  -6  -4   5    1.01    1.72
  -6   4  -5   -0.72    1.05
   6   4   5    1.57    2.10
  -6  -4   5   -1.31    1.51
  -6   4  -5    1.42    2.01
   6  -4   5    1.51    3.14
  -6   4   5   -0.89    1.21
  -6   4   5   -1.17    2.20
   6  -4   5   -1.40    0.89
  -6  -4  -5   -1.53    1.37
  -6  -4  -5   -0.20    1.69
   6   4  -5    3.43    2.69
   6   4  -5    0.15    1.44
  -6  -6   5   -1.40    2.25
  -6   6  -5    0.54    2.33
   6   6   5    2.80    3.06
   6  -6  -5    1.60    2.37
   6   6  -5    2.36    2.62
   6  -6   5    3.44    2.60
  -6   6   5    3.11    2.78
   6   6  -5    4.22    2.71
  -6  -6  -5    1.17    2.35
   6  -6   5    1.83    4.09
  -6  -6  -5    5.05    3.44
  -6  -8   5    5.46    4.08
  -6   8  -5    0.00    2.92
   6   8   5   -1.22    2.48
   6  -8  -5    0.54    3.29
  -6  -8  -5    2.41    3.50
   6  -8   5    1.13    4.66
  -6  -8  -5   -1.54    2.88
   6   8  -5    1.57    3.08
  -6   8   5    1.76    3.11
   7   1   5    3.43    2.69
  -7   1  -5   10.20    2.71
   7  -1  -5   10.97    2.59
  -7  -1   5   12.87    3.36
  -7  -1   5   14.87    4.11
  -7   1  -5   11.84    3.26
  -7   1   5   10.12    4.25
  -7  -1  -5   12.44    3.60
  -7  -1  -5   14.36    3.53
  -7   1   5   14.64    3.79
   7  -1   5    8.29    4.10
  -7   1   5    9.87    1.96
   7   1  -5   15.23    3.37
   7   1  -5   14.94    2.06
  -7  -1  -5    9.54    1.82
  -7  -3   5   58.10    7.08
  -7  -3   5   47.25    6.41
   7  -3  -5   61.32    6.43
   7  -3  -5   50.73    6.59
  -7   3  -5   57.11    7.06
   7   3   5   55.70    7.32
   7   3   5   51.58    5.68
  -7   3  -5   50.16    5.36
  -7  -3  -5   43.17    6.08
   7   3  -5   50.76    7.17
  -7  -3  -5   52.41    5.76
   7  -3   5   59.68   11.02
   7   3  -5   54.02    5.08
  -7   3   5   64.67   10.07
  -7   3   5   60.93    5.92
   7  -5  -5   45.81    6.95
  -7   5  -5   47.41    7.23
  -7  -5   5   28.62    6.15
   7   5   5   60.82    9.06
   7   5  -5   32.52    6.49
  -7  -5  -5   38.96    6.47
   7  -5   5   68.82   13.33
  -7   5   5   52.56    6.75
  -7  -5  -5   45.77    6.95
   7   5  -5   52.80    6.39
   7   7   5    5.11    3.98
  -7   7  -5   10.66    4.57
  -7  -7   5   13.52    5.11
   7  -7  -5   11.27    4.12
  -7   7   5    7.07    3.73
  -7  -7  -5   11.01    4.64
   7   7  -5   12.28    4.94
  -7  -7  -5   22.70    6.02
   7  -7   5   15.65    7.09
  -8   0   5   -0.23    0.77
  -8   0   5   -1.83    1.53
  -8   0  -5   -0.37    1.29
   8   0  -5   -1.01    1.22
   8   0   5    1.89    2.78
  -8   0   5    2.12    1.85
  -8   0  -5   -0.11    1.62
   8  -2  -5    8.65    2.18
  -8   2  -5    7.95    2.55
  -8  -2   5   10.59    3.68
   8   2   5    9.24    3.48
   8   2   5   11.20    3.66
  -8   2  -5    9.56    2.99
  -8  -2   5    9.54    3.11
   8  -2  -5    7.85    2.70
  -8  -2  -5   12.31    3.75
  -8  -2  -5    4.69    1.97
   8  -2   5    9.41    4.62
  -8   2   5    5.98    3.68
   8   2  -5    7.67    2.96
  -8   2   5    7.69    2.33
   8   4   5    2.23    2.67
   8  -4  -5    0.95    1.98
  -8   4  -5    1.17    1.65
  -8  -4   5    1.53    2.37
  -8   4  -5    1.51    1.95
  -8   4   5    3.07    3.38
  -8  -4  -5    1.25    1.95
   8   4  -5    0.20    2.01
  -8  -4  -5    1.05    1.91
   8  -4   5    3.72    3.45
  -8   4   5    2.77    1.96
  -8   6  -5   -1.51    1.81
  -8  -6   5    1.63    2.82
   8   6   5    2.09    3.10
   8  -6  -5    3.97    3.11
  -8  -6  -5    0.90    2.58
  -8  -6  -5    3.03    3.25
   8   6  -5    3.20    3.22
  -8   6   5    1.07    2.45
   8  -6   5   -0.06    3.85
   8   8   5   12.23    5.63
  -8   8  -5    3.15    3.39
  -8  -8   5    2.86    4.53
   8  -8  -5    5.81    3.90
  -8  -8  -5    0.48    3.13
  -8  -8  -5   -1.42    2.56
   8  -8   5    6.84    6.72
   8   8  -5    3.17    3.37
  -8   8   5    3.44    3.30
  -9  -1   5  122.16    8.83
  -9   1  -5  151.83    8.95
   9  -1  -5  150.57    7.98
  -9   1  -5  168.13   10.03
   9   1   5  135.77   10.21
  -9  -1   5  151.34   10.92
  -9   1   5  148.46    6.35
  -9   1   5  145.85   11.85
  -9  -1  -5  126.60    8.87
  -9   1   5  132.01    9.02
   9   1  -5  140.57    9.06
   9  -1   5  144.30   12.52
  -9  -1  -5  147.20    9.54
  -9   3  -5   98.68    6.76
   9  -3  -5   96.96    9.18
  -9   3  -5   97.39    9.45
   9   3   5  116.69   11.32
  -9  -3   5  106.10    8.11
  -9  -3   5  108.15   10.71
  -9  -3  -5  101.50    9.90
   9  -3   5  104.01   14.84
  -9   3   5  105.77    6.93
  -9   3   5  132.99   15.12
   9   3  -5  119.63   11.59
  -9  -3  -5  107.69    7.25
  -9   5  -5   84.43    9.94
   9  -5  -5   77.54    9.85
  -9  -5   5   91.48   11.42
   9   5   5   78.12   10.86
  -9  -5  -5   63.30    8.93
   9   5  -5   80.09   10.45
  -9  -5  -5   79.73    9.03
   9  -5   5   77.63   14.24
  -9   5   5   72.20    8.26
   9   7   5   58.98    9.92
  -9   7  -5   63.09    9.38
  -9  -7   5   58.99    9.92
   9  -7  -5   71.98   10.29
   9  -7   5   45.06   10.92
  -9  -7  -5   44.09    8.26
  -9   7   5   56.58    8.72
  -9  -7  -5   78.96   10.64
   9   7  -5   64.60    9.69
 -10   0  -5   -0.20    2.05
 -10   0   5   -2.63    1.97
  10   0   5    0.83    3.04
 -10   0  -5    0.35    1.84
 -10   0   5   -0.53    1.49
  10   0  -5   -0.87    1.58
  10  -2  -5   -0.32    1.86
  10   2   5    2.50    2.70
 -10  -2   5    0.92    2.36
 -10   2  -5    0.41    1.94
 -10  -2   5    0.62    2.03
  10  -2  -5    0.62    1.98
 -10   2  -5    0.04    1.62
  10   2  -5    2.63    2.65
 -10   2   5   -0.45    2.33
 -10  -2  -5   -0.72    2.00
  10  -2   5   -1.60    2.92
 -10   2   5    1.31    1.63
 -10  -4   5    2.43    3.06
  10   4   5    6.04    3.28
  10  -4  -5    1.94    2.57
 -10   4  -5    1.35    2.66
 -10   4   5   -1.31    1.75
  10   4  -5    2.41    2.97
 -10  -4  -5    4.23    2.77
 -10  -4  -5    0.78    2.18
  10  -4   5    3.96    4.77
  10   6   5   10.39    5.08
  10  -6  -5    5.91    4.16
 -10  -6   5    7.69    3.98
 -10   6  -5    3.00    3.83
 -10   6   5    7.34    3.48
  10  -6   5    4.32    4.81
  10   6  -5    4.60    4.13
 -10  -6  -5    8.15    3.90
 -10  -6  -5    5.26    4.54
 -11  -1   5   -1.51    1.74
  11  -1  -5    1.78    2.02
  11   1   5    0.74    2.52
 -11   1  -5    2.54    2.58
 -11  -1   5    4.08    3.36
 -11   1  -5    1.42    2.27
 -11  -1  -5   -0.57    1.97
 -11   1   5    1.99    3.32
  11   1  -5    0.24    2.19
 -11  -1  -5   -0.88    1.84
  11  -1   5    0.12    2.97
 -11   1   5    1.90    2.50
  11  -3  -5    3.62    2.86
  11   3   5    2.55    2.62
 -11  -3   5    1.63    2.67
 -11   3  -5    7.80    3.80
  11  -3   5    0.87    3.93
 -11  -3  -5    3.87    3.01
  11   3  -5    2.63    3.37
 -11   5  -5   -1.38    2.28
 -11  -5   5   -0.84    3.08
  11  -5  -5   -0.81    2.20
  11   5   5    3.39    3.59
  11  -5   5    5.32    5.13
 -11  -5  -5   -1.56    2.73
  11   5  -5    3.79    3.03
 -11   5   5    3.07    2.87
 -12   0  -5    0.28    2.41
 -12   0   5    0.58    2.91
 -12   0   5   -1.48    1.53
  12   0   5    0.95    3.19
 -12   0  -5   -0.10    1.88
  12   0  -5    0.43    2.24
 -12   2  -5   -1.12    1.64
  12  -2  -5   -1.43    1.63
 -12   2  -5    3.43    2.99
  12   2   5    2.48    2.77
 -12  -2   5    1.00    3.00
 -12  -2  -5    0.37    2.53
  12   2  -5    0.19    2.67
  12  -2   5    3.83    4.08
  12   4   5    2.80    3.20
  12  -4  -5    0.68    2.58
 -12   4  -5    2.37    2.89
 -12  -4   5   -0.78    2.56
 -12  -4  -5   -0.16    2.28
  12   4  -5    7.56    4.11
  12  -4   5   -2.68    3.54
 -12   6  -5    0.67    2.82
 -12  -6   5   -3.66    3.02
  12   6   5   -2.55    2.88
  12  -6  -5    0.36    3.09
 -12  -6  -5    2.41    3.84
  12   6  -5   -2.52    2.83
  12  -6   5   -2.19    3.96
 -13   1  -5   14.50    4.64
  13   1   5   17.75    5.34
 -13   1  -5   32.27    6.37
 -13  -1   5   20.79    5.49
 -13  -1  -5   23.21    5.95
 -13  -1  -5   15.74    4.71
  13   1  -5   16.78    5.15
 -13   1   5   21.80    5.65
  13  -1   5   16.68    7.15
  13  -3  -5   21.32    5.59
 -13  -3   5   30.80    6.97
  13   3   5   20.68    5.85
 -13   3  -5   27.76    6.73
  13   3  -5   42.77    8.13
  13  -3   5   29.14    9.58
 -13  -3  -5   30.98    6.89
 -13   5  -5   33.36    7.27
  13  -5  -5   29.58    7.01
  13   5   5   16.89    5.74
 -13  -5   5   20.29    6.66
 -13  -5  -5   40.24    8.86
  13  -5   5   26.44    8.92
  13   5  -5   26.12    6.76
  14   0   5    1.31    3.64
 -14   0  -5   -0.17    2.26
 -14   0   5    1.14    2.35
 -14   0  -5   -2.04    2.24
  14   0  -5    4.62    3.18
  14   2   5   -0.17    2.42
 -14   2  -5    1.31    3.14
 -14  -2   5    5.05    3.70
  14  -2  -5    5.96    3.52
 -14  -2  -5   -0.45    2.96
  14   2  -5    5.18    3.61
  14  -2   5    4.89    4.56
  14  -4  -5    2.35    3.08
 -14   4  -5   -1.10    2.67
  14   4   5   -1.94    2.80
 -14  -4   5   -1.25    3.08
  14   4  -5    4.38    3.67
 -14  -4  -5    3.49    3.91
  14  -4   5    5.32    5.39
 -15   1  -5   74.55   10.86
 -15   1  -5   48.39    8.18
  15   1   5   55.29    9.11
 -15  -1   5   56.57    9.21
 -15   1   5   75.98   10.09
  15  -1   5   31.82    8.98
  15   1  -5   87.76   11.38
 -15  -1  -5   73.27   10.76
 -15   3  -5   35.78    7.80
  15   3   5   44.35    9.19
  15  -3  -5   33.09    7.05
 -15  -3   5   25.71    6.99
  15   3  -5   33.08    7.96
  15  -3   5   22.28    8.18
 -15  -3  -5   45.13    9.44
   0   0   6  489.76   16.28
   0   0  -6  481.33   11.84
   0   0   6  493.29    9.49
   0   0   6  497.61    9.84
   0   2   6  977.73   18.47
   0  -2   6 1000.00   15.81
   0  -2   6  938.25   24.11
   0   2  -6  995.91   18.34
   0  -2  -6  984.39   16.85
   0   2   6  986.96   22.36
   0  -2  -6  989.68   17.14
   0   2  -6  982.70   14.68
   0   4  -6  112.69    7.02
   0  -4  -6  135.21    6.72
   0  -4  -6  117.27    7.53
   0  -4   6  122.62    9.52
   0   4  -6  109.95    6.59
   0   4   6  117.44    8.05
   0  -4   6  122.20    7.88
   0   4   6  138.34    8.89
   0  -6   6  422.39   18.97
   0   6  -6  433.82   16.15
   0   6   6  441.23   18.31
   0   6   6  429.19   16.44
   0  -6   6  445.54   17.29
   0   6  -6  455.90   15.30
   0  -6  -6  477.06   17.77
   0  -8   6  117.09   12.20
   0   8  -6  111.73   11.83
   0  -8  -6  116.28   12.83
   0   8   6   84.12   11.33
   1  -1  -6   17.56    2.93
   1   1   6   14.68    2.74
  -1  -1   6   12.43    3.85
  -1  -1   6   19.01    2.83
  -1   1  -6   17.38    2.70
   1   1   6   15.95    4.26
  -1   1  -6   11.58    2.43
   1  -1  -6   16.17    2.81
  -1  -1  -6   12.97    2.53
  -1   1   6   17.71    4.17
   1  -1   6   18.66    2.24
   1   1  -6   19.01    2.03
  -1  -1  -6   17.45    2.47
   1  -1   6   22.38    5.28
  -1   1   6   18.27    2.74
   1   1  -6   16.42    3.07
  -1   3  -6   27.17    3.75
   1   3   6   34.18    5.16
  -1  -3   6   27.53    4.21
   1  -3  -6   25.00    3.25
   1  -3  -6   30.82    4.44
  -1  -3   6   26.93    5.38
  -1   3  -6   32.45    4.58
   1   3   6   39.34    5.88
  -1  -3  -6   20.76    3.47
   1   3  -6   28.02    3.48
  -1   3   6   33.49    5.77
  -1   3   6   26.03    4.15
  -1  -3  -6   33.81    4.26
   1  -3   6   23.91    5.64
   1  -3   6   28.65    3.73
   1   3  -6   31.43    4.51
  -1   5  -6   19.34    4.05
   1   5   6   18.05    4.07
  -1   5  -6   20.19    3.86
   1  -5  -6   13.86    3.63
   1  -5  -6   18.90    3.05
   1   5   6    9.28    3.49
  -1  -5   6   16.49    5.13
  -1  -5   6   21.61    4.74
  -1   5   6   15.07    4.31
   1   5  -6   14.55    3.37
  -1  -5  -6   24.71    4.00
  -1   5   6   14.35    4.06
   1   5  -6   19.88    4.07
   1  -5   6   14.52    4.90
  -1  -5  -6   14.30    3.79
   1  -5   6   12.52    3.48
  -1  -7   6   17.32    5.03
   1  -7  -6   13.40    4.64
  -1   7  -6    8.03    3.76
   1   7   6   15.70    5.48
  -1   7  -6   11.96    3.42
   1  -7   6   29.39    7.32
  -1   7   6   19.49    5.68
   1   7  -6   17.97    4.87
  -1  -7  -6   13.35    4.58
   1   7  -6    9.92    3.90
   1  -7   6   13.48    4.40
  -1  -9   6   44.59    8.76
   1   9   6   44.86    9.28
   1  -9  -6   26.78    6.93
  -1   9  -6   43.47    8.44
  -1  -9  -6   34.43    7.67
   1   9  -6   39.89    7.99
   1  -9   6   31.15    7.29
  -1   9   6   41.02    8.59
  -2   0   6  285.69    5.24
  -2   0  -6  279.12    8.63
  -2   0  -6  281.90    5.56
  -2   0   6  289.89    8.85
   2   0   6  301.12   12.97
   2   0  -6  301.56    9.42
  -2   0   6  274.11   12.25
  -2   0  -6  291.33    9.56
   2   2   6    7.25    2.86
  -2   2  -6   10.41    2.38
   2  -2  -6    6.37    1.81
  -2  -2   6    8.63    3.52
  -2   2  -6    9.75    2.56
   2  -2  -6   10.61    2.73
  -2  -2   6    7.83    2.21
   2   2   6    5.49    2.23
  -2   2   6   12.12    3.93
   2   2  -6    7.82    2.34
   2  -2   6    8.28    1.56
   2   2  -6   10.97    1.71
  -2  -2  -6   10.04    2.15
   2  -2   6    8.08    3.59
  -2   2   6    6.92    1.95
  -2  -2  -6    7.16    2.32
  -2  -4   6  137.35    9.52
   2  -4  -6  150.47    6.09
  -2  -4   6  148.29    9.06
   2   4   6  157.35    9.88
  -2   4  -6  161.36    8.64
   2  -4  -6  155.27    8.92
  -2   4  -6  137.66    7.38
   2   4   6  143.13    8.05
  -2  -4  -6  148.05    8.18
   2   4  -6  152.73    7.17
  -2  -4  -6  143.79    7.64
   2  -4   6  152.13    7.96
  -2   4   6  134.61    9.53
   2   4  -6  151.47    8.58
  -2   4   6  141.23    8.17
   2  -4   6  143.17   11.04
  -2   6  -6   17.43    4.35
  -2  -6   6   14.48    4.84
  -2   6  -6    9.06    2.87
   2  -6  -6   17.08    4.69
   2   6   6   13.47    4.31
  -2  -6   6   18.42    5.01
   2   6  -6   12.52    3.63
   2   6  -6   18.56    4.37
  -2   6   6   14.08    4.80
   2  -6   6   14.58    5.52
  -2   6   6   17.15    4.73
   2  -6   6   13.12    3.97
  -2  -6  -6    6.35    3.34
  -2  -6  -6   12.56    3.25
  -2   8  -6   70.25   10.07
   2  -8  -6   39.35    7.38
   2   8   6   49.60    9.21
  -2  -8   6   42.52    7.88
   2   8  -6   44.64    7.25
   2  -8   6   48.66    8.12
  -2  -8  -6   69.22   10.46
   2  -8   6   60.86   11.23
  -2   8   6   45.60    8.27
   2   8  -6   70.31    9.65
  -3   1  -6   44.98    1.39
   3   1   6   46.65    5.30
  -3  -1   6   52.53    7.67
  -3   1  -6   45.23    4.77
   3  -1  -6   42.54    4.29
  -3  -1   6   42.51    4.58
  -3   1  -6   46.61    5.11
   3   1   6   61.84    7.65
  -3   1   6   49.19    5.31
  -3   1   6   47.16    2.55
  -3  -1  -6   50.46    2.91
  -3  -1  -6   38.91    4.58
   3  -1   6   37.27    6.44
  -3   1   6   46.01    6.94
   3   1  -6   45.44    5.03
  -3  -3   6   46.12    5.66
   3   3   6   69.41    7.41
  -3   3  -6   71.44    6.93
  -3   3  -6   44.25    4.86
   3  -3  -6   49.85    5.82
   3   3   6   66.94    7.55
  -3  -3   6   66.78    8.68
   3  -3  -6   63.00    3.97
  -3  -3  -6   63.88    5.86
  -3   3   6   47.97    7.30
   3  -3   6   56.07    4.00
   3   3  -6   56.70    6.26
   3  -3   6   79.98   10.75
  -3  -3  -6   48.81    5.41
  -3   3   6   60.82    4.62
   3   3  -6   63.10    3.77
  -3   5  -6    0.62    1.48
   3   5   6    3.66    2.98
  -3   5  -6    0.06    1.28
   3  -5  -6    3.51    2.56
  -3  -5   6    0.84    2.25
  -3  -5   6    3.16    2.59
   3  -5   6    2.63    2.15
   3   5  -6    1.16    1.72
  -3   5   6    1.47    2.39
  -3  -5  -6    2.31    1.94
   3  -5   6   -0.52    2.69
   3   5  -6    2.72    2.27
  -3   5   6    5.65    2.50
  -3  -5  -6    2.06    2.11
  -3   7  -6   63.43    9.02
   3  -7  -6   43.57    7.37
   3   7   6   60.55    9.37
  -3  -7   6   56.37    8.56
  -3   7   6   56.07    8.64
  -3  -7  -6   74.98    9.82
  -3  -7  -6   60.02    7.49
   3   7  -6   69.05    8.91
   3  -7   6   65.08   11.02
   3  -7   6   48.42    7.37
   3   7  -6   77.01    9.19
   3   9   6   -0.21    2.83
   3  -9  -6    2.01    3.42
  -3  -9   6    3.82    4.53
  -3   9  -6    0.61    3.16
   3  -9   6   -1.13    3.57
  -3   9   6    0.43    3.55
  -3  -9  -6    1.07    3.99
   3   9  -6   -0.10    3.26
  -4   0   6    0.73    2.15
  -4   0  -6    2.84    1.62
   4   0  -6    2.65    1.51
  -4   0  -6    2.74    1.65
  -4   0   6    7.41    2.33
   4   0   6    3.78    2.82
  -4  -2   6   68.35    7.13
  -4  -2   6   64.05    7.81
   4  -2  -6   57.12    3.99
  -4   2  -6   81.46    7.47
  -4   2  -6   48.10    5.04
   4   2   6   74.43    7.97
   4  -2  -6   53.83    5.61
   4   2   6   49.80    6.02
   4  -2   6   58.54    2.23
   4   2  -6   60.32    6.53
  -4  -2  -6   56.42    3.94
  -4   2   6   58.61    3.74
  -4   2   6   53.94    7.40
  -4  -2  -6   52.63    5.64
   4  -2   6   45.67    7.85
   4   2  -6   57.72    2.37
  -4  -4   6    0.55    1.97
  -4   4  -6    2.90    2.20
  -4  -4   6    0.34    1.76
   4  -4  -6    0.80    0.84
   4   4   6   -1.96    1.40
  -4   4  -6    0.58    1.22
   4  -4  -6   -1.54    1.40
   4   4   6   -0.30    1.40
   4  -4   6   -0.96    1.18
  -4   4   6    1.85    1.64
   4   4  -6    0.91    1.63
  -4  -4  -6   -1.01    1.14
  -4   4   6    2.71    2.58
   4  -4   6    1.34    3.34
   4   4  -6    1.05    1.11
  -4  -4  -6   -1.05    1.37
  -4   6  -6   23.00    5.14
  -4  -6   6   18.17    5.12
   4  -6  -6   18.34    4.97
   4   6   6   27.61    6.54
  -4  -6  -6   14.53    4.04
  -4   6   6   28.46    7.08
  -4   6   6   16.97    4.61
   4   6  -6   16.13    4.56
   4   6  -6   14.18    3.75
   4  -6   6   26.85    5.22
  -4  -6  -6   19.02    4.86
   4  -6   6   18.75    6.31
   4   8   6   12.42    5.43
  -4   8  -6   14.00    4.98
  -4  -8   6   10.90    4.90
   4  -8  -6    6.50    3.73
   4   8  -6   16.64    5.12
   4   8  -6    6.61    3.68
   4  -8   6    8.16    5.59
  -4  -8  -6    3.11    4.08
  -4   8   6    9.24    4.34
   5  -1  -6   55.52    5.12
  -5   1  -6   66.14    7.07
  -5  -1   6   57.32    8.10
   5   1   6   52.82    7.38
  -5  -1   6   42.18    5.07
  -5   1  -6   67.30    6.28
   5  -1   6   52.53    8.70
  -5  -1  -6   57.75    3.12
   5   1  -6   63.42    6.41
  -5   1   6   65.27    9.00
  -5  -1  -6   49.55    5.54
  -5   1   6   49.36    5.75
  -5   1   6   52.40    2.69
  -5  -1  -6   54.97    6.10
   5   3   6    1.70    2.12
  -5  -3   6    4.21    2.61
   5  -3  -6    1.76    1.20
   5   3   6    5.02    2.27
  -5   3  -6    1.01    1.20
  -5   3  -6    4.68    2.29
   5  -3  -6    6.02    2.35
  -5  -3   6    1.79    2.24
   5  -3   6   -2.52    2.09
   5   3  -6    2.58    1.23
  -5   3   6    1.20    2.23
   5  -3   6    4.04    1.56
   5   3  -6    3.52    2.01
  -5  -3  -6    2.69    1.80
  -5  -3  -6    3.98    2.14
  -5   3   6    1.43    1.48
  -5  -5   6   84.61    9.85
  -5   5  -6   79.07    5.72
  -5   5  -6   84.42    9.07
   5   5   6   81.40    9.94
   5  -5  -6   83.57    9.07
  -5  -5   6   85.45    7.26
  -5   5   6   98.53   12.66
  -5  -5  -6   95.15    9.27
   5  -5   6  107.30   14.97
  -5   5   6   95.50    8.81
   5  -5   6   92.87    8.15
   5   5  -6   95.88    6.88
  -5  -5  -6   89.97    9.31
   5   5  -6   91.72    9.87
  -5   7  -6    2.57    2.89
   5   7   6   -0.69    2.41
  -5  -7   6   -0.27    2.15
   5  -7  -6   -0.87    2.19
   5   7  -6    4.38    3.55
   5   7  -6    3.35    3.85
   5  -7   6    1.91    4.45
  -5  -7  -6    2.65    3.23
  -5  -7  -6    1.67    2.59
  -5   7   6   -2.47    1.97
   6   0  -6  736.69   16.95
  -6   0   6  751.10   18.75
  -6   0   6  687.34   22.25
  -6   0  -6  761.59   18.07
  -6   0  -6  771.05   19.04
   6   0   6  759.02   23.77
   6   2   6  299.34   12.67
  -6  -2   6  285.14   12.22
   6  -2  -6  326.57   12.63
   6  -2  -6  323.08    9.49
   6   2   6  318.02   12.91
  -6   2  -6  305.70   11.15
  -6   2  -6  301.01   12.21
  -6  -2   6  302.50   14.02
   6  -2   6  309.76   17.49
  -6   2   6  308.28    8.59
   6   2  -6  310.06   12.79
  -6  -2  -6  324.89   12.72
  -6   2   6  285.63   15.49
  -6  -2  -6  311.28    9.48
   6   4   6  359.91   16.14
  -6   4  -6  349.80   14.56
  -6   4  -6  355.89   11.63
  -6  -4   6  351.74   14.16
  -6  -4   6  360.29   16.05
   6  -4  -6  354.96   14.74
  -6   4   6  345.79   12.32
   6   4  -6  371.12   15.78
  -6   4   6  364.62   18.59
  -6  -4  -6  346.68   14.36
  -6  -4  -6  370.25   14.03
   6  -4   6  381.41   21.22
  -6   6  -6  139.44   12.65
   6  -6  -6  145.31   13.35
   6   6   6  131.76   13.08
  -6  -6   6  132.58   13.04
  -6   6   6  149.24   10.27
  -6  -6  -6  150.81   10.57
   6   6  -6  152.82   13.86
  -6  -6  -6  151.54   11.26
   6  -6   6  126.26   15.70
  -6  -8   6  228.28   15.97
   6  -8  -6  232.64   15.81
  -6   8  -6  166.84   15.90
   6   8   6  190.22   17.57
   6   8  -6  201.70   14.39
  -6   8   6  202.08   14.14
  -6  -8  -6  222.75   14.31
  -6  -8  -6  207.96   15.39
  -7   1  -6   20.85    4.07
  -7   1  -6   23.98    4.16
  -7  -1   6   27.07    4.82
   7  -1  -6   27.73    3.98
   7   1   6   31.55    6.39
  -7  -1   6   25.20    5.77
  -7  -1  -6   25.94    2.73
   7   1  -6   26.61    4.46
  -7  -1  -6   18.49    3.80
  -7   1   6   38.99    7.65
  -7   1   6   25.53    4.65
  -7   1   6   26.12    2.73
   7  -1   6   23.73    6.62
  -7  -1  -6   30.64    5.31
  -7  -3   6  167.73   10.28
   7   3   6  164.84    8.91
   7  -3  -6  182.38   10.30
  -7   3  -6  162.09    9.90
  -7  -3   6  144.24    9.92
   7   3   6  168.76   10.87
  -7   3  -6  191.82    9.10
  -7   3   6  180.04   13.18
  -7  -3  -6  157.24    9.84
   7  -3   6  171.50   14.47
  -7  -3  -6  167.25    8.36
   7   3  -6  157.25   10.14
  -7   3   6  160.70    7.61
   7   5   6    8.46    3.99
  -7   5  -6    3.79    2.77
  -7  -5   6   16.74    5.34
   7  -5  -6   12.25    4.09
   7   5  -6   15.76    4.94
  -7  -5  -6   13.49    4.22
  -7  -5  -6   13.75    4.11
   7  -5   6   13.19    6.22
  -7   5   6   12.06    5.14
  -7   5   6   12.74    3.86
   7   7   6   55.63    9.03
  -7   7  -6   82.96   10.96
   7  -7  -6   84.93   10.85
  -7  -7   6   80.90   11.34
  -7   7   6   67.19    8.89
  -7  -7  -6  101.87   12.11
   7   7  -6   76.01   10.55
  -7  -7  -6  102.41   12.23
   7  -7   6   59.50   11.69
  -8   0   6  145.32   11.29
  -8   0  -6  132.77    8.95
   8   0   6  158.35   12.18
  -8   0  -6  159.52    9.32
   8   0  -6  148.50    8.45
  -8   0   6  146.47    9.39
  -8  -2   6   25.23    5.53
  -8  -2   6   25.89    4.82
  -8   2  -6   24.71    4.85
  -8   2  -6   30.75    4.60
   8   2   6   29.23    5.68
   8  -2  -6   35.71    4.32
   8   2   6   36.30    6.25
   8  -2  -6   33.26    5.52
  -8   2   6   34.94    8.32
   8   2  -6   45.38    6.87
  -8  -2  -6   26.85    4.95
   8  -2   6   30.99    7.62
  -8   2   6   29.61    3.73
  -8   4  -6   38.56    6.58
  -8  -4   6   40.32    7.52
   8  -4  -6   27.22    5.16
  -8   4  -6   33.72    4.82
   8   4   6   35.37    7.06
  -8  -4  -6   30.54    5.89
  -8  -4  -6   27.76    4.91
   8   4  -6   41.42    7.44
   8  -4   6   32.53    9.34
  -8   4   6   36.76    5.23
  -8   4   6   32.36    8.04
  -8   6  -6    5.49    3.56
   8   6   6    7.51    4.49
  -8  -6   6   13.33    5.61
   8  -6  -6    2.40    2.97
  -8  -6  -6   17.89    5.18
  -8   6   6   10.14    3.73
   8  -6   6    7.86    5.67
  -8  -6  -6   15.38    4.61
   8   6  -6   10.78    4.65
  -8   8  -6   26.98    7.25
   8  -8  -6   31.06    7.55
  -8  -8   6   37.60    8.64
   8   8   6   40.45    9.07
  -8   8   6   21.77    6.03
  -8  -8  -6   32.67    7.69
   8  -8   6   18.84    8.92
   8   8  -6   23.38    6.89
  -8  -8  -6   54.71    9.61
  -9  -1   6   37.89    6.31
  -9   1  -6   46.68    6.51
   9  -1  -6   48.04    5.75
  -9   1  -6   53.63    7.27
  -9  -1   6   47.82    8.25
   9   1   6   44.96    8.05
  -9  -1  -6   40.62    6.30
  -9   1   6   45.27    6.70
  -9   1   6   25.60    6.76
   9   1  -6   31.30    5.25
   9  -1   6   34.38    7.84
  -9  -1  -6   36.14    6.11
  -9   3  -6    6.27    2.73
   9   3   6    2.23    2.71
   9  -3  -6    4.07    2.81
  -9  -3   6   13.29    4.24
  -9   3  -6    6.43    3.06
  -9  -3   6    9.82    4.15
  -9   3   6    3.08    2.48
   9   3  -6    6.39    3.32
  -9  -3  -6    7.98    3.32
  -9   3   6   18.05    6.73
   9  -3   6   -0.56    3.25
  -9   5  -6   48.81    7.93
   9  -5  -6   44.14    7.68
   9   5   6   61.32   10.09
  -9  -5   6   38.32    7.59
   9  -5   6   28.29    8.60
  -9   5   6   35.07    5.89
  -9  -5  -6   36.49    6.72
   9   5  -6   40.83    7.61
  -9  -5  -6   42.41    6.68
  -9  -7   6    1.65    3.75
   9  -7  -6    1.68    3.06
  -9   7  -6    9.14    4.31
   9   7   6   -0.26    2.70
  -9  -7  -6   -1.45    2.98
  -9   7   6    2.85    3.11
  -9  -7  -6   -0.08    2.81
   9  -7   6   -1.73    4.23
   9   7  -6   -0.19    3.14
 -10   0  -6    2.86    2.79
 -10   0  -6    4.06    2.88
  10   0   6   -1.32    2.67
  10   0  -6    0.21    1.89
 -10   0   6    5.55    3.86
 -10   0   6    3.25    2.65
 -10   2  -6   10.00    3.27
 -10   2  -6    6.52    3.45
 -10  -2   6   11.22    3.90
  10  -2  -6    9.65    3.58
  10   2   6   11.22    4.07
 -10  -2   6   13.09    4.84
  10   2  -6    9.55    3.62
 -10  -2  -6   10.76    3.98
 -10   2   6   18.36    6.16
  10  -2   6    5.03    4.25
  10  -4  -6    0.12    2.21
 -10  -4   6    2.61    3.20
 -10   4  -6   -0.37    2.00
  10   4   6   -2.08    2.07
  10  -4   6    0.40    3.70
 -10   4   6    4.55    4.59
  10   4  -6    4.25    3.32
 -10  -4  -6   -0.39    2.01
  10   6   6    0.50    2.98
  10  -6  -6    0.97    2.85
 -10  -6   6   -2.20    2.70
 -10   6  -6   -0.71    2.47
  10   6  -6   -0.71    3.34
  10  -6   6    4.07    5.43
 -10   6   6    5.67    3.13
 -10  -6  -6    1.45    3.92
 -11  -1   6   17.39    5.07
  11  -1  -6   26.08    4.69
 -11   1  -6   26.24    5.71
 -11  -1   6   29.21    7.12
 -11   1  -6   21.33    4.77
  11   1   6   22.57    6.56
  11   1  -6   28.77    5.81
 -11   1   6   17.31    6.17
  11  -1   6   20.65    6.96
 -11  -1  -6   28.84    5.81
 -11   1   6   28.78    5.64
 -11  -1  -6   28.88    5.64
  11   3   6   43.91    7.75
 -11   3  -6   40.30    7.33
  11  -3  -6   38.27    6.62
 -11   3  -6   52.37    7.22
 -11  -3   6   35.91    6.96
 -11  -3  -6   49.72    8.50
  11  -3   6   25.63    8.05
 -11   3   6   26.36    7.67
  11   3  -6   40.92    7.36
 -11  -5   6    4.48    3.57
  11  -5  -6   -3.30    1.99
 -11   5  -6   -1.59    2.41
  11   5   6    1.17    3.48
  11   5  -6    3.47    3.44
 -11  -5  -6   -1.74    2.08
  11  -5   6   -2.52    3.40
 -12   0   6  388.14   20.50
 -12   0  -6  368.40   16.69
 -12   0  -6  423.03   18.52
  12   0  -6  403.93   16.44
 -12   0   6  411.87   17.91
  12  -2  -6   90.23   10.60
  12   2   6   89.82   11.23
 -12  -2   6   98.69   11.27
 -12   2  -6  107.17   12.23
 -12   2  -6   84.62    9.00
 -12  -2   6   94.73   11.95
 -12   2   6   99.26   14.92
  12  -2   6   66.33   12.26
  12   2  -6  105.02   11.34
 -12  -2  -6   96.87   11.11
  12  -4  -6  321.96   16.89
  12   4   6  302.36   17.92
 -12   4  -6  312.03   17.37
 -12  -4   6  308.79   18.27
  12   4  -6  328.65   18.32
 -12  -4  -6  292.42   17.40
 -13   1  -6    9.29    3.38
 -13  -1   6    4.35    3.50
  13   1   6    2.86    3.11
 -13   1  -6   11.62    4.30
 -13  -1   6    2.02    3.15
 -13   1   6    7.67    3.80
  13   1  -6    6.08    3.95
 -13  -1  -6    3.91    3.42
  13  -1   6    7.49    5.47
 -13  -3   6    4.18    3.76
  13   3   6    4.35    3.70
 -13   3  -6    8.38    4.32
  13  -3  -6    0.01    2.74
 -13  -3  -6    3.21    3.31
  13   3  -6    5.23    3.78
  13  -3   6    1.85    4.76
 -13   5  -6   12.52    5.17
  13   5   6    2.02    3.51
  13  -5  -6   15.13    5.65
 -13  -5   6   13.84    5.92
  13   5  -6   17.06    5.92
  13  -5   6    6.55    5.96
 -13  -5  -6   18.12    6.36
 -14   0  -6   16.65    5.13
  14   0   6    9.12    5.50
 -14   0   6   29.48    6.44
  14   0  -6   22.42    5.39
 -14   0  -6   18.82    5.42
  14   2   6  102.76   12.22
  14  -2  -6  119.38   12.86
 -14  -2   6  121.00   13.68
 -14   2  -6  108.37   12.68
 -14  -2  -6  142.54   14.50
  14  -2   6   77.08   14.39
  14   2  -6  117.78   12.67
  14   4   6    4.18    4.03
 -14  -4   6    3.47    4.53
  14  -4  -6   -0.01    2.48
 -14   4  -6   -4.20    1.97
 -14  -4  -6    2.67    3.85
  14   4  -6    0.61    3.58
  14  -4   6    1.62    5.00
 -15   1  -6    2.43    3.42
 -15   1  -6    2.64    3.26
  15  -1  -6    4.97    3.67
  15   1   6   -0.36    2.93
 -15  -1   6    1.19    2.45
  15  -1   6    8.99    6.09
  15   1  -6    6.14    4.16
 -15   1   6    1.85    2.90
 -15  -1  -6   -2.11    3.03
   0   0  -7    1.74    1.45
   0   0   7   -1.93    1.28
   0   0   7    0.49    0.98
   0   0   7    0.29    0.87
   0  -2  -7    1.34    1.33
   0   2   7    3.21    1.83
   0  -2  -7    0.93    1.23
   0   2  -7   -0.78    0.89
   0  -2   7    4.47    3.04
   0   2  -7    1.42    1.02
   0   2   7    3.62    2.55
   0  -2   7    2.17    1.18
   0   4   7    1.11    1.91
   0  -4  -7    2.28    1.59
   0   4  -7    2.12    1.68
   0  -4   7    5.54    3.65
   0   4  -7    4.91    2.18
   0  -4  -7    3.04    2.05
   0   4   7    2.73    2.49
   0  -4   7    4.84    2.32
   0   6   7    5.56    3.50
   0   6  -7    3.37    2.48
   0  -6   7    4.58    2.86
   0   6   7    4.13    3.37
   0  -6   7    7.76    4.79
   0   6  -7    8.06    3.13
   0  -6  -7    4.83    2.86
   0   8  -7   10.91    4.21
   0   8   7   12.00    5.09
   0  -8   7    7.06    4.16
   0  -8  -7   17.51    5.82
   1   1   7   15.41    4.22
  -1   1  -7    8.53    1.95
   1  -1  -7    9.92    2.39
  -1  -1   7    7.94    2.08
   1  -1  -7    5.24    1.91
  -1  -1   7    9.79    4.17
   1   1   7    2.78    1.65
  -1   1  -7    6.45    2.13
   1  -1   7    6.99    1.52
  -1   1   7    9.66    2.23
  -1  -1  -7    1.92    1.47
  -1  -1  -7    5.41    1.57
  -1   1   7    7.26    3.11
   1  -1   7    9.60    3.69
   1   1  -7    6.59    2.23
   1   1  -7    5.55    1.33
   1   3   7    7.27    3.12
  -1  -3   7   10.40    2.67
  -1   3  -7    5.65    2.02
  -1  -3   7   18.16    5.36
  -1   3  -7   13.23    3.18
   1  -3  -7   13.20    2.75
   1   3   7   10.74    3.04
   1  -3  -7   11.75    2.95
  -1   3   7    9.36    2.74
   1   3  -7   13.42    2.51
  -1   3   7   11.91    4.04
   1   3  -7   10.30    3.07
  -1  -3  -7    5.71    1.94
  -1  -3  -7    8.60    2.35
   1  -3   7   19.94    5.91
   1  -3   7    9.52    2.35
  -1  -5   7    6.50    3.64
  -1  -5   7   11.34    3.70
   1  -5  -7   13.01    3.82
   1   5   7   10.33    3.69
   1  -5  -7    7.01    2.17
   1   5   7    9.50    3.97
  -1   5  -7    8.62    3.05
  -1   5  -7    8.41    2.92
  -1   5   7   14.10    4.57
   1  -5   7   12.18    5.32
  -1  -5  -7   10.22    2.86
  -1  -5  -7    6.84    2.93
   1   5  -7    4.14    2.30
   1   5  -7    6.57    2.42
  -1   5   7   16.60    4.37
   1  -5   7    8.81    2.95
   1  -7  -7   -1.95    2.08
  -1  -7   7    0.09    2.62
  -1  -7   7    1.25    3.69
  -1   7  -7    1.52    2.54
  -1   7  -7    0.31    2.07
   1   7   7    2.36    3.18
   1  -7   7    1.15    2.53
   1  -7   7    1.07    3.63
   1   7  -7    1.67    2.36
   1   7  -7   -0.87    2.41
  -1  -7  -7   -0.49    2.54
  -1   7   7   -0.63    2.28
  -1  -9   7    1.35    3.63
   1  -9  -7   -2.07    2.84
   1   9   7   -0.60    3.20
  -1   9  -7   -0.77    3.07
   1   9  -7    1.73    3.67
  -1  -9  -7    5.54    4.55
   1  -9   7    1.12    3.33
  -1   9   7    1.02    3.57
  -2   0  -7   -0.19    1.08
  -2   0  -7   -0.16    0.61
   2   0  -7    1.17    1.24
  -2   0   7    0.31    1.15
   2   0   7    1.87    2.37
  -2   0   7   -0.31    0.74
  -2   0   7    1.29    2.30
  -2   0  -7   -0.60    0.99
  -2  -2   7    2.76    1.55
  -2  -2   7   -1.65    1.87
   2   2   7    2.86    1.94
  -2   2  -7   -0.32    0.99
   2   2   7   -0.63    1.41
  -2   2  -7    0.77    1.24
   2  -2  -7    1.03    1.28
   2  -2  -7    3.80    1.62
   2   2  -7    2.57    1.73
  -2   2   7    0.60    2.05
  -2  -2  -7    2.29    1.73
  -2  -2  -7    1.36    1.00
   2  -2   7    4.84    3.34
   2  -2   7   -0.01    0.72
   2   2  -7    0.46    0.69
  -2   2   7    2.21    1.35
   2  -4  -7    9.19    2.30
   2   4   7   18.39    4.34
   2   4   7   15.43    4.20
  -2   4  -7    4.97    2.06
  -2  -4   7   13.10    4.54
  -2  -4   7    7.66    2.97
  -2   4  -7   15.09    3.45
   2  -4  -7   12.21    3.56
  -2  -4  -7    7.99    2.46
   2   4  -7    7.34    2.27
  -2  -4  -7   10.75    3.00
   2  -4   7    8.56    4.50
  -2   4   7    3.54    2.79
   2   4  -7   11.18    3.22
  -2   4   7    5.94    2.48
   2  -4   7    5.69    2.36
  -2  -6   7   31.81    7.16
  -2  -6   7   29.20    6.00
   2  -6  -7   30.83    6.04
   2   6   7   49.15    8.37
  -2   6  -7   32.94    5.03
  -2   6  -7   37.17    6.33
   2  -6   7   58.10   10.16
  -2  -6  -7   31.60    6.12
   2   6  -7   35.79    5.61
  -2  -6  -7   41.53    5.76
   2  -6   7   38.73    6.09
  -2   6   7   37.25    7.65
  -2   6   7   38.61    6.74
   2   6  -7   37.28    6.10
   2  -8  -7   21.00    5.81
  -2  -8   7   13.64    5.39
  -2   8  -7   41.10    7.87
   2   8   7   31.63    7.90
   2   8  -7   34.55    6.73
  -2  -8  -7   65.51    9.99
   2  -8   7   34.84    9.24
  -2   8   7   29.79    6.77
   2   8  -7   34.26    6.66
   2  -8   7   23.70    5.78
  -3  -1   7  328.04   11.15
  -3   1  -7  332.99    4.75
  -3  -1   7  337.52   14.77
   3   1   7  336.33   11.58
  -3   1  -7  339.63   11.41
   3  -1  -7  327.40   10.33
  -3   1  -7  324.74   10.67
   3   1   7  342.78   14.43
   3  -1  -7  327.83   11.00
  -3   1   7  339.09   15.48
   3  -1   7  341.70   16.11
  -3   1   7  334.18    6.89
   3   1  -7  332.48   11.49
  -3  -1  -7  326.65    7.50
  -3  -1  -7  338.52   11.53
  -3  -3   7  452.71   14.79
   3  -3  -7  467.15   14.88
   3   3   7  461.21   15.90
   3   3   7  433.03   14.88
  -3   3  -7  496.66   14.07
   3  -3  -7  483.11   11.79
  -3   3  -7  475.11   14.03
  -3  -3   7  471.62   18.05
   3   3  -7  475.48    9.92
  -3   3   7  453.25   18.20
   3  -3   7  463.30   10.21
   3   3  -7  479.74   15.24
   3  -3   7  480.53   20.49
  -3  -3  -7  458.54   12.69
  -3  -3  -7  469.73   14.39
  -3   3   7  452.30   12.48
   3   5   7  384.69   17.00
  -3  -5   7  365.76   16.57
   3  -5  -7  366.85   15.44
  -3   5  -7  376.27   14.87
  -3   5  -7  362.80   12.91
  -3  -5   7  371.59   16.35
   3  -5   7  368.16   19.53
  -3   5   7  380.47   14.52
  -3   5   7  362.82   17.50
  -3  -5  -7  369.30   14.60
   3   5  -7  356.11   12.22
   3  -5   7  378.88   13.66
   3   5  -7  356.20   14.92
  -3  -5  -7  366.00   13.89
   3  -7  -7  127.01   12.52
   3   7   7  134.82   13.60
  -3  -7   7  158.77   14.16
  -3   7  -7  133.61   12.50
   3  -7   7  143.01   16.53
   3   7  -7  138.79   12.34
  -3  -7  -7  132.81    9.75
   3   7  -7  134.46    9.93
  -3   7   7  126.65   12.53
  -3  -7  -7  125.66   12.54
   3  -7   7  133.48   11.74
  -4   0   7    0.63    1.20
   4   0   7   -2.32    1.69
  -4   0   7   -1.19    1.90
   4   0  -7    1.26    1.50
  -4   0  -7    0.38    1.44
  -4   0  -7   -0.99    0.99
  -4   2  -7    3.17    1.83
   4  -2  -7    8.85    2.29
   4   2   7    9.57    3.68
  -4   2  -7    6.53    2.12
  -4  -2   7    8.26    2.77
   4   2   7    4.59    2.50
   4  -2  -7    4.90    2.56
  -4  -2   7    5.64    3.03
  -4   2   7    5.65    1.61
   4   2  -7    4.22    2.21
   4  -2   7    9.63    4.30
  -4  -2  -7    1.95    1.27
  -4   2   7    4.75    3.50
  -4  -2  -7    7.54    2.64
  -4   4  -7    8.89    2.65
   4   4   7   11.71    3.55
  -4  -4   7    8.64    3.95
   4  -4  -7    4.36    1.64
   4   4   7   11.24    3.84
  -4   4  -7   15.39    3.87
   4  -4  -7    6.55    3.16
  -4  -4   7    6.47    2.88
  -4   4   7    9.93    4.26
   4  -4   7    4.73    4.02
  -4  -4  -7    6.65    2.44
  -4  -4  -7    6.37    2.46
   4  -4   7   11.93    3.06
  -4   4   7   14.02    3.34
   4   4  -7    3.73    1.71
   4   4  -7    6.07    2.92
  -4   6  -7   49.30    5.93
  -4   6  -7   51.22    7.64
   4   6   7   59.70    9.16
   4  -6  -7   48.93    7.30
  -4  -6   7   48.54    8.08
  -4  -6  -7   51.62    7.06
  -4  -6  -7   66.79    8.74
   4   6  -7   42.43    6.87
  -4   6   7   70.38   11.19
   4  -6   7   49.48   10.28
  -4   6   7   55.23    7.85
   4  -8  -7   24.36    6.41
  -4   8  -7   44.82    8.60
  -4  -8   7   26.22    6.88
   4   8   7   27.06    7.52
  -4  -8  -7   26.17    6.93
   4   8  -7   39.82    7.74
  -4   8   7   27.29    6.83
   4  -8   7   14.87    6.88
  -5  -1   7   12.17    3.16
   5   1   7    9.89    4.06
  -5   1  -7   14.56    3.42
  -5  -1   7   14.08    4.56
   5  -1  -7   14.26    2.90
   5   1   7   15.56    3.90
  -5   1  -7   12.59    3.21
  -5   1   7   15.10    3.54
   5  -1   7    3.54    3.31
   5   1  -7   15.14    3.48
  -5   1   7   10.87    1.49
  -5  -1  -7   11.63    1.80
  -5  -1  -7   13.62    3.14
  -5   1   7   15.58    5.01
   5  -3  -7   44.22    6.34
  -5  -3   7   38.65    5.82
   5   3   7   60.13    7.47
  -5  -3   7   54.42    7.92
  -5   3  -7   34.39    5.45
  -5   3  -7   41.27    5.24
   5  -3  -7   44.55    4.42
   5   3   7   34.31    5.96
   5   3  -7   42.64    5.82
   5  -3   7   47.63    9.61
  -5   3   7   58.07   10.16
  -5   3   7   40.38    4.48
  -5  -3  -7   42.98    4.97
  -5  -3  -7   39.55    5.80
  -5  -5   7   48.85    7.59
  -5   5  -7   30.94    5.86
   5   5   7   34.36    7.07
  -5   5  -7   30.07    4.53
  -5  -5   7   52.94    8.03
   5  -5  -7   36.62    6.39
  -5  -5  -7   34.14    6.02
  -5   5   7   34.41    5.41
   5   5  -7   47.14    7.57
  -5   5   7   31.48    7.55
   5  -5   7   30.89    8.69
  -5  -5  -7   38.97    5.99
  -5   7  -7   11.13    4.37
   5   7   7    6.14    4.35
   5  -7  -7    0.02    2.58
  -5  -7   7    3.55    3.87
  -5  -7  -7    0.78    2.60
  -5  -7  -7    7.21    4.15
   5  -7   7    9.83    6.32
  -5   7   7    3.85    3.28
   5   7  -7    1.69    3.42
  -6   0  -7    1.64    2.14
  -6   0   7    0.65    1.61
  -6   0  -7    3.47    1.98
   6   0   7    1.60    2.58
   6   0  -7   -0.52    1.14
  -6   0   7   -1.76    1.72
   6  -2  -7   -0.88    1.07
  -6   2  -7    1.52    1.98
  -6  -2   7   -1.44    1.38
   6   2   7   -0.75    1.62
   6  -2  -7   -0.34    1.19
  -6   2  -7   -0.55    1.10
  -6  -2   7    1.34    2.29
   6   2   7    1.20    2.26
  -6  -2  -7    1.96    2.03
  -6   2   7    0.53    2.07
  -6   2   7    0.54    1.02
  -6  -2  -7    0.01    1.11
   6  -2   7    0.15    2.99
   6   2  -7    1.39    1.57
  -6  -4   7   -0.90    1.75
  -6  -4   7    5.24    3.10
   6  -4  -7    0.50    1.95
  -6   4  -7    3.09    2.02
   6   4   7    0.16    2.22
  -6   4  -7    3.07    2.34
  -6   4   7    1.25    2.81
  -6  -4  -7    0.98    2.03
   6  -4   7    3.13    3.99
  -6   4   7    1.32    1.82
   6   4  -7   -0.88    1.63
  -6  -4  -7    2.82    2.17
   6  -6  -7    5.23    3.44
  -6  -6   7    8.98    4.27
  -6   6  -7    1.99    2.69
   6   6   7   11.73    4.71
  -6   6   7    8.42    3.61
  -6  -6  -7   12.44    4.22
   6  -6   7    0.54    4.45
   6   6  -7    9.76    4.52
  -6  -6  -7    9.59    3.90
  -6   6   7    3.27    3.84
   6   8   7   10.54    4.88
  -6  -8   7   19.48    6.55
  -6   8  -7   14.43    5.44
   6  -8  -7   11.89    4.74
   6   8  -7   15.16    5.36
   6  -8   7    6.34    5.05
  -6   8   7   10.63    4.61
  -6  -8  -7   17.41    6.17
  -6  -8  -7   15.94    5.31
  -7   1  -7    1.55    1.85
  -7  -1   7   -0.11    1.51
  -7  -1   7   -0.79    2.17
   7  -1  -7    0.24    1.37
  -7   1  -7    2.90    2.06
   7   1   7   -1.25    1.97
  -7  -1  -7   -1.60    1.46
   7   1  -7   -1.36    1.37
  -7   1   7   -0.80    2.19
  -7   1   7   -0.32    1.38
   7  -1   7   -0.37    2.97
  -7  -1  -7   -1.61    1.33
  -7   3  -7   -0.64    1.33
   7   3   7    0.01    2.11
   7  -3  -7   -1.18    1.37
  -7  -3   7   -1.89    1.71
  -7  -3   7    1.64    1.94
   7   3   7    1.92    2.25
  -7   3  -7   -2.50    1.26
   7  -3   7    0.73    3.24
  -7   3   7   -0.15    2.38
  -7  -3  -7    1.90    2.08
  -7   3   7    0.60    1.27
  -7  -3  -7   -0.46    1.32
   7   3  -7    0.03    1.79
   7  -5  -7   -1.58    1.67
  -7   5  -7   -0.62    2.30
  -7  -5   7   -0.42    2.45
   7   5   7   -0.37    2.45
  -7   5   7   -0.49    1.71
  -7  -5  -7   -1.23    1.81
   7  -5   7    7.21    4.91
  -7   5   7    0.71    2.88
   7   5  -7    2.22    2.65
  -7  -5  -7   -0.72    1.93
   7   7   7    3.00    3.46
  -7  -7   7    3.08    3.94
  -7   7  -7    0.36    2.63
   7  -7  -7   -1.70    2.75
   7   7  -7   -2.02    2.60
  -7  -7  -7   -2.45    2.49
   7  -7   7    0.65    4.28
  -7   7   7   -1.05    2.37
  -7  -7  -7    3.76    3.43
   8   0  -7    0.47    1.50
  -8   0  -7   -1.40    1.81
   8   0   7    3.84    3.37
  -8   0   7   -0.66    2.40
  -8   0   7    0.42    1.74
  -8   0  -7   -0.39    1.52
  -8  -2   7    1.43    2.22
  -8   2  -7    1.58    1.77
   8   2   7   -0.94    1.84
   8  -2  -7    2.06    1.64
  -8   2  -7    1.05    1.72
   8   2   7    0.13    2.24
   8  -2  -7    1.73    2.16
  -8  -2   7    5.51    3.34
   8   2  -7   -0.53    1.76
  -8  -2  -7   -0.75    1.75
   8  -2   7    0.99    3.25
  -8   2   7    0.87    2.72
  -8   4  -7    7.00    2.67
   8   4   7    5.98    3.47
  -8  -4   7    2.38    2.66
  -8   4  -7    5.40    3.41
   8  -4  -7    9.49    3.51
  -8  -4  -7    0.65    2.29
  -8   4   7    3.32    3.80
   8   4  -7    7.82    4.02
   8  -4   7   -0.36    3.82
  -8  -6   7   16.96    5.75
  -8   6  -7   13.00    4.83
   8   6   7   12.33    5.52
   8  -6  -7   17.08    5.36
   8  -6   7    9.80    5.96
  -8   6   7   19.36    5.04
   8   6  -7   18.91    5.87
  -8  -6  -7   19.03    5.33
  -8  -6  -7   18.56    5.24
   9   1   7  214.96   13.71
  -9   1  -7  224.97   11.68
  -9  -1   7  203.29   13.63
   9  -1  -7  202.47    9.79
  -9  -1   7  220.93   12.40
  -9   1  -7  223.74   12.60
  -9   1   7  227.04   12.54
  -9   1   7  203.53   15.06
  -9  -1  -7  232.41   12.67
   9  -1   7  224.97   16.38
   9   1  -7  213.71   11.66
  -9  -1  -7  220.82   12.44
  -9  -3   7  226.66   13.63
   9  -3  -7  270.64   13.89
  -9   3  -7  232.78   13.42
  -9   3  -7  255.08   11.78
  -9  -3   7  240.16   13.61
   9   3   7  233.16   14.19
   9   3  -7  243.46   13.87
  -9   3   7  239.07   17.23
  -9  -3  -7  263.66   14.29
   9   5   7  202.27   14.62
  -9  -5   7  228.03   15.23
   9  -5  -7  199.56   13.42
  -9   5  -7  208.70   13.42
  -9   5   7  207.31   16.49
  -9  -5  -7  207.04   13.60
   9   5  -7  202.28   14.21
   9  -5   7  154.12   19.79
   9   7   7  110.80   14.08
   9  -7  -7  116.25   13.36
  -9   7  -7  108.30   13.49
  -9  -7   7  136.32   15.60
  -9  -7  -7  105.80   12.74
   9   7  -7  104.20   12.96
 -10   0  -7   -2.44    1.14
 -10   0  -7    0.43    2.03
 -10   0   7    3.44    2.63
 -10   0   7   -3.10    2.33
  10   0  -7    1.05    1.90
  10   0   7   -0.40    3.42
 -10   2  -7    0.92    2.05
 -10  -2   7    2.23    2.66
  10   2   7    1.76    2.53
  10  -2  -7    1.01    2.40
 -10  -2   7    2.05    2.43
 -10   2  -7    1.07    1.87
  10   2  -7    3.05    2.64
 -10  -2  -7   10.44    4.40
  10  -2   7    0.14    3.49
 -10   2   7    9.10    5.28
  10   4   7    2.31    3.05
 -10   4  -7    4.32    2.89
 -10  -4   7    7.13    3.89
  10  -4  -7    7.04    3.48
 -10   4   7   -1.91    2.44
  10   4  -7    4.13    3.21
 -10  -4  -7    7.89    3.81
  10  -4   7   -0.47    3.86
 -10   6  -7   35.16    7.75
  10   6   7   36.23    8.11
 -10  -6   7   32.13    7.97
  10  -6  -7   32.59    7.24
 -10  -6  -7   35.04    8.14
  10  -6   7   23.14    8.45
  10   6  -7   28.58    7.25
 -11  -1   7   20.60    6.09
  11   1   7   26.92    6.83
 -11   1  -7   18.45    4.80
 -11  -1   7   19.23    5.02
  11  -1  -7   10.10    3.27
  11   1   7   19.04    5.52
 -11   1  -7   13.31    4.28
 -11  -1  -7   19.94    5.24
 -11   1   7   12.12    6.22
  11  -1   7    5.75    4.46
 -11  -1  -7   27.33    6.42
  11   1  -7   19.42    4.87
 -11   1   7   14.97    4.53
 -11  -3   7   42.18    7.74
  11   3   7   58.20    9.32
  11  -3  -7   53.05    8.45
 -11   3  -7   61.56    9.61
 -11   3  -7   58.32    7.53
 -11   3   7   54.01   11.16
  11  -3   7   24.85    8.21
 -11  -3  -7   66.53    9.97
  11   3  -7   61.72    9.10
  11  -5  -7   48.67    8.79
  11   5   7   37.80    8.34
 -11   5  -7   52.71    8.93
 -11  -5   7   47.29    8.80
  11  -5   7   25.40    9.19
 -11  -5  -7   44.82    8.82
  11   5  -7   36.64    7.89
  12   0  -7   -2.05    2.01
 -12   0   7   -1.00    2.05
 -12   0  -7   -2.14    2.05
  12   0   7   -2.00    3.23
 -12   0   7   -0.77    2.61
 -12   0  -7   -1.37    2.27
 -12  -2   7    2.12    3.49
  12   2   7    0.67    2.71
 -12   2  -7    0.02    2.30
  12  -2  -7   -0.86    2.61
 -12   2  -7    0.54    2.28
 -12  -2   7    0.89    2.68
  12   2  -7   -1.25    2.57
 -12   2   7   -0.42    3.00
 -12  -2  -7    1.31    3.09
  12  -2   7    4.44    5.22
 -12  -4   7   -3.55    2.03
 -12   4  -7   -0.12    2.64
  12  -4  -7    3.63    3.24
  12   4   7    6.07    3.83
 -12  -4  -7    3.58    3.23
  12  -4   7    4.26    6.15
  12   4  -7   -0.03    3.38
 -13  -1   7   -0.56    2.40
  13   1   7    1.15    3.15
 -13  -1   7   -0.74    3.10
 -13   1  -7    2.52    3.27
 -13   1  -7    4.08    3.14
 -13   1   7    4.57    4.79
 -13   1   7    2.96    3.34
 -13  -1  -7    5.05    3.36
  13  -1   7    4.90    5.10
  13   1  -7   -1.71    2.37
 -13  -3   7   -0.36    3.02
  13  -3  -7    0.43    2.59
 -13   3  -7   -0.98    2.30
  13   3   7    0.62    2.88
  13  -3   7   -0.45    4.23
 -13  -3  -7    0.08    2.97
  13   3  -7   -1.61    2.92
 -14   0   7   -2.40    2.60
 -14   0   7    0.69    3.56
 -14   0  -7   -0.07    2.10
  14   0  -7    0.69    2.83
 -14   0  -7    0.46    2.74
 -14   2  -7    0.75    2.84
  14  -2  -7    3.23    3.42
  14   2   7    1.68    2.97
 -14  -2   7    4.01    3.40
 -14  -2  -7   -0.39    3.16
  14  -2   7   -0.40    4.58
  14   2  -7    0.42    3.46
  15   1   7  113.14   14.26
 -15   1  -7  124.59   13.13
 -15   1  -7  116.47   13.41
 -15  -1   7  139.82   15.04
  15  -1  -7  126.02   14.08
  15   1  -7  113.03   12.49
 -15  -1  -7  125.57   14.07
   0   0   8  613.09   21.35
   0   0   8  626.40   12.54
   0   0  -8  624.25   12.61
   0   0  -8  627.59   15.98
   0   2   8    5.23    2.27
   0  -2  -8    5.56    2.07
   0  -2   8    3.90    1.60
   0  -2  -8    3.50    1.80
   0   2  -8    6.32    2.02
   0   2  -8    6.52    2.35
   0  -2   8   10.09    4.30
   0   2   8   16.81    4.80
   0  -4  -8  193.76    9.99
   0  -4  -8  200.42    8.97
   0   4   8  195.29   11.65
   0   4  -8  174.07    9.62
   0   4   8  182.46   10.72
   0  -4   8  207.31   14.04
   0   4  -8  200.95    9.06
   0  -4   8  186.18    9.47
   0   6  -8    2.10    2.07
   0   6   8    1.94    2.81
   0   6   8   -0.36    2.23
   0  -6  -8    4.84    3.22
   0  -6   8    2.07    2.57
   0   6  -8    1.90    2.47
   0  -6   8    2.97    3.80
   0   8  -8  200.87   13.84
   0  -8  -8  190.09   14.23
   0   8   8  208.79   15.76
   0  -8   8  166.16   14.91
   1   1   8    1.56    1.53
  -1  -1   8    0.00    2.45
   1  -1  -8    0.29    1.06
  -1  -1   8   -0.68    0.86
   1  -1  -8    0.83    1.27
   1   1   8    1.42    2.06
  -1   1  -8   -0.36    1.14
  -1   1  -8   -0.71    0.91
   1  -1   8    0.11    1.89
   1   1  -8   -0.31    0.69
  -1  -1  -8    0.00    0.93
  -1  -1  -8   -0.03    1.23
  -1   1   8    0.03    2.09
   1  -1   8    0.38    0.81
  -1   1   8   -0.10    1.19
   1   1  -8    0.40    1.14
   1  -3  -8   28.74    4.63
   1  -3  -8   27.24    4.16
   1   3   8   26.70    4.82
  -1  -3   8   23.20    3.82
  -1   3  -8   28.84    4.69
  -1  -3   8   44.00    8.04
  -1   3  -8   34.05    4.37
   1   3   8   38.79    6.83
   1  -3   8   45.23    8.74
  -1   3   8   37.90    6.79
   1   3  -8   31.43    4.76
  -1   3   8   30.85    4.93
   1  -3   8   34.07    4.00
   1   3  -8   32.53    3.76
  -1  -3  -8   34.31    4.86
  -1  -3  -8   28.57    4.33
   1  -5  -8   11.19    2.78
   1   5   8    9.75    3.75
  -1   5  -8   10.83    3.39
   1  -5  -8    7.12    3.12
  -1   5  -8    2.78    2.06
  -1  -5   8   12.83    5.14
  -1  -5   8   11.73    3.78
   1   5   8   11.05    4.11
  -1   5   8   14.74    4.26
  -1   5   8   11.75    4.15
  -1  -5  -8    6.25    2.54
   1  -5   8   11.28    5.06
  -1  -5  -8   11.58    3.70
   1   5  -8    8.65    2.85
   1  -5   8    4.29    2.45
   1   5  -8    6.65    3.19
  -1  -7   8    1.40    3.31
   1  -7  -8    3.69    3.09
   1   7   8    2.20    3.28
  -1   7  -8   -1.37    1.84
  -1  -7   8    0.93    2.73
  -1   7  -8    3.65    3.16
  -1   7   8   -0.12    2.51
  -1  -7  -8    0.08    2.55
   1  -7   8    2.34    4.17
   1   7  -8    3.68    2.87
   1   7  -8   -0.84    2.08
   1  -7   8   -0.07    2.83
  -2   0  -8  107.22    6.80
  -2   0   8  107.31   12.42
  -2   0  -8   99.22    4.13
   2   0   8  119.26   12.25
  -2   0   8   92.67    5.91
   2   0  -8   97.96    6.43
  -2   0   8   89.76    3.84
  -2   0  -8   93.59    5.70
   2  -2  -8    2.76    1.55
   2   2   8   -0.92    1.79
   2  -2  -8    1.10    1.46
  -2  -2   8    0.24    1.40
  -2   2  -8    0.97    1.34
  -2   2  -8   -0.48    1.21
  -2  -2   8    0.97    2.50
   2   2   8    2.39    1.95
  -2   2   8    3.33    1.70
   2  -2   8    2.85    3.32
  -2  -2  -8    1.59    1.29
  -2   2   8   -1.09    2.26
   2  -2   8    1.37    0.94
   2   2  -8    0.61    1.46
   2   2  -8    1.17    0.93
  -2  -2  -8    0.45    1.45
   2   4   8  108.99   10.53
  -2   4  -8  124.59    7.73
   2  -4  -8  109.16    6.41
   2  -4  -8  117.44    8.47
  -2  -4   8  123.16   10.51
   2   4   8  119.94    8.84
  -2  -4   8  118.35    8.34
  -2   4  -8  124.28    8.01
   2   4  -8  121.17    8.50
  -2   4   8  119.26    7.93
   2  -4   8  133.76   14.62
  -2  -4  -8  115.12    7.79
  -2   4   8  115.68    9.83
  -2  -4  -8  104.34    7.32
   2   4  -8  109.75    6.23
   2  -4   8  126.20    7.08
   2   6   8    0.64    2.60
   2  -6  -8   -1.79    1.75
  -2  -6   8    1.86    2.64
  -2  -6   8   -2.70    2.40
  -2   6  -8   -0.37    1.73
  -2   6  -8   -0.15    1.89
   2   6  -8    2.31    2.35
  -2  -6  -8   -1.53    1.69
   2  -6   8    2.33    2.46
  -2  -6  -8   -0.05    1.89
   2  -6   8    0.19    3.23
  -2   6   8   -0.79    2.29
   2   6  -8   -0.68    1.77
  -2   6   8    4.13    2.81
  -2   8  -8   53.83    9.02
  -2  -8   8   41.31    7.89
   2   8   8   25.80    6.93
   2  -8  -8   42.47    8.51
  -2  -8  -8   40.22    8.13
  -2   8   8   35.87    7.79
   2   8  -8   20.00    5.44
   2  -8   8   48.40   10.48
   3   1   8    9.78    2.76
  -3  -1   8    6.30    2.17
  -3   1  -8    7.80    2.65
  -3   1  -8   10.47    1.30
   3  -1  -8    3.79    1.95
  -3   1  -8    7.36    2.33
   3   1   8    5.26    3.50
   3  -1  -8   10.54    2.79
  -3  -1   8    7.39    4.15
  -3   1   8    9.25    1.58
   3  -1   8   12.61    5.19
  -3   1   8   12.08    4.77
   3   1  -8    9.19    2.93
  -3  -1  -8   12.05    3.16
  -3  -1  -8    7.94    1.71
   3   3   8   15.81    4.09
   3  -3  -8   17.11    3.35
  -3  -3   8   25.26    6.09
  -3  -3   8   14.17    3.44
   3   3   8   22.97    5.30
   3  -3  -8   13.19    3.39
  -3   3  -8   13.29    3.26
  -3   3  -8   19.05    3.69
   3   3  -8   10.48    3.34
   3  -3   8   12.22    3.22
  -3  -3  -8   15.45    3.06
  -3  -3  -8   21.92    4.16
   3  -3   8   21.07    6.59
  -3   3   8   13.84    3.06
  -3   3   8   16.22    5.07
   3   5   8    3.38    2.86
   3  -5  -8   -0.83    2.03
  -3  -5   8    6.43    3.11
  -3   5  -8    5.97    2.74
  -3  -5   8    9.01    4.42
  -3   5  -8    2.35    2.00
   3  -5   8    4.48    4.25
  -3  -5  -8    2.46    2.34
   3   5  -8    6.50    3.23
  -3   5   8    9.14    4.43
  -3   5   8    5.29    2.61
  -3  -5  -8    5.07    2.58
   3   7   8   13.32    5.29
  -3  -7   8   17.81    5.64
   3  -7  -8   16.75    5.40
  -3   7  -8   11.50    4.27
   3   7  -8   14.28    4.68
  -3   7   8   16.21    4.98
  -3  -7  -8   13.58    4.98
  -3   7   8   13.65    5.56
   3  -7   8   11.48    5.88
   4   0  -8    3.08    2.05
  -4   0  -8    2.49    2.08
   4   0   8    4.65    3.39
  -4   0   8    2.55    1.64
  -4   0  -8    3.41    1.89
  -4   0   8    4.46    3.21
  -4  -2   8  163.36   11.29
   4  -2  -8  154.17    7.54
  -4  -2   8  157.16    8.85
   4   2   8  176.82   10.99
  -4   2  -8  159.82    8.67
   4   2   8  175.93    9.85
  -4   2  -8  159.86    8.64
   4  -2  -8  169.96    9.26
   4  -2   8  153.56   12.73
   4   2  -8  159.74    9.34
  -4   2   8  161.33   12.02
  -4   2   8  161.76    6.06
  -4  -2  -8  157.03    6.57
  -4  -2  -8  168.63    9.28
   4   4   8    4.63    2.69
  -4  -4   8    0.70    2.11
  -4   4  -8    0.70    1.51
   4  -4  -8    0.18    1.44
  -4   4  -8    2.21    2.27
   4  -4  -8    1.26    2.23
  -4  -4   8    1.21    2.59
   4   4   8    1.34    2.60
  -4  -4  -8    4.13    2.41
  -4   4   8    0.41    1.65
   4  -4   8    2.09    3.87
  -4   4   8    1.95    2.71
  -4  -4  -8    0.35    1.66
   4   4  -8    2.08    2.16
   4   6   8  106.86   12.15
  -4  -6   8   94.21   11.06
  -4   6  -8  129.66   12.54
   4  -6  -8   97.30   10.58
  -4   6  -8   99.85    8.71
  -4   6   8  121.01   11.43
   4  -6   8  115.05   14.43
   4   6  -8  100.68   10.64
  -4  -6  -8  103.84   10.03
  -4  -6  -8  108.34   10.88
  -4   6   8  118.62   14.26
  -4  -8   8    1.28    3.67
   4   8   8    3.90    3.85
   4  -8  -8    0.58    2.86
  -4   8  -8   -2.23    2.33
   4  -8   8    3.65    5.12
  -4  -8  -8    2.92    3.82
  -4   8   8    2.64    3.15
   4   8  -8    5.76    3.66
   5  -1  -8   47.43    5.35
  -5   1  -8   44.64    5.80
   5   1   8   71.03    9.76
  -5   1  -8   41.23    5.63
  -5  -1   8   44.82    7.98
   5   1   8   40.24    6.06
  -5  -1   8   51.14    6.27
   5  -1   8   61.89   10.50
  -5  -1  -8   49.11    6.45
  -5   1   8   53.73    9.39
   5   1  -8   38.86    5.31
  -5   1   8   61.78    7.06
   5   3   8   80.10    9.57
  -5  -3   8   80.17   10.30
   5  -3  -8   67.65    5.87
  -5   3  -8   61.17    7.05
  -5   3  -8   53.79    6.26
   5   3   8   57.17    7.47
  -5  -3   8   68.72    8.01
   5  -3  -8   43.96    5.92
   5  -3   8   61.69   10.30
  -5  -3  -8   72.61    6.53
  -5  -3  -8   65.04    7.77
  -5   3   8   60.86    5.36
  -5   3   8   54.23    9.26
   5   3  -8   62.94    7.53
   5  -5  -8   21.33    4.94
  -5  -5   8   31.53    6.55
  -5   5  -8   33.77    5.11
   5   5   8   24.80    5.77
  -5   5  -8   31.71    6.03
  -5  -5   8   40.04    7.38
  -5  -5  -8   40.81    6.27
  -5   5   8   30.37    5.20
  -5  -5  -8   40.66    6.24
   5   5  -8   34.19    7.05
   5  -5   8   35.48    8.50
  -5   5   8   35.59    8.39
  -5   7  -8   28.97    6.66
  -5  -7   8   28.30    7.05
   5  -7  -8   19.55    6.15
   5   7   8   20.09    6.35
  -5  -7  -8   16.24    5.45
   5  -7   8   13.18    6.85
  -5  -7  -8   14.32    4.69
  -5   7   8   20.59    6.99
   5   7  -8   32.58    6.96
  -5   7   8   15.16    4.94
   6   0   8  147.71   11.92
   6   0  -8  131.01    8.07
  -6   0  -8  131.80    8.59
  -6   0   8  134.35   11.29
  -6   0   8  153.63    9.20
  -6   0  -8  124.87    8.33
   6   2   8  122.99    9.54
   6   2   8  114.61    8.59
  -6  -2   8  118.35   12.94
  -6   2  -8  102.94    7.41
   6  -2  -8  120.04    6.88
  -6   2  -8  126.97    8.50
   6  -2  -8  118.95    8.53
  -6  -2   8  113.76   10.08
   6   2  -8  108.27    9.97
  -6  -2  -8   90.06    8.81
   6  -2   8  103.80   12.88
  -6   2   8  118.88   14.31
  -6  -4   8   31.21    6.69
  -6  -4   8   24.48    5.33
  -6   4  -8   31.25    5.07
  -6   4  -8   37.39    6.19
   6  -4  -8   35.08    6.22
   6   4   8   35.38    6.92
   6   4  -8   34.55    6.43
  -6  -4  -8   32.02    5.91
   6  -4   8   26.60    7.95
  -6  -4  -8   22.22    4.53
  -6   4   8   26.51    7.16
  -6   4   8   26.70    4.28
   6   6   8   48.23    8.44
   6  -6  -8   48.27    8.29
  -6  -6   8   62.25    9.51
  -6   6  -8   62.35    8.60
   6   6  -8   54.22    8.66
  -6  -6  -8   47.58    7.65
  -6   6   8   67.96   11.70
   6  -6   8   45.33   10.46
  -6   6   8   50.52    7.29
  -6  -6  -8   62.44    8.72
  -6  -8   8   50.92    9.76
   6  -8  -8   29.72    7.07
   6   8   8   47.76    9.79
  -6   8  -8   46.55    8.83
   6  -8   8   14.70    6.81
   6   8  -8   49.51    9.38
  -6   8   8   46.61    8.28
  -6  -8  -8   51.75    9.23
   7  -1  -8   76.54    7.22
  -7  -1   8   87.05   12.09
  -7   1  -8   84.00    9.28
   7   1   8   83.15   10.93
  -7   1  -8   64.58    7.37
  -7  -1   8   62.89    7.72
   7   1   8   60.74    7.61
   7   1  -8   61.77    7.22
  -7  -1  -8   80.37    8.51
  -7   1   8   71.60   10.95
  -7   1   8   58.52    7.11
   7  -1   8   97.79   13.64
  -7  -3   8    5.07    3.00
  -7   3  -8    5.10    2.68
   7  -3  -8    7.21    3.12
   7   3   8    8.58    3.68
   7   3   8   12.03    3.93
  -7  -3   8    4.31    3.18
  -7   3  -8    4.05    2.68
   7   3  -8   11.09    3.92
  -7   3   8    5.78    3.83
   7  -3   8    6.41    5.48
  -7  -3  -8    4.43    2.60
   7  -5  -8   10.72    3.86
  -7   5  -8   11.97    4.41
   7   5   8   12.08    4.48
  -7  -5   8    7.80    3.84
   7  -5   8    2.98    4.66
  -7  -5  -8   28.61    6.16
  -7   5   8    6.23    4.61
   7   5  -8    9.50    4.21
  -7  -5  -8   17.98    4.64
  -7   7  -8   26.62    6.75
  -7  -7   8   36.10    8.79
   7  -7  -8   24.82    6.60
   7   7   8   29.39    7.42
   7  -7   8   10.79    6.55
   7   7  -8   10.91    4.92
  -7  -7  -8   36.72    7.47
  -7  -7  -8   33.06    7.00
  -7   7   8   12.96    4.61
  -8   0  -8   -0.68    1.78
  -8   0   8    1.48    2.77
  -8   0   8    2.93    2.33
  -8   0  -8    1.39    2.22
   8   0   8    2.46    3.03
   8   0  -8    3.38    2.28
  -8  -2   8    4.06    2.98
   8   2   8    2.14    3.03
  -8  -2   8    4.76    3.13
  -8   2  -8    6.92    2.68
   8   2   8    4.00    3.02
   8  -2  -8    2.93    1.94
   8  -2  -8    1.72    2.21
  -8   2  -8    1.72    2.33
  -8   2   8    4.39    3.82
   8   2  -8    3.41    2.74
   8  -2   8    1.68    3.67
  -8  -2  -8    2.29    2.19
  -8   4  -8   18.22    4.79
   8   4   8   11.81    4.63
  -8  -4   8   14.59    5.13
  -8  -4   8   23.23    6.14
   8  -4  -8   12.02    4.33
  -8   4  -8   13.39    3.72
   8   4  -8    7.96    3.77
  -8   4   8   17.77    6.89
  -8  -4  -8   21.92    5.23
   8  -4   8   16.75    7.25
  -8   6  -8    5.19    3.59
   8   6   8   -1.76    3.18
  -8  -6   8    1.22    3.25
   8  -6  -8    8.04    4.51
  -8   6   8    3.18    4.17
   8  -6   8    0.47    4.73
  -8  -6  -8    4.51    3.75
   8   6  -8   -1.03    2.70
  -9  -1   8   31.56    6.16
   9   1   8   36.12    7.76
  -9   1  -8   38.43    6.26
  -9   1  -8   38.00    6.55
   9  -1  -8   31.33    4.98
   9   1   8   41.82    7.14
  -9  -1   8   34.35    8.11
  -9  -1  -8   37.31    6.52
   9  -1   8   27.20    7.49
  -9   1   8   36.38    6.48
   9   1  -8   28.23    5.69
  -9   1   8   31.27    8.34
   9  -3  -8   34.31    6.16
  -9  -3   8   46.67    7.63
  -9   3  -8   40.08    7.21
   9   3   8   47.35    8.05
  -9  -3   8   44.97    8.32
  -9   3  -8   37.85    5.90
   9   3  -8   55.22    8.62
  -9  -3  -8   51.33    8.00
   9  -3   8   26.95    8.02
  -9   3   8   55.17   11.22
   9   5   8   52.08    9.44
   9  -5  -8   40.80    7.79
  -9   5  -8   47.43    8.21
  -9  -5   8   47.94    8.81
  -9   5   8   49.92   11.40
  -9  -5  -8   42.45    7.83
   9  -5   8   23.91    7.46
  10   0   8    7.74    5.05
 -10   0   8   22.86    7.08
  10   0  -8   15.67    4.24
 -10   0  -8    6.15    3.60
 -10   0   8   14.50    4.76
 -10   0  -8   11.34    4.26
  10  -2  -8   76.35    9.21
 -10   2  -8  120.62   12.03
 -10  -2   8   84.03   10.07
 -10  -2   8  118.47   13.57
  10   2   8  102.21   11.61
 -10   2  -8   93.80    9.65
  10   2  -8  117.95   11.38
  10  -2   8   61.33   11.54
 -10   2   8  102.13   14.34
 -10  -2  -8  106.46   11.31
  10   4   8    9.94    4.59
 -10  -4   8   16.20    5.47
 -10   4  -8    5.94    4.01
  10  -4  -8    5.62    3.19
  10  -4   8    6.21    5.93
  10   4  -8    1.93    3.01
 -10   4   8   12.08    6.28
 -10  -4  -8   12.86    4.69
 -10  -6   8   70.09   11.52
  10   6   8   98.55   14.08
 -10   6  -8   82.42   11.25
  10  -6  -8   58.48    9.40
 -10  -6  -8   97.66   12.42
  10   6  -8   74.90   11.07
  10  -6   8   34.24    9.42
 -11   1  -8    9.49    4.42
  11   1   8   10.99    4.37
  11   1   8   11.12    5.32
  11  -1  -8   15.68    3.96
 -11  -1   8   11.34    3.97
 -11   1  -8    7.09    3.50
 -11  -1   8   12.08    5.89
 -11   1   8   14.15    4.67
  11   1  -8    8.95    3.90
 -11  -1  -8    9.09    3.75
  11  -1   8    0.52    4.35
 -11   1   8   13.75    6.41
 -11   3  -8    6.80    3.18
 -11   3  -8    6.14    3.31
  11   3   8   13.32    4.80
 -11  -3   8    8.49    4.11
  11  -3  -8    7.77    4.10
 -11   3   8    2.77    4.58
  11  -3   8    5.58    5.59
  11   3  -8   11.39    4.65
 -11  -3  -8    5.54    4.06
 -11   5  -8    1.57    3.20
  11   5   8    6.82    5.04
 -11  -5   8    6.47    4.59
  11  -5  -8    0.54    2.95
 -11  -5  -8    9.00    4.71
  11  -5   8    5.69    5.89
  11   5  -8    1.03    3.36
 -12   0  -8   13.23    4.75
  12   0   8   14.85    6.10
 -12   0  -8    9.74    4.35
  12   0  -8   12.76    4.27
 -12   0   8   14.59    5.02
 -12   0   8   18.45    6.88
  12  -2  -8  112.43   12.15
 -12   2  -8  100.43   10.74
 -12   2  -8   98.74   11.84
 -12  -2   8  111.67   12.79
  12   2   8  127.92   14.68
 -12  -2   8  121.32   14.82
 -12   2   8  112.34   16.71
  12   2  -8  125.46   12.95
 -12  -2  -8   93.16   11.28
  12  -4  -8    0.00    3.12
  12   4   8    2.38    3.73
 -12   4  -8    1.88    3.35
 -12  -4   8    6.71    4.48
  12  -4   8    3.93    5.06
  12   4  -8    8.20    4.97
 -12  -4  -8    9.13    4.64
 -12   4   8    6.40    5.62
  13   1   8    5.86    4.17
 -13   1  -8   -1.34    2.60
 -13  -1   8    1.93    3.86
 -13  -1   8    2.23    3.20
 -13   1  -8   -2.23    2.18
  13  -1   8   -0.53    3.79
 -13  -1  -8    3.94    3.76
 -13   1   8   -0.70    2.38
  13   1  -8    1.66    3.35
 -13   1   8    1.62    3.85
  13  -3  -8   13.74    5.62
 -13  -3   8    6.88    4.01
  13   3   8   16.30    6.49
 -13   3  -8   14.87    5.40
  13   3  -8    4.68    3.88
 -13  -3  -8   13.30    5.40
  13  -3   8    2.94    4.91
 -13   3   8    7.07    6.19
 -14   0  -8   39.75    8.14
 -14   0  -8   42.37    8.11
 -14   0   8   47.16   10.61
 -14   0   8   77.35   11.04
 -14   2  -8   15.78    5.86
  14  -2  -8    9.20    4.46
 -14  -2   8   15.77    5.76
  14   2   8   16.30    5.74
 -14  -2  -8   24.48    6.86
 -14   2   8   11.98    6.81
  14   2  -8   18.27    6.05
  14  -2   8    7.37    5.79
   0   0   9   -0.67    1.57
   0   0  -9   -0.80    0.73
   0   0  -9   -0.95    1.12
   0   0   9    1.05    1.19
   0   2   9    0.99    2.47
   0  -2  -9    0.74    1.32
   0  -2   9    5.69    4.01
   0  -2   9    0.12    1.16
   0   2  -9    0.27    0.98
   0  -2  -9    1.62    1.59
   0   2  -9    0.01    1.57
   0   2   9   -0.80    1.45
   0   4   9   19.66    4.78
   0  -4  -9   13.56    3.42
   0  -4  -9    9.98    3.24
   0   4  -9   12.77    3.01
   0  -4   9   12.30    5.56
   0   4  -9   14.54    4.06
   0   4   9   25.62    6.18
   0  -4   9   20.55    3.97
   0  -6   9   49.04   10.01
   0  -6  -9   50.47    7.90
   0  -6   9   35.94    6.42
   0   6  -9   43.35    6.76
   0   6   9   53.14    8.44
   0   6  -9   52.09    7.15
   0   6   9   54.16    9.43
   0  -8  -9   27.77    6.66
   0   8   9   34.32    8.26
  -1  -1   9  188.41    8.08
   1   1   9  179.05   12.17
  -1  -1   9  197.01   13.35
   1  -1  -9  199.46    8.57
  -1   1  -9  192.34    9.66
   1  -1  -9  208.61    9.55
   1   1   9  195.32    8.76
  -1   1  -9  218.27    8.29
  -1  -1  -9  205.06    7.72
  -1   1   9  207.46   13.05
  -1   1   9  198.36    8.01
   1  -1   9  208.69    7.16
   1   1  -9  191.36    6.16
  -1  -1  -9  208.50    9.82
   1  -1   9  217.40   14.15
   1   1  -9  204.19    9.93
  -1   3  -9  213.03   10.74
   1   3   9  217.51   12.78
  -1  -3   9  217.16    9.56
   1  -3  -9  197.23   10.14
  -1  -3   9  214.96   14.39
   1   3   9  231.73   11.69
   1  -3  -9  222.78    9.83
  -1   3  -9  198.01    8.65
  -1   3   9  201.55   13.24
  -1   3   9  220.96   10.50
   1   3  -9  209.38    7.66
   1   3  -9  200.41   10.71
  -1  -3  -9  204.71    9.40
   1  -3   9  207.46    8.16
   1  -3   9  222.36   15.11
  -1  -3  -9  214.34   10.30
  -1  -5   9  174.49   10.66
   1   5   9  156.71   11.00
   1   5   9  161.16   11.75
  -1   5  -9  158.44    9.55
  -1  -5   9  161.30   13.16
  -1   5  -9  164.50   10.21
   1  -5  -9  157.06    8.56
   1  -5  -9  159.38   10.42
   1   5  -9  155.79   10.37
  -1   5   9  150.49   11.60
   1   5  -9  152.52    8.56
  -1  -5  -9  147.55    8.78
  -1  -5  -9  157.45   10.17
   1  -5   9  154.62    9.55
  -1   5   9  139.25   10.17
   1  -5   9  186.81   19.24
  -1  -7   9   83.70   12.87
  -1   7  -9   71.92    9.30
  -1   7  -9   74.89    9.05
   1   7   9   81.22   11.17
   1  -7  -9   84.02   10.53
  -1  -7   9   77.85   10.00
  -1  -7  -9   79.89   10.01
  -1   7   9   64.92    9.73
   1  -7   9   82.77   13.12
   1   7  -9   71.50    9.27
   2   0  -9   -0.38    1.27
  -2   0  -9   -0.48    1.18
   2   0   9   -0.63    2.12
  -2   0  -9    0.45    1.19
  -2   0   9   -0.34    0.84
  -2   0  -9   -0.05    0.75
  -2   0   9   -0.69    2.13
  -2   0   9    0.92    1.28
   2  -2  -9    3.05    1.88
  -2  -2   9    5.93    3.99
   2   2   9    4.74    3.22
  -2   2  -9    3.14    1.77
  -2   2  -9    4.96    2.36
   2  -2  -9    2.63    1.83
   2   2   9    4.47    2.26
  -2  -2   9    3.05    1.81
  -2  -2  -9    3.39    1.68
  -2   2   9    1.48    1.55
   2  -2   9    6.11    1.59
  -2   2   9    4.05    3.03
  -2  -2  -9    0.03    1.53
   2   2  -9    4.02    2.45
   2  -2   9    9.82    4.56
  -2   4  -9   12.68    3.60
  -2  -4   9    8.78    3.04
   2  -4  -9    4.07    2.90
   2   4   9   11.25    4.36
   2   4   9    3.58    3.10
   2  -4  -9    6.57    2.45
  -2   4  -9    3.32    2.24
  -2  -4   9    8.16    4.85
  -2  -4  -9    7.29    3.00
   2  -4   9    2.95    4.07
  -2   4   9    4.89    3.60
  -2  -4  -9    4.10    2.24
  -2   4   9   12.12    3.44
   2   4  -9    4.12    2.50
  -2  -6   9    8.74    4.28
  -2   6  -9    6.09    3.45
   2   6   9   12.47    4.98
  -2  -6   9    9.03    4.87
   2  -6  -9    5.85    3.64
  -2   6  -9    8.66    3.24
  -2   6   9    8.15    3.64
   2   6  -9    4.23    3.19
  -2   6   9   12.75    5.55
  -2  -6  -9    9.46    3.47
  -2  -6  -9    5.35    2.95
   2  -6   9    7.31    5.37
  -2   8  -9   10.25    4.84
   2   8   9   15.07    5.64
   2  -8  -9   11.72    4.58
  -2  -8   9    5.30    4.50
  -2  -8  -9    6.16    4.38
   2  -8   9   13.71    7.25
  -2   8   9   11.94    5.36
   2   8  -9    2.97    3.58
  -3   1  -9    1.91    1.69
   3   1   9    0.57    1.55
  -3  -1   9   -0.17    2.13
  -3  -1   9   -1.10    0.95
  -3   1  -9    0.68    1.36
   3   1   9   -0.77    1.68
   3  -1  -9   -0.32    1.29
   3  -1  -9    0.84    1.38
  -3  -1  -9    0.32    1.34
  -3  -1  -9    0.72    0.96
  -3   1   9   -0.92    1.86
   3  -1   9    1.31    2.60
   3   1  -9   -1.62    1.38
  -3  -3   9   11.46    4.78
  -3   3  -9    8.08    2.92
   3  -3  -9   10.77    3.34
   3   3   9    7.65    3.28
  -3  -3   9    7.19    2.65
   3  -3  -9    5.29    2.34
  -3   3  -9    7.13    2.55
   3   3   9    6.79    3.48
  -3  -3  -9    6.32    2.26
   3  -3   9    5.29    3.86
   3   3  -9    8.33    3.15
  -3   3   9   10.53    4.97
  -3   3   9   13.92    3.00
  -3  -3  -9    6.98    2.59
   3   5   9    9.72    4.03
  -3   5  -9   16.95    4.32
  -3  -5   9    6.93    3.54
   3  -5  -9   12.21    4.26
  -3   5  -9   11.14    3.66
  -3  -5   9    8.76    4.78
   3   5  -9   15.45    4.75
  -3   5   9    5.89    4.37
  -3  -5  -9    7.98    3.10
   3  -5   9   10.30    5.56
  -3  -5  -9    8.37    3.39
  -3   5   9    9.20    3.50
  -3  -7   9   -0.73    2.77
   3  -7  -9    6.73    3.90
   3   7   9    2.25    3.17
  -3   7  -9    3.64    3.38
   3  -7   9   -3.14    3.97
  -3  -7  -9    2.59    3.49
  -3   7   9    0.80    3.23
   3   7  -9    2.38    3.01
  -3   7   9   -0.60    2.39
  -4   0  -9   -0.20    1.25
  -4   0   9    0.39    2.60
   4   0   9    0.67    2.98
  -4   0  -9   -0.24    1.22
   4   0  -9    2.11    1.70
  -4   0   9    0.47    1.57
  -4  -2   9    5.07    3.58
  -4   2  -9   12.46    3.34
   4   2   9    9.38    4.39
   4  -2  -9    6.64    2.85
   4  -2  -9   11.95    3.06
  -4  -2   9    8.04    2.79
  -4   2  -9   10.41    3.16
   4   2   9   17.08    4.15
  -4  -2  -9    7.11    2.80
  -4  -2  -9   12.81    2.42
   4  -2   9   15.95    5.91
   4   2  -9   15.79    4.08
  -4   2   9   19.21    6.10
   4   4   9    6.32    3.32
  -4   4  -9    5.88    2.70
  -4  -4   9   13.62    4.99
  -4  -4   9    3.68    2.87
   4  -4  -9    8.99    4.02
  -4   4  -9    6.77    2.91
   4   4   9    2.64    2.98
  -4   4   9   11.73    3.22
   4  -4   9    3.38    4.60
  -4  -4  -9    4.17    2.72
  -4   4   9    9.56    4.65
   4   4  -9    4.48    3.08
  -4  -4  -9    1.63    2.05
  -4   6  -9    5.22    2.92
  -4   6  -9    1.71    2.49
   4   6   9    0.87    2.69
  -4  -6   9    2.52    3.23
   4  -6  -9    2.31    2.99
   4  -6   9    4.18    4.60
  -4   6   9    2.76    3.72
   4   6  -9   -0.65    2.67
  -4   6   9    0.72    2.56
  -4  -6  -9   -0.75    2.27
  -4  -6  -9   -0.90    1.91
   4   8   9   10.95    5.07
  -4   8  -9   15.25    5.63
   4  -8  -9    9.45    4.94
  -4  -8   9    3.88    4.38
   4  -8   9    1.98    4.91
  -4  -8  -9    0.70    3.61
  -4   8   9    9.74    4.46
   4   8  -9    4.16    3.91
  -5   1  -9  168.08    9.58
  -5  -1   9  156.41   12.18
   5  -1  -9  149.26    9.15
   5   1   9  153.00   11.67
  -5   1  -9  153.99    9.29
  -5  -1   9  131.67    8.62
   5  -1  -9  149.46    8.45
   5   1   9  151.77    9.62
   5  -1   9  158.75   13.51
  -5  -1  -9  137.62    9.11
  -5   1   9  149.84   12.38
  -5   1   9  149.01    9.28
   5   1  -9  164.97    9.68
  -5   3  -9  100.95    9.20
   5   3   9  119.16   11.45
  -5   3  -9  114.24    8.23
   5  -3  -9   93.80    6.25
  -5  -3   9  114.02   13.13
  -5  -3   9  101.20    9.84
   5  -3  -9   99.23    9.38
   5   3   9  109.34    8.96
  -5  -3  -9   92.97    9.46
   5   3  -9  122.20   10.74
   5  -3   9  127.22   16.15
  -5   3   9  127.81   15.47
  -5  -5   9   94.06   11.36
  -5   5  -9   65.35    8.29
   5   5   9   59.73    9.03
   5  -5  -9   91.17   10.37
  -5   5  -9   64.77    7.48
  -5  -5   9   77.67   10.05
  -5   5   9  108.03   14.60
  -5   5   9   75.70    8.12
   5  -5   9   90.34   13.93
   5   5  -9   76.95    9.83
  -5  -5  -9   65.73    8.61
  -5  -5  -9   68.25    7.95
   5   7   9   39.92    8.65
  -5   7  -9   48.26    8.27
  -5  -7   9   45.60    8.35
   5  -7  -9   58.84    9.12
  -5  -7  -9   48.43    8.28
   5   7  -9   51.06    8.95
  -5  -7  -9   66.21    9.04
  -5   7   9   53.17   10.48
  -5   7   9   60.91    8.90
   5  -7   9   33.08    8.71
  -6   0  -9   -0.27    1.65
   6   0   9   -0.91    2.59
  -6   0   9   -0.18    2.48
  -6   0  -9    2.69    2.26
  -6   0   9   -0.16    1.58
   6   0  -9    1.14    2.17
   6  -2  -9   -0.75    1.74
  -6   2  -9    0.84    1.70
  -6  -2   9   -1.06    1.53
   6   2   9    2.85    3.12
  -6   2  -9    1.55    1.87
   6   2   9    0.19    2.38
   6  -2  -9   -0.28    1.47
  -6  -2   9   -1.40    2.45
  -6   2   9   -0.33    2.37
   6  -2   9   -0.59    3.08
  -6  -2  -9    4.42    2.63
   6   2  -9    2.74    2.62
   6  -4  -9   10.40    3.53
  -6   4  -9   12.73    3.86
   6   4   9   14.37    4.73
  -6  -4   9   10.34    3.94
  -6  -4   9   17.79    5.93
  -6   4  -9   11.32    3.55
  -6   4   9   19.40    6.78
   6   4  -9   10.52    4.34
   6  -4   9   14.53    6.24
  -6  -4  -9   14.07    4.41
   6  -6  -9   26.48    6.56
  -6   6  -9   35.87    7.03
  -6  -6   9   45.91    8.81
   6   6   9   25.87    6.64
  -6  -6  -9   43.93    7.30
  -6   6   9   30.52    8.35
  -6  -6  -9   25.14    6.13
   6  -6   9   12.50    5.97
   6   6  -9   23.23    6.44
   7   1   9  195.20   13.83
   7  -1  -9  181.31    9.66
   7   1   9  188.74   11.62
  -7   1  -9  181.30   10.80
  -7  -1   9  192.20   13.94
  -7   1  -9  184.87   11.11
  -7  -1   9  195.18   11.38
  -7   1   9  198.10   14.97
   7  -1   9  207.70   16.07
  -7  -1  -9  178.75   11.00
   7   1  -9  198.25   11.09
  -7   1   9  175.33   10.98
  -7   3  -9  225.52   11.47
  -7  -3   9  202.60   13.93
   7   3   9  214.44   13.49
  -7  -3   9  227.22   13.18
  -7   3  -9  211.98   12.23
   7  -3  -9  199.97   12.18
   7   3   9  182.17   12.00
   7  -3   9  202.32   17.06
   7   3  -9  212.96   12.78
  -7  -3  -9  218.35   12.70
  -7   3   9  226.59   16.65
  -7   5  -9  162.05   14.17
   7  -5  -9  142.80   13.46
  -7   5  -9  161.57   10.02
   7   5   9  196.53   14.48
  -7  -5   9  183.74   13.62
  -7   5   9  161.68   19.30
  -7  -5  -9  159.42   11.72
   7   5  -9  161.38   15.01
  -7  -7   9   71.39   11.72
  -7   7  -9   69.07   10.35
   7  -7  -9   74.44   10.27
   7   7   9   64.15   10.57
  -7  -7  -9   59.43    8.99
   7   7  -9   83.64   11.94
  -8   0  -9   -0.73    1.85
  -8   0   9    1.74    2.11
   8   0   9    4.45    4.26
  -8   0  -9   -1.54    1.78
  -8   0   9   -1.20    2.24
   8   0  -9    1.06    2.12
  -8   2  -9    1.48    2.24
   8  -2  -9    2.43    2.01
   8   2   9    2.01    2.69
  -8  -2   9   -2.57    2.65
   8   2   9    0.93    2.35
   8  -2  -9    0.77    2.35
  -8  -2   9   -1.88    1.77
  -8   2  -9   -0.23    1.80
  -8   2   9    0.28    3.73
   8  -2   9   -0.18    3.70
   8   2  -9   -2.22    1.80
  -8  -2  -9    0.77    1.99
  -8  -4   9    3.95    3.39
   8  -4  -9   11.66    4.04
  -8  -4   9    6.50    4.07
  -8   4  -9    2.10    2.52
   8   4   9    8.28    4.37
  -8   4  -9    3.04    3.04
   8   4  -9    4.92    3.51
  -8   4   9   10.10    5.25
  -8  -4  -9    5.31    3.31
   8  -4   9    1.54    4.79
  -8   6  -9    4.60    3.79
  -8  -6   9    8.59    5.26
   8   6   9   18.00    6.50
   8  -6  -9   11.12    4.59
   8  -6   9    3.25    4.90
   8   6  -9   11.33    4.96
  -8   6   9    4.62    5.18
  -8  -6  -9   12.82    5.08
  -9   1  -9    6.69    3.44
   9   1   9    0.19    2.30
  -9  -1   9    0.69    2.96
   9  -1  -9    3.76    2.32
  -9  -1   9   -0.95    1.93
  -9   1  -9    0.66    1.78
   9   1   9    3.17    3.72
   9   1  -9    0.24    2.27
  -9   1   9    2.79    2.54
  -9  -1  -9   -0.53    1.94
  -9   1   9   -1.56    2.75
   9  -1   9    4.11    5.15
  -9   3  -9   -0.10    2.21
  -9   3  -9   -0.52    1.66
  -9  -3   9   -0.64    2.71
   9  -3  -9   -1.06    2.21
  -9  -3   9   -2.00    2.10
   9   3   9    1.31    2.67
   9  -3   9    2.85    4.64
   9   3  -9    0.02    2.11
  -9   3   9    5.57    4.53
  -9  -3  -9    5.42    3.49
  -9  -5   9    2.19    3.38
   9   5   9    6.02    4.11
  -9   5  -9    0.75    2.51
   9  -5  -9    8.20    4.21
   9   5  -9   -1.40    2.53
  -9   5   9    4.08    4.48
  -9  -5  -9    2.13    2.70
   9  -5   9   -2.14    5.07
 -10   0   9   -1.85    2.90
 -10   0  -9   -0.34    2.08
 -10   0  -9    1.46    3.06
  10   0   9   -2.12    3.05
  10   0  -9   -1.28    2.06
 -10   0   9   -0.77    1.63
 -10   2  -9    5.87    3.76
 -10  -2   9    2.74    3.60
 -10   2  -9    5.17    3.25
  10   2   9    3.56    3.58
  10  -2  -9    8.95    3.71
 -10  -2   9    7.76    3.53
  10  -2   9    2.07    4.11
  10   2  -9    3.24    3.07
 -10  -2  -9    1.98    2.80
 -10   2   9    6.82    5.69
 -10  -4   9    9.11    4.44
  10  -4  -9    5.75    3.62
 -10   4  -9    4.84    3.60
  10   4   9   -1.41    2.85
 -10  -4  -9    2.77    3.59
  10   4  -9    8.51    4.22
  10  -4   9    2.54    4.77
 -10   4   9    3.74    4.92
 -11   1  -9   52.72    8.29
 -11   1  -9   71.42    8.95
 -11  -1   9   91.47   11.61
  11   1   9   80.64   11.99
  11  -1  -9   61.11    7.74
  11   1   9   81.63   10.71
 -11  -1   9   73.89   12.06
 -11   1   9   81.93   13.69
 -11   1   9   74.06   10.37
  11   1  -9   70.85    9.31
  11  -1   9   36.00    8.23
 -11  -1  -9   58.03    8.87
  11   3   9   42.37    9.08
 -11   3  -9   28.20    6.79
 -11   3  -9   19.22    4.92
 -11  -3   9   24.76    6.75
  11  -3  -9   30.83    6.79
 -11   3   9   30.32    9.38
  11  -3   9    7.34    5.47
 -11  -3  -9   35.70    7.38
  11   3  -9   31.75    7.06
  11  -5  -9   16.05    5.60
 -11  -5   9   40.73    9.17
 -11   5  -9   14.36    5.51
  11   5   9   19.95    6.45
 -11  -5  -9   30.65    7.44
  11   5  -9   17.40    5.96
  11  -5   9    3.01    3.86
 -11   5   9    5.82    5.57
  12   0   9    4.70    4.94
 -12   0  -9   -2.95    1.78
 -12   0   9    0.91    3.75
 -12   0   9    4.28    3.68
 -12   0  -9   -0.75    2.59
  12   0  -9    0.42    2.44
 -12   2  -9    0.23    2.37
 -12  -2   9    0.88    3.60
 -12  -2   9    5.81    3.61
  12  -2  -9    6.09    4.21
  12   2   9    1.50    2.95
 -12   2  -9    1.68    3.07
  12  -2   9   -0.73    3.89
 -12   2   9    1.03    4.07
  12   2  -9   10.64    5.08
 -12  -2  -9    2.78    2.77
  12   4   9    1.19    3.54
 -12  -4   9    5.49    4.12
 -12   4  -9    4.48    3.96
  12  -4  -9   15.06    5.58
  12  -4   9    3.99    4.80
 -12   4   9    8.39    6.33
  12   4  -9    6.12    4.82
 -12  -4  -9   11.36    5.12
 -13  -1   9  159.52   18.26
 -13  -1   9  138.90   13.94
  13  -1  -9  151.39   14.70
 -13   1  -9  147.71   14.95
  13   1   9  144.76   15.46
 -13   1  -9  155.49   14.56
 -13  -1  -9  145.16   14.42
 -13   1   9  160.43   15.88
 -13   1   9  159.58   19.56
  13   1  -9  121.19   12.58
 -13  -3   9  148.75   15.66
  13   3   9  105.09   13.20
 -13   3  -9  125.25   14.42
  13  -3  -9  138.48   14.81
 -13   3   9  121.50   18.09
 -13  -3  -9  115.12   13.62
  13   3  -9  143.69   14.75
 -14   0   9   -1.31    2.26
 -14   0  -9    2.66    3.73
 -14   0  -9    0.00    2.51
 -14   0   9   -2.51    3.59
   0   0  10   22.59    6.27
   0   0  10   19.39    3.27
   0   0 -10   20.47    4.37
   0   0 -10   26.48    3.69
   0  -2  10   48.29    5.07
   0   2  10   44.42    8.44
   0   2 -10   31.66    5.24
   0  -2 -10   43.54    5.37
   0  -2  10   56.01   10.41
   0   2  10   43.96    5.71
   0  -2 -10   46.02    5.96
   0   2 -10   45.73    4.71
   0   4  10   17.89    4.68
   0  -4  10   32.38    8.39
   0  -4 -10   14.89    3.61
   0   4 -10   17.40    4.17
   0  -4  10   21.51    3.94
   0   4  10   18.32    5.91
   0  -4 -10   22.48    4.55
   0   4 -10   27.49    6.58
   0   6 -10   55.52    8.04
   0   6  10   42.42    8.53
   0  -6 -10   50.10    8.04
   0   6  10   36.70    7.15
   0  -6  10   45.86    9.54
   0  -8 -10    5.07    3.86
   0   8  10   -0.86    3.25
   1  -1 -10    0.63    1.35
  -1   1 -10    1.86    1.80
   1   1  10   -1.09    1.30
  -1  -1  10   -1.68    1.92
   1  -1 -10    0.02    1.17
  -1  -1  10    0.11    1.26
   1   1  10   -1.19    2.00
  -1   1 -10    0.16    1.03
   1  -1  10   -0.16    0.91
  -1   1  10    0.19    2.32
  -1  -1 -10   -0.22    1.18
   1   1 -10    0.83    1.47
  -1   1  10    0.22    1.24
   1  -1  10    2.27    3.03
  -1  -1 -10    0.55    1.39
   1  -3 -10    6.98    2.54
  -1  -3  10    3.38    3.88
  -1   3 -10    5.22    2.55
   1  -3 -10    6.12    2.62
  -1   3 -10    3.88    2.13
  -1  -3  10    8.61    2.62
   1   3  10    6.25    3.63
   1   3  10    7.96    3.30
   1  -3  10    7.25    4.60
  -1  -3 -10   10.96    3.06
  -1  -3 -10   10.11    3.20
   1   3 -10    7.14    3.05
  -1   3  10   11.89    3.44
  -1   3  10    6.48    3.82
   1   5  10   10.47    4.39
  -1  -5  10   13.57    4.18
   1  -5 -10    2.13    2.46
  -1   5 -10    6.21    2.77
  -1  -5  10   16.58    6.55
  -1   5 -10   10.27    3.65
   1  -5 -10    6.02    2.48
   1   5  10    5.90    3.85
  -1   5  10   14.75    4.50
  -1  -5 -10    8.08    3.31
   1   5 -10    5.24    3.20
  -1   5  10    9.78    5.03
   1  -5  10    4.98    4.46
  -1  -5 -10   14.92    4.14
   1  -7 -10    7.15    4.08
   1   7  10   16.20    5.71
  -1   7 -10   10.11    4.30
  -1  -7  10   13.43    4.80
  -1  -7  10   17.57    6.92
  -1   7  10   11.90    5.46
   1  -7  10   23.12    8.31
  -1  -7 -10   19.38    5.26
   1   7 -10   17.03    5.17
   2   0 -10   74.30    7.55
  -2   0  10   77.43    7.13
  -2   0 -10   80.39    8.57
   2   0  10  103.01   13.62
   2   0  10   80.06    7.28
  -2   0  10   71.20   10.44
  -2   2 -10  376.52   14.48
   2  -2 -10  401.56   13.74
   2   2  10  373.22   17.73
  -2   2 -10  397.47   12.67
   2   2  10  414.04   14.94
   2  -2 -10  384.95   13.74
  -2  -2  10  388.84   19.90
  -2  -2  10  409.27   13.47
  -2   2  10  398.25   11.80
   2   2 -10  393.77   15.34
  -2  -2 -10  407.20   14.92
  -2   2  10  408.74   19.84
  -2  -2 -10  403.83   11.79
   2  -2  10  403.19   21.24
   2   4  10   15.47    5.33
   2   4  10   17.03    4.81
   2  -4 -10   15.94    3.65
  -2  -4  10   12.12    3.47
   2  -4 -10   10.19    3.80
  -2  -4  10   17.51    6.38
  -2   4 -10   21.36    4.23
  -2   4 -10   11.49    3.60
  -2  -4 -10   17.73    4.08
  -2  -4 -10   15.09    3.70
   2  -4  10   20.42    7.49
   2   4 -10   14.64    4.07
  -2   4  10   13.98    5.43
  -2   4  10   16.97    3.98
  -2   6 -10  178.50   11.28
  -2  -6  10  180.19   14.94
  -2  -6  10  200.50   13.14
   2  -6 -10  183.39   12.80
   2   6  10  199.84   14.23
  -2   6 -10  198.58   12.00
  -2   6  10  200.12   15.03
  -2  -6 -10  201.75   11.67
  -2   6  10  188.21   12.53
   2  -6  10  172.05   19.03
  -2  -6 -10  217.76   12.66
   2   6 -10  219.50   13.62
   3   1  10   65.81    9.93
   3  -1 -10   77.83    7.56
  -3   1 -10   58.06    6.94
   3   1  10   71.72    7.48
  -3  -1  10   75.35    7.42
  -3   1 -10   68.13    6.75
  -3  -1  10   63.55    9.88
   3  -1 -10   64.68    7.00
  -3  -1 -10   72.75    8.26
   3   1 -10   76.31    8.50
   3  -1  10   80.41   12.14
  -3   1  10   79.71   11.93
  -3  -3  10   -0.75    1.49
   3  -3 -10    1.46    2.19
  -3   3 -10   -1.15    1.28
  -3  -3  10    1.43    3.44
   3   3  10   -1.32    1.90
   3   3  10   -1.01    2.13
   3  -3 -10    1.11    1.70
  -3   3 -10    0.04    1.60
  -3   3  10    0.86    2.82
  -3  -3 -10   -0.57    1.19
  -3  -3 -10    3.72    2.33
   3   3 -10    2.71    2.22
   3  -3  10   -2.50    2.94
  -3  -5  10   63.77    8.72
   3   5  10   56.50    9.08
  -3   5 -10   59.06    7.47
  -3   5 -10   61.78    7.87
  -3  -5  10   51.92   10.03
   3  -5 -10   61.03    8.67
  -3  -5 -10   58.47    7.45
   3   5 -10   40.76    7.48
   3  -5  10   46.90   10.39
  -3  -5 -10   52.74    7.40
  -3   5  10   42.86    6.37
  -3   5  10   42.04    8.96
   3  -7 -10    2.16    3.26
   3   7  10   -0.07    3.20
  -3   7 -10   -0.87    2.28
  -3  -7  10   -0.06    3.19
  -3   7  10   -1.83    3.09
  -3   7  10    4.95    3.45
   3   7 -10   -0.83    2.84
   3  -7  10   -2.15    3.49
  -3  -7 -10   -0.82    2.39
  -4   0  10  497.15   16.54
  -4   0 -10  487.36   16.73
  -4   0  10  492.46   22.29
   4   0 -10  493.02   16.31
   4   0  10  490.64   22.43
  -4   0 -10  504.94   15.95
   4   2  10  137.12    9.50
  -4   2 -10  142.86    8.77
   4  -2 -10  136.84    8.36
  -4  -2  10  147.63   12.28
   4  -2 -10  129.04    8.83
  -4   2 -10  136.96    9.19
  -4  -2  10  146.31    9.17
   4   2  10  135.90   11.14
   4  -2  10  120.18   15.13
   4   2 -10  141.05    9.67
  -4  -2 -10  143.54    9.73
  -4   2  10  157.22   16.79
  -4  -4  10  167.90   10.95
  -4   4 -10  163.62   10.06
  -4  -4  10  195.52   14.07
  -4   4 -10  186.74   10.73
   4  -4 -10  188.36   11.85
   4   4  10  162.49   11.87
   4   4  10  162.90   11.41
  -4   4  10  178.49   14.38
   4  -4  10  169.32   19.53
  -4  -4 -10  171.99   10.93
  -4  -4 -10  183.47    9.76
   4   4 -10  171.41   11.50
  -4  -6  10   53.04    8.98
   4  -6 -10   83.25   10.76
  -4   6 -10   55.23    7.28
   4   6  10   60.96    9.93
  -4   6 -10   44.72    7.15
  -4   6  10   63.39   11.42
  -4  -6 -10   72.28    9.01
  -4   6  10   60.17    8.80
   4   6 -10   60.06    8.93
  -4  -6 -10   58.79    8.08
   4  -6  10   60.15   12.57
  -5  -1  10   11.78    3.56
  -5   1 -10    3.42    2.39
   5   1  10    2.57    2.78
   5   1  10    6.04    4.33
   5  -1 -10    5.88    2.80
   5  -1 -10    5.40    2.55
  -5  -1  10   12.41    5.35
  -5   1 -10   11.64    3.54
  -5   1  10   10.45    4.99
   5   1 -10    3.07    2.34
  -5  -1 -10    9.72    3.61
   5  -1  10    7.10    4.93
   5  -3 -10   63.80    6.66
   5   3  10   62.89    8.40
  -5  -3  10   66.85   10.85
  -5  -3  10   53.49    7.35
  -5   3 -10   60.23    7.49
   5  -3 -10   58.70    7.72
   5   3  10   84.45   10.74
  -5   3 -10   64.14    7.67
  -5   3  10   60.08   11.47
   5  -3  10   64.81   12.46
   5   3 -10   58.40    7.75
  -5  -3 -10   60.06    7.78
  -5   5 -10   -1.15    1.95
   5  -5 -10    0.02    2.73
  -5  -5  10    5.96    3.74
  -5   5 -10    2.79    2.78
   5   5  10    2.18    2.95
  -5  -5  10    0.32    2.87
   5  -5  10   -0.02    4.05
   5   5 -10    4.02    3.40
  -5  -5 -10    0.01    2.54
  -5   5  10    7.84    5.06
  -5  -7  10   26.70    7.24
   5  -7 -10   30.39    7.32
  -5   7 -10   42.73    8.15
   5   7  10   39.81    9.02
   5   7 -10   15.13    5.70
  -5  -7 -10   32.16    7.28
   5  -7  10   27.72    8.37
  -5  -7 -10   32.47    6.81
  -5   7  10   34.88    9.24
  -6   0  10    9.32    3.63
  -6   0  10    3.30    3.68
   6   0  10    1.43    3.74
  -6   0 -10    8.91    3.31
   6   0 -10    6.42    2.86
  -6   0 -10   14.23    4.23
  -6  -2  10    2.78    3.42
   6   2  10    4.49    3.43
   6   2  10    2.63    3.50
   6  -2 -10    7.41    2.88
  -6  -2  10    7.13    3.29
  -6   2 -10    3.30    2.41
   6  -2 -10    4.10    2.71
  -6   2 -10    3.60    2.53
   6   2 -10    5.18    2.96
   6  -2  10    7.83    5.19
  -6  -2 -10    3.89    2.76
  -6   2  10    7.14    4.34
  -6  -4  10   14.42    5.55
  -6   4 -10   14.44    4.34
  -6  -4  10   12.88    4.47
   6   4  10   10.24    4.42
   6  -4 -10   14.53    4.52
  -6   4 -10   12.37    3.88
  -6  -4 -10    7.08    3.63
   6   4 -10   13.37    4.68
   6  -4  10    6.58    5.36
  -6   4  10   17.38    7.14
   6   6  10   -0.60    2.88
   6  -6 -10    0.35    2.93
  -6   6 -10   -1.07    2.19
  -6  -6  10    3.57    4.02
   6   6 -10   -2.06    2.32
  -6   6  10    1.18    3.94
  -6  -6 -10   -0.53    2.01
   6  -6  10    3.06    5.06
   7  -1 -10   56.13    7.66
  -7   1 -10   46.85    7.10
   7   1  10   60.74    8.35
  -7  -1  10   49.31    7.67
   7  -1 -10   46.09    6.25
   7   1  10   57.57   10.67
  -7  -1  10   54.05    9.80
  -7   1 -10   45.27    6.83
  -7   1  10   57.68    7.93
  -7  -1 -10   60.24    8.24
   7   1 -10   47.23    6.83
  -7   1  10   43.90    9.20
   7  -1  10   43.51    9.75
  -7  -3  10   22.28    6.58
   7   3  10   24.48    6.21
   7  -3 -10   21.66    5.56
  -7  -3  10   19.21    5.35
  -7   3 -10   23.93    5.55
  -7   3 -10   22.97    4.69
  -7   3  10   34.47    8.70
   7   3 -10   22.30    5.53
   7  -3  10   34.91    9.40
  -7  -3 -10   15.53    4.52
  -7  -5  10   81.63   10.94
   7  -5 -10   81.50   10.45
   7   5  10   83.83   11.94
  -7   5 -10   79.12    8.59
  -7   5 -10   72.03    9.43
  -7   5  10   77.09   13.07
   7  -5  10   75.00   13.73
   7   5 -10   66.66   10.08
  -7  -5 -10   99.42   11.42
   8   0  10   62.77   10.90
  -8   0  10   72.41   12.17
  -8   0  10   73.49    8.87
  -8   0 -10   67.43    8.82
   8   0 -10   56.82    7.37
  -8   0 -10   51.64    7.69
   8  -2 -10  127.89    8.46
  -8  -2  10  106.07   10.99
   8   2  10  150.24   16.27
  -8   2 -10  114.57   11.43
  -8  -2  10  148.37   16.79
   8  -2 -10  123.02   11.97
  -8   2 -10  121.12   10.98
   8   2  10  154.96   14.52
  -8  -2 -10  123.00   11.88
  -8   2  10  103.91   14.64
   8  -2  10  116.44   15.91
   8   2 -10  121.09   11.55
  -8   4 -10   57.75    7.70
  -8   4 -10   50.72    8.12
   8  -4 -10   58.06    8.49
   8   4  10   41.10    8.05
  -8  -4  10   47.94    9.06
  -8  -4  10   39.12    7.58
  -8  -4 -10   51.15    8.67
  -8   4  10   47.43   10.68
   8  -4  10   47.34   11.03
   8   4 -10   64.04    9.22
   8  -6 -10   62.06    9.91
  -8  -6  10   67.86   11.08
   8   6  10   54.62   10.96
  -8   6 -10   54.92    9.40
  -8   6  10   69.21   13.94
  -8  -6 -10   49.27    8.66
   8  -6  10   19.70    8.04
   8   6 -10   43.16    8.35
  -9   1 -10   10.41    4.06
   9   1  10    8.26    4.06
   9  -1 -10    1.99    2.31
  -9  -1  10    8.35    4.08
  -9   1 -10    4.06    2.99
  -9  -1  10   11.23    5.79
   9   1  10    4.30    4.68
   9  -1  10    4.95    5.02
  -9   1  10    5.89    3.32
  -9   1  10   10.29    6.01
  -9  -1 -10   11.28    4.23
   9   1 -10    8.64    3.69
  -9   3 -10   52.00    7.52
  -9   3 -10   50.32    7.96
   9   3  10   61.01    9.32
   9  -3 -10   48.77    8.18
  -9  -3  10   63.72   10.38
  -9  -3  10   77.36   10.80
   9   3 -10   59.55    9.02
   9  -3  10   29.32    9.15
  -9   3  10   59.13   11.72
  -9  -3 -10   51.41    9.18
  -9   5 -10    1.37    2.93
   9   5  10    3.36    4.00
  -9  -5  10   -2.45    3.24
   9  -5 -10    2.94    3.88
  -9   5  10    3.35    4.35
  -9  -5 -10   -0.05    2.77
   9  -5  10    0.36    4.43
   9   5 -10   -2.58    2.50
 -10   0  10  303.42   16.89
 -10   0  10  313.55   20.40
 -10   0 -10  327.06   17.29
  10   0 -10  329.06   15.39
  10   0  10  311.71   20.19
 -10   0 -10  335.90   16.58
 -10   2 -10   91.36   10.84
 -10  -2  10  158.12   16.96
  10  -2 -10  125.62   12.71
  10   2  10  120.43   12.76
 -10   2 -10  121.89   11.74
 -10  -2  10  144.32   13.73
 -10   2  10  138.46   18.40
  10  -2  10   75.16   12.74
  10   2 -10  161.11   14.61
 -10  -2 -10  134.20   13.33
  10   4  10  120.67   14.85
 -10  -4  10  143.31   15.11
  10  -4 -10  149.63   14.36
 -10   4 -10  135.28   13.96
  10   4 -10  122.70   13.59
 -10  -4 -10  143.45   14.74
 -10   4  10  118.45   17.56
  11   1  10   48.17    9.57
 -11  -1  10   43.83    8.38
  11   1  10   47.09   10.52
 -11   1 -10   25.78    5.98
 -11  -1  10   40.80    9.66
 -11   1 -10   25.09    6.18
  11  -1 -10   29.82    6.52
 -11  -1 -10   46.80    8.28
  11   1 -10   36.92    6.96
  11  -1  10   27.83    8.39
 -11   1  10   47.34   11.35
 -11   1  10   28.41    6.46
 -11   3 -10    1.66    3.18
 -11  -3  10    4.51    3.81
  11   3  10    2.58    3.58
 -11   3 -10    1.27    2.83
  11  -3 -10    1.77    3.10
 -11  -3 -10    0.34    3.19
  11   3 -10   -0.58    3.27
  11  -3  10   -1.05    3.51
 -11   3  10    2.71    4.79
 -12   0 -10   -0.21    3.27
 -12   0  10   13.01    7.29
 -12   0 -10    4.38    3.59
  12   0  10   -0.48    4.15
 -12   0  10    3.80    3.57
  12   0 -10   10.07    4.44
 -12   2 -10   23.49    6.39
  12   2  10   14.43    5.97
 -12  -2  10   11.81    5.66
 -12   2 -10   16.81    5.45
 -12  -2  10   11.54    5.17
  12  -2 -10   16.19    5.61
 -12  -2 -10   25.91    7.13
  12   2 -10   22.10    6.08
  12  -2  10    3.88    4.92
 -12   2  10   20.45    8.48
 -13  -1  10    2.73    4.29
  13   1  10   -2.45    2.76
 -13   1 -10    2.30    3.19
 -13  -1  10    0.12    3.43
 -13   1 -10   -2.40    2.78
  13  -1 -10   -0.43    2.84
  13   1 -10   -3.78    2.36
  13  -1  10   -0.30    4.19
 -13  -1 -10   -3.81    3.09
 -13   1  10    1.59    4.84
   0   0  11   -1.77    1.77
   0   0 -11    1.29    1.56
   0   0 -11   -0.38    1.22
   0   2 -11    2.45    2.17
   0  -2  11    7.23    4.50
   0  -2 -11   12.09    3.18
   0  -2 -11    2.98    2.39
   0   2  11    7.16    2.85
   0   2  11    4.33    3.96
   0  -2  11   11.32    2.84
   0  -4 -11   -1.31    1.78
   0  -4  11   -0.24    4.10
   0   4 -11    0.06    1.97
   0   4  11    3.64    3.51
   0  -4 -11   -0.92    1.96
   0   4  11   -0.14    2.23
   0   6  11   11.16    4.45
   0   6 -11    9.18    4.16
   0   6  11   19.90    8.01
   0  -6 -11   18.85    5.47
   0  -6  11   24.77    8.74
   1  -1 -11   17.32    3.74
  -1  -1  11   20.73    6.68
   1   1  11   15.84    5.31
   1   1  11   12.91    3.27
  -1  -1  11   19.88    3.72
  -1   1 -11   20.76    3.60
   1  -1 -11   14.37    3.79
  -1   1 -11   19.05    4.55
  -1  -1 -11   16.38    3.21
  -1  -1 -11   14.98    3.96
  -1   1  11   30.41    7.50
   1   1 -11   20.02    4.62
   1  -1  11   17.42    6.84
  -1  -3  11   83.86   13.63
   1  -3 -11   67.49    7.50
  -1   3 -11   57.42    7.45
  -1  -3  11   66.23    6.77
   1   3  11   63.61    8.17
   1  -3 -11   46.48    6.36
   1   3  11   81.16   11.38
   1  -3  11   80.54   13.04
   1   3 -11   79.42    8.94
  -1  -3 -11   54.86    7.16
  -1   3  11   53.48    6.71
  -1   3  11   58.09   10.00
  -1  -3 -11   58.53    6.48
   1   5  11   72.39   11.12
  -1  -5  11   64.98   12.02
   1  -5 -11   61.71    8.32
   1   5  11   52.15    8.51
  -1   5 -11   59.51    7.92
  -1  -5  11   58.86    8.37
  -1   5  11   69.28   11.20
  -1   5  11   67.20    8.63
  -1  -5 -11   61.66    7.80
   1   5 -11   63.95    8.56
  -1  -5 -11   61.41    7.93
   1  -5  11   45.17    9.92
  -1  -7  11   17.00    6.82
   1  -7 -11   16.70    5.52
   1   7  11   20.56    6.35
  -1   7 -11   17.01    5.14
  -1  -7 -11   19.41    5.45
   1  -7  11   16.17    7.20
  -1   7  11   11.73    5.41
   1   7 -11    6.11    3.50
   2   0  11   -0.35    2.80
  -2   0  11    0.17    2.61
   2   0  11   -0.84    1.45
   2   0 -11    0.86    1.57
   2   0 -11   -1.21    1.84
  -2   0 -11   -0.02    1.95
   2   2  11    3.03    2.41
   2   2  11    2.88    3.45
  -2   2 -11   -1.44    1.44
   2  -2 -11    3.21    2.01
   2  -2 -11    1.25    1.81
  -2  -2  11    2.28    1.81
  -2   2 -11    3.72    2.41
  -2  -2  11   -1.33    2.86
  -2  -2 -11    0.76    2.11
   2   2 -11    1.44    2.02
  -2   2  11   -2.10    2.05
   2  -2  11    3.27    3.67
  -2   4 -11   -0.61    1.63
   2   4  11   -0.40    2.60
  -2   4 -11    1.39    2.38
  -2  -4  11    0.68    3.21
   2  -4 -11   -1.09    1.52
   2  -4 -11    1.43    2.39
   2   4  11    2.24    2.76
  -2  -4  11   -1.26    1.78
   2   4 -11   -1.43    1.51
  -2  -4 -11   -1.50    1.78
  -2  -4 -11   -0.16    1.84
  -2   4  11    2.29    3.41
   2  -4  11   -5.38    3.29
  -2   6 -11    2.16    2.67
  -2  -6  11   -0.75    2.34
   2  -6 -11    0.71    2.65
   2   6  11    0.68    2.41
  -2  -6  11    5.52    4.98
  -2   6  11   -0.84    2.89
  -2  -6 -11    1.55    2.57
   2   6 -11    1.72    2.78
  -2   6  11    0.85    2.52
  -2  -6 -11    3.80    2.75
   2  -6  11    7.15    5.38
  -3   1 -11   79.37    7.76
   3  -1 -11   74.47    7.81
  -3  -1  11   65.41    7.06
   3   1  11   95.15   13.88
   3  -1 -11   59.01    7.08
   3   1  11   58.41    7.12
  -3  -1  11   70.34   11.10
  -3   1 -11   49.92    6.78
   3   1 -11   66.92    8.20
   3  -1  11   78.48   12.65
  -3  -1 -11   76.70    8.69
  -3   1  11   39.86    8.36
   3  -3 -11   40.13    5.80
  -3  -3  11   33.57    5.34
   3   3  11   47.14    7.12
  -3   3 -11   47.75    6.75
   3   3  11   63.89    9.97
  -3  -3  11   50.50    9.73
  -3   3 -11   49.79    6.26
   3  -3 -11   62.57    7.87
   3   3 -11   46.20    6.89
   3  -3  11   52.13   10.69
  -3  -3 -11   47.80    6.81
  -3   3  11   57.81   10.06
  -3   5 -11   34.65    6.31
  -3  -5  11   57.97   10.96
   3  -5 -11   38.02    7.18
   3   5  11   43.05    7.96
  -3  -5  11   42.24    7.08
  -3   5 -11   33.28    5.87
  -3   5  11   39.27    8.85
   3  -5  11   35.86   10.14
  -3  -5 -11   39.49    6.73
   3   5 -11   38.11    7.07
  -3  -5 -11   38.65    6.10
  -3  -7  11   29.52    7.50
  -3   7 -11   32.78   10.38
   3   7  11   35.17    8.13
   3  -7 -11   26.19    6.53
  -3   7  11   28.19    8.68
   3  -7  11   22.14    8.43
  -3  -7 -11   32.60    6.95
   3   7 -11   26.18    6.89
   4   0  11    0.41    2.05
   4   0  11    1.20    3.21
   4   0 -11    0.43    2.03
  -4   0 -11   -2.09    1.41
  -4   0  11   -0.34    1.66
  -4   0  11    1.70    2.83
  -4   2 -11    0.58    1.78
   4   2  11    1.43    2.58
   4  -2 -11    2.06    1.98
   4  -2 -11   -3.47    1.28
  -4   2 -11    2.94    2.39
   4   2  11   -0.22    2.76
  -4  -2  11   -0.49    1.64
  -4  -2  11   -0.94    2.72
   4   2 -11   -2.63    1.48
   4  -2  11   -1.15    3.05
  -4   2  11    1.62    2.98
  -4  -2 -11    0.00    2.21
  -4   4 -11    1.28    2.34
   4   4  11   -0.77    2.59
   4  -4 -11    1.31    2.24
  -4   4 -11   -0.41    2.26
  -4  -4  11   -1.10    2.15
  -4  -4  11    1.89    3.33
   4   4  11    0.92    2.44
   4   4 -11    2.13    2.76
   4  -4  11    1.60    4.57
  -4   4  11    1.93    3.53
  -4  -4 -11   -1.67    1.94
   4  -6 -11    0.38    3.02
  -4   6 -11    0.80    2.46
  -4   6 -11    1.14    2.26
  -4  -6  11    0.61    3.23
   4   6  11   -1.34    2.83
  -4   6  11   -2.74    2.76
   4   6 -11   -2.91    2.61
   4  -6  11    2.92    4.42
  -4  -6 -11   -0.35    2.55
   5  -1 -11    8.18    3.29
   5   1  11   12.77    3.99
   5   1  11    6.90    4.77
  -5  -1  11   11.27    3.69
   5  -1 -11    6.71    3.32
  -5  -1  11   11.33    5.20
  -5   1 -11    6.36    3.09
  -5   1 -11    9.83    3.26
   5   1 -11    4.78    2.84
   5  -1  11   15.18    6.44
  -5   1  11   16.62    6.35
  -5  -1 -11    5.67    2.80
  -5  -3  11   22.79    7.07
  -5   3 -11   24.34    5.12
   5   3  11   24.72    5.93
   5  -3 -11   13.26    4.04
   5  -3 -11   18.07    3.98
  -5   3 -11   24.36    5.03
   5   3  11   12.21    5.17
  -5  -3  11   14.40    4.26
   5  -3  11    9.16    5.83
  -5  -3 -11   12.93    4.24
   5   3 -11   22.24    5.50
  -5   3  11   23.21    7.51
  -5   5 -11   21.67    5.26
  -5   5 -11   18.18    4.81
  -5  -5  11   13.33    5.78
  -5  -5  11   16.90    5.03
   5  -5 -11   25.53    6.05
   5   5  11   23.80    6.40
   5   5 -11   34.79    7.40
  -5  -5 -11   26.94    6.29
  -5   5  11   15.59    6.79
   5  -5  11   22.36    8.04
   6   0  11   -1.04    3.28
  -6   0 -11    1.21    2.27
  -6   0  11   -0.33    2.87
   6   0 -11   -1.65    1.73
  -6   0  11   -1.32    2.00
  -6   0 -11    0.32    2.20
   6  -2 -11    1.43    2.26
  -6  -2  11    4.85    4.05
  -6   2 -11    4.81    3.12
  -6   2 -11    0.91    2.15
  -6  -2  11    2.29    2.69
   6   2  11    3.72    2.86
   6  -2 -11    6.50    3.59
   6   2  11    1.96    3.62
   6   2 -11    0.63    2.45
   6  -2  11    2.22    4.03
  -6   2  11    4.25    3.66
  -6  -2 -11    0.29    2.16
  -6   4 -11    3.36    2.81
   6   4  11   -1.93    2.28
  -6   4 -11   -1.71    2.15
   6  -4 -11    0.18    2.39
  -6  -4  11    5.91    3.99
  -6  -4  11    1.63    2.85
   6  -4  11    1.35    3.99
  -6  -4 -11    1.83    2.74
  -6   4  11   -1.04    3.33
   6   4 -11    1.41    2.92
  -6  -6  11    8.79    4.73
   6   6  11   17.76    6.26
   6  -6 -11    6.25    3.80
  -6   6 -11    9.26    4.34
   6  -6  11   17.53    8.16
  -6   6  11    8.29    6.05
   6   6 -11   16.35    5.91
  -6  -6 -11    3.56    3.51
   7  -1 -11   18.71    4.86
  -7   1 -11   20.45    4.93
   7  -1 -11   35.64    6.12
   7   1  11   35.69    6.78
  -7  -1  11   18.68    7.00
  -7   1 -11   29.74    5.90
   7   1  11   21.52    7.26
  -7  -1  11   23.27    5.42
  -7  -1 -11   29.83    6.27
   7  -1  11   31.22    9.38
   7   1 -11   17.40    4.49
  -7   1  11   37.23    8.81
  -7  -3  11   78.29    9.86
   7   3  11   81.83   10.51
  -7   3 -11   84.57    9.44
  -7  -3  11   81.03   12.20
  -7   3 -11   74.77    9.40
   7  -3 -11   83.61    9.68
  -7   3  11   72.92   13.39
   7  -3  11   77.81   14.59
   7   3 -11   84.53   10.40
  -7  -3 -11   71.60    9.20
   7   5  11   49.76    9.36
  -7   5 -11   77.43   10.49
  -7  -5  11   83.29   11.65
   7  -5 -11   67.51    9.66
  -7   5 -11   60.07    7.90
   7  -5  11   31.95    8.91
  -7  -5 -11   68.58    9.84
   7   5 -11   59.16    9.29
  -7   5  11   56.81   12.05
  -8   0 -11   -1.90    1.91
   8   0 -11    1.67    2.31
  -8   0  11   -2.73    1.89
   8   0  11   -1.24    3.71
  -8   0 -11    0.92    2.63
  -8   0  11    1.16    3.39
   8   2  11    3.97    3.60
   8  -2 -11   -0.20    2.22
  -8   2 -11    2.81    2.84
  -8  -2  11    7.22    3.57
  -8  -2  11    4.73    4.90
  -8   2 -11    0.02    2.52
   8   2  11    3.84    4.54
   8  -2 -11    4.65    3.57
  -8  -2 -11    1.14    2.74
   8   2 -11    3.64    3.25
   8  -2  11    0.55    3.90
  -8   2  11   -0.48    3.38
  -8   4 -11   -0.45    2.06
   8   4  11   -0.55    2.97
  -8  -4  11   -1.44    2.57
   8  -4 -11    0.75    2.73
  -8   4 -11    2.44    2.80
  -8  -4  11   -1.60    3.09
   8   4 -11    1.57    3.50
  -8  -4 -11   -4.80    1.70
  -8   4  11    2.06    3.87
   8  -4  11   -1.57    3.56
   9  -1 -11   64.44    8.00
   9  -1 -11   49.26    8.11
  -9   1 -11   54.98    8.23
   9   1  11   47.98    9.85
  -9   1 -11   54.61    8.27
  -9  -1  11   54.90   10.86
   9   1  11   49.95    8.74
  -9  -1  11   51.15    8.52
  -9  -1 -11   41.73    7.54
   9   1 -11   61.69    8.47
  -9   1  11   53.50   11.34
   9  -1  11   45.66   11.31
   9  -3 -11   27.62    6.71
   9   3  11   20.24    6.65
  -9  -3  11   31.05    8.19
  -9  -3  11   27.10    6.61
  -9   3 -11   28.57    6.13
  -9   3 -11   22.81    5.74
   9  -3  11   12.75    6.71
  -9  -3 -11   24.73    6.10
  -9   3  11   34.06   10.65
   9   3 -11   29.21    6.78
  -9  -5  11   10.02    5.33
   9   5  11    6.35    5.10
   9  -5 -11   16.23    6.24
  -9   5 -11   22.41    6.47
  -9   5  11   15.37    7.33
   9   5 -11    8.85    5.35
   9  -5  11   10.56    6.09
  -9  -5 -11   13.85    5.09
  10   0  11   -3.78    3.44
 -10   0  11   -0.97    2.49
  10   0 -11    1.25    2.57
 -10   0 -11    0.01    2.59
 -10   0 -11    1.66    3.04
 -10   0  11   -0.78    3.29
 -10  -2  11    0.36    2.88
  10   2  11   -1.23    3.23
  10  -2 -11   -2.02    2.60
 -10   2 -11    0.87    2.81
 -10   2 -11   -0.51    2.12
 -10  -2  11    2.96    4.33
 -10  -2 -11   -0.05    2.38
 -10   2  11    3.40    4.57
  10   2 -11   -1.46    2.53
  10  -2  11    3.74    5.66
 -10   4 -11   -1.00    2.71
 -10  -4  11   -0.19    3.45
  10  -4 -11   -2.26    2.62
  10   4  11    4.62    4.69
 -10  -4 -11    5.82    3.72
 -10   4  11    2.10    5.08
  10   4 -11    1.08    3.46
  10  -4  11    0.41    4.21
 -11  -1  11    0.35    3.12
  11   1  11    2.90    3.57
 -11  -1  11    3.06    4.33
  11   1  11    2.79    5.26
  11  -1 -11    4.45    3.40
 -11   1 -11   -1.77    2.56
 -11   1 -11    1.20    2.85
  11   1 -11   -2.77    2.44
 -11  -1 -11    1.99    3.28
 -11   1  11    0.25    3.89
  11  -1  11   -3.11    3.44
 -11   3 -11    4.50    3.35
 -11  -3  11   -1.42    3.05
 -11   3 -11    1.30    3.25
  11  -3 -11    5.03    3.99
  11   3  11   -0.54    3.33
  11   3 -11    4.88    3.53
 -11   3  11    0.13    4.73
 -11  -3 -11   -0.96    2.78
  11  -3  11    2.51    4.58
 -12   0  11   -0.86    3.93
 -12   0 -11   -0.23    3.21
  12   0  11   -0.37    4.11
 -12   0 -11   -1.69    1.87
 -12   0  11    0.65    2.83
  12   0 -11    0.09    2.71
 -12  -2  11   -1.24    2.46
 -12  -2  11   -0.18    4.24
  12  -2 -11    3.52    3.65
 -12   2 -11    2.65    3.17
  12   2  11   -1.70    3.46
 -12   2 -11   -1.33    2.56
  12  -2  11   -0.93    3.98
 -12   2  11   -0.47    4.40
 -12  -2 -11    0.08    2.96
  12   2 -11    0.32    3.82
   0   0 -12  509.47   17.87
   0   0  12  493.97   23.90
   0   2  12   71.95   11.41
   0   2 -12   66.75    8.43
   0  -2 -12   59.06    6.52
   0  -2 -12   83.76    8.84
   0  -2  12   86.37   14.23
   0   4  12  352.56   19.42
   0  -4 -12  358.58   15.43
   0  -4  12  349.71   22.03
   0   4  12  347.18   16.14
   0   4 -12  356.93   16.64
   0  -4 -12  373.54   15.43
   0  -6  12   50.18   12.08
   0   6 -12   52.01    8.24
   0   6  12   40.72    7.76
   0  -6 -12   37.37    7.20
  -1  -1  12    0.35    1.55
  -1   1 -12   -1.09    1.68
   1   1  12   -1.62    2.82
   1  -1 -12    0.19    1.53
  -1  -1  12    0.75    3.20
   1  -1 -12    0.50    1.96
   1   1  12    1.03    2.75
   1  -1  12   -0.01    3.14
  -1  -1 -12    2.37    2.39
  -1   1  12    2.23    3.49
   1   1 -12   -0.53    1.83
   1  -3 -12   14.82    4.25
  -1  -3  12   16.12    6.56
   1   3  12   14.26    5.46
   1   3  12   16.87    4.58
  -1   3 -12   11.91    4.25
   1  -3 -12   14.53    3.80
  -1  -3 -12   17.49    3.86
  -1  -3 -12    8.64    3.60
  -1   3  12   19.32    6.54
   1   3 -12   13.90    4.29
   1  -3  12   21.18    7.56
   1   5  12   -3.06    2.44
  -1  -5  12   -2.45    3.44
  -1   5 -12   -0.77    1.81
   1   5  12    2.54    3.23
   1  -5 -12    0.27    2.27
   1   5 -12    3.25    3.22
  -1   5  12   -0.60    2.83
  -1  -5 -12    4.01    2.91
  -1  -5 -12   -1.69    1.75
   1  -5  12   -2.29    3.61
  -2   0 -12    2.74    2.68
  -2   0  12    6.80    4.80
   2   0 -12    1.78    2.52
   2   0  12   11.31    3.25
   2   0  12    7.27    4.75
   2   0 -12   10.98    3.27
  -2  -2  12   41.05    5.65
   2   2  12   49.36    6.88
   2  -2 -12   39.54    6.21
  -2  -2  12   63.45   11.91
   2  -2 -12   61.58    7.26
  -2   2 -12   44.58    6.81
   2   2  12   62.77   11.09
   2  -2  12   55.49   12.13
  -2  -2 -12   43.83    6.60
  -2   2  12   71.82   12.26
   2   2 -12   37.82    6.41
   2  -4 -12    1.31    2.64
   2   4  12    4.23    3.04
   2   4  12    1.78    3.90
  -2  -4  12   -0.56    3.43
  -2   4 -12   -0.37    2.12
  -2  -4  12    0.80    2.13
   2  -4 -12    4.17    2.84
  -2  -4 -12   -1.23    1.86
   2  -4  12    2.87    4.64
   2   4 -12    1.56    2.71
  -2   4  12    1.28    3.25
  -2   6 -12   33.68    6.92
   2  -6 -12   41.62    7.59
  -2  -6  12   23.75    8.81
   2   6  12   29.19    6.84
   2   6 -12   25.82    6.30
  -2  -6 -12   36.68    6.96
  -2   6  12   31.62    8.45
   2  -6  12   35.05    9.65
  -3   1 -12    0.12    1.72
   3  -1 -12    0.48    2.05
   3   1  12   -0.77    2.97
   3   1  12    2.51    2.49
  -3   1 -12   -0.12    1.95
  -3  -1  12    1.29    2.07
   3  -1 -12    1.73    2.13
  -3  -1  12    4.37    4.55
  -3   1  12   -0.03    3.56
  -3  -1 -12    1.74    2.31
   3   1 -12    1.95    2.46
   3  -1  12    2.05    3.81
   3   3  12   17.72    6.11
  -3  -3  12   10.04    3.41
   3  -3 -12   11.25    3.59
  -3   3 -12   12.77    4.05
  -3   3 -12    6.20    2.69
  -3  -3  12    6.30    4.45
   3   3  12    7.95    4.08
   3  -3 -12    9.18    3.52
   3   3 -12   13.65    4.51
  -3  -3 -12    4.08    3.10
  -3   3  12   10.16    4.76
   3  -3  12    4.57    4.69
  -3  -5  12   27.95    8.69
  -3   5 -12   20.57    5.17
  -3  -5  12   23.98    5.58
   3   5  12   31.18    7.16
   3  -5 -12   19.97    5.50
  -3   5  12   31.22    8.74
   3  -5  12   23.63    8.09
   3   5 -12   29.59    6.67
  -3  -5 -12   41.63    7.06
  -4   0 -12   11.69    3.99
   4   0 -12   12.71    3.95
   4   0  12    7.86    3.50
   4   0  12    4.54    4.97
  -4   0  12    9.27    3.47
  -4   0  12   10.28    5.11
  -4   2 -12   14.02    4.39
  -4  -2  12    8.56    3.44
   4  -2 -12   11.90    4.00
   4  -2 -12    7.17    2.93
  -4   2 -12   10.19    3.68
   4   2  12   16.66    6.00
   4   2  12   16.34    4.64
  -4  -2  12   10.56    5.59
  -4   2  12   15.60    6.04
  -4  -2 -12   16.65    4.81
   4   2 -12   11.47    4.07
   4  -2  12   24.34    8.36
  -4   4 -12   60.42    8.50
  -4  -4  12   49.49    7.59
   4   4  12   44.58    9.09
  -4   4 -12   44.94    6.97
  -4  -4  12   46.64    9.97
   4   4  12   40.35    7.72
   4  -4 -12   53.88    8.22
  -4  -4 -12   43.82    7.28
   4   4 -12   38.97    7.37
  -4   4  12   30.37    8.43
   4  -4  12   40.78   10.77
  -4   6 -12   11.70    4.13
  -4  -6  12   10.51    4.81
   4   6  12    9.25    5.20
  -4  -6  12    9.64    7.49
   4  -6 -12    5.21    4.17
   4  -6  12    9.12    6.82
  -4  -6 -12   10.29    4.33
   4   6 -12    9.16    4.31
  -4   6  12    2.97    4.81
  -5  -1  12   34.77    8.34
  -5  -1  12   32.20    5.73
   5   1  12   42.67   10.26
   5  -1 -12   37.92    6.50
  -5   1 -12   36.12    6.82
  -5   1 -12   29.29    5.51
   5   1  12   34.85    6.34
   5  -1 -12   20.53    4.63
  -5   1  12   40.04    9.77
  -5  -1 -12   36.94    6.32
   5   1 -12   52.64    8.05
   5  -1  12   51.35   10.97
  -5   3 -12   37.73    6.77
  -5  -3  12   36.75    6.49
   5  -3 -12   38.31    6.12
  -5   3 -12   30.74    5.79
   5   3  12   38.68    7.01
   5  -3 -12   23.11    5.38
   5   3  12   56.92   10.15
  -5  -3  12   45.05   10.24
   5  -3  12   34.84   10.14
  -5  -3 -12   44.44    7.75
  -5   3  12   41.06    9.91
   5   3 -12   36.04    7.25
  -5   5 -12    0.28    2.30
  -5   5 -12    1.01    2.81
   5  -5 -12    7.30    4.09
   5   5  12   -1.94    3.10
  -5  -5  12    4.50    4.59
  -5  -5  12    4.49    3.82
  -5   5  12   -1.43    3.35
   5   5 -12    5.73    3.95
  -5  -5 -12    1.88    3.16
   5  -5  12    1.04    5.31
   6   0  12  200.38   12.65
   6   0 -12  187.34   11.73
  -6   0  12  168.80   18.61
  -6   0  12  178.50   11.77
   6   0  12  150.11   17.48
  -6   0 -12  173.65   11.86
   6  -2 -12  210.41   12.93
   6  -2 -12  191.98   11.40
  -6  -2  12  208.54   16.51
  -6   2 -12  221.73   12.73
  -6  -2  12  202.89   12.41
  -6   2 -12  212.10   12.91
   6   2  12  207.42   15.88
   6   2  12  225.38   14.02
   6   2 -12  199.59   13.04
  -6  -2 -12  215.77   13.34
  -6   2  12  231.12   18.05
   6  -2  12  164.70   19.02
   6   4  12  122.03   13.03
   6  -4 -12  127.72   13.08
  -6  -4  12  160.38   14.61
  -6  -4  12  123.58   16.06
  -6   4 -12  140.34   12.87
  -6   4 -12  125.60   11.95
   6   4 -12  151.03   14.92
   6  -4  12   81.53   14.21
  -6  -4 -12  124.93   12.30
  -6   4  12  137.55   17.91
  -6  -6  12  111.63   13.55
  -6   6 -12  132.41   13.23
   6   6  12  149.01   16.31
   6  -6 -12  128.22   14.37
  -6   6  12  136.57   18.84
  -6  -6 -12  134.83   13.59
   6   6 -12  132.95   15.07
   7   1  12   25.52    6.02
  -7   1 -12   32.50    6.66
  -7   1 -12   32.30    6.54
   7  -1 -12   43.18    7.31
  -7  -1  12   47.42   10.72
  -7  -1  12   27.53    6.09
   7  -1 -12   34.53    6.32
   7   1  12   35.85    9.06
   7  -1  12   20.65    7.86
  -7   1  12   29.56    9.15
  -7  -1 -12   24.46    5.65
   7   1 -12   27.85    6.03
  -7  -3  12    5.61    5.05
   7  -3 -12   10.36    4.23
   7   3  12    0.72    3.02
  -7   3 -12    5.00    3.29
  -7  -3  12    4.92    3.42
  -7   3 -12   11.29    4.14
   7  -3  12    0.60    4.36
   7   3 -12   -0.85    2.55
  -7  -3 -12    2.10    2.84
  -7   3  12    0.17    4.09
   7  -5 -12   37.03    8.21
  -7  -5  12   37.17    8.03
  -7   5 -12   37.27    7.52
  -7   5 -12   41.47    7.32
   7   5  12   44.44    9.20
   7   5 -12   34.08    7.22
  -7  -5 -12   42.53    8.14
  -7   5  12   29.50   10.15
   7  -5  12   17.42    7.53
   8   0  12   17.28    5.39
   8   0  12   11.05    6.09
  -8   0  12   25.00    6.22
  -8   0  12   18.85    6.99
  -8   0 -12   25.84    5.91
   8   0 -12   25.97    5.78
  -8  -2  12   25.12    8.24
   8   2  12   13.46    5.17
   8  -2 -12   10.80    4.34
  -8   2 -12   15.56    4.87
  -8   2 -12   11.75    4.46
  -8  -2  12    8.67    3.89
   8   2  12   25.59    8.43
  -8   2  12   18.23    7.99
  -8  -2 -12   22.90    5.74
   8  -2  12    3.13    4.66
   8   2 -12   13.60    4.94
  -8   4 -12    9.49    4.04
  -8  -4  12   10.95    5.79
   8  -4 -12   10.27    4.92
   8   4  12    5.55    4.26
  -8   4 -12    8.82    4.23
  -8  -4  12    2.38    3.49
  -8   4  12    5.68    5.22
   8   4 -12   17.53    5.94
   8  -4  12    1.90    4.61
  -8  -4 -12   17.67    5.84
   9  -1 -12   28.98    6.18
   9  -1 -12   27.75    6.52
   9   1  12   38.67   10.09
   9   1  12   28.34    6.96
  -9   1 -12   24.79    6.06
  -9  -1  12   30.40    8.73
  -9  -1  12   34.10    7.23
  -9   1 -12   23.59    5.83
  -9   1  12   24.56    8.38
  -9  -1 -12   27.95    6.90
   9   1 -12   22.83    5.68
   9  -1  12   17.33    7.00
   9   3  12   31.13    7.63
  -9  -3  12   32.87    7.54
   9  -3 -12   38.07    7.76
  -9   3 -12   27.28    6.48
  -9   3 -12   13.50    4.60
  -9  -3  12   22.72    7.78
   9   3 -12   27.70    6.82
   9  -3  12    9.01    6.21
  -9   3  12   38.99   11.16
  -9  -3 -12   31.66    7.61
  10   0 -12    0.93    2.95
  10   0  12   -2.16    3.29
 -10   0  12   -1.64    3.31
  10   0  12   -3.65    2.30
 -10   0  12    1.53    3.03
 -10   0 -12   -1.15    2.35
 -10   2 -12    3.74    3.27
  10   2  12   17.48    6.38
 -10   2 -12   10.77    4.77
  10  -2 -12    9.37    4.63
 -10  -2  12    9.23    5.79
 -10  -2  12   13.47    4.89
 -10   2  12   24.43    8.63
 -10  -2 -12    5.22    3.53
  10  -2  12    2.13    4.38
  10   2 -12   12.24    4.74
 -11  -1  12    4.42    3.80
 -11   1 -12   11.00    5.03
 -11  -1  12    2.63    5.24
 -11   1 -12    4.56    3.36
  11   1  12    2.71    3.42
  11  -1 -12   -0.28    2.87
 -11  -1 -12    2.41    2.90
  11   1 -12    4.04    3.46
 -11   1  12    6.71    6.14
  11  -1  12    4.22    5.03
   0   0  13   -1.03    2.90
   0   0 -13    0.24    2.03
   0  -2  13   21.23    8.16
   0   2 -13   10.03    3.60
   0   2  13    1.20    3.74
   0  -2 -13    2.02    2.65
   0   4  13   10.18    5.46
   0  -4 -13    8.24    3.67
   0  -4 -13    4.22    2.59
   0  -4  13    3.84    5.26
   0   4 -13    2.05    3.06
   0   6 -13   -1.35    2.76
   0  -6  13   -1.90    4.16
   0  -6 -13    1.47    3.29
   1   1  13   25.05    7.95
  -1   1 -13   13.34    4.21
   1  -1 -13   15.65    3.77
  -1  -1  13   13.48    6.36
   1  -1 -13   17.35    4.50
   1  -1  13   18.32    7.45
  -1   1  13   11.48    5.62
  -1  -1 -13   22.92    5.22
   1   1 -13   13.42    4.37
   1  -3 -13    8.09    3.31
   1  -3 -13    9.97    3.68
  -1   3 -13    7.81    4.24
   1   3  13    9.92    5.60
  -1  -3  13   11.58    7.18
   1  -3  13   10.25    6.61
  -1   3  13   15.99    6.49
  -1  -3 -13    7.07    3.56
   1   3 -13   12.04    4.14
   1  -5 -13    5.64    3.47
   1   5  13    0.36    3.44
  -1   5 -13   -0.55    2.69
  -1  -5  13   -2.07    3.58
   1  -5  13    7.91    6.13
  -1  -5 -13    7.04    3.76
  -1   5  13   10.78    5.68
   1   5 -13   -2.61    2.10
   2   0 -13    1.09    2.16
  -2   0  13   -0.97    2.81
   2   0 -13    0.12    2.27
  -2   0 -13   -1.04    1.98
   2   0  13   -2.03    3.34
   2  -2 -13   -0.81    1.99
   2  -2 -13   -2.79    1.56
   2   2  13    0.38    3.61
  -2  -2  13   -0.19    3.08
  -2   2 -13    3.55    2.84
   2  -2  13   -0.09    4.18
  -2  -2 -13   -0.32    2.19
  -2   2  13    0.80    3.07
   2   2 -13   -1.71    1.62
  -2   4 -13   11.10    3.98
   2   4  13    9.39    5.01
   2  -4 -13    6.39    3.42
   2  -4 -13    9.49    3.69
   2   4  13    3.29    3.31
  -2  -4  13   19.02    7.82
   2  -4  13   10.20    6.81
  -2  -4 -13   11.96    4.11
  -2   4  13    6.44    4.69
   2   4 -13   13.25    4.81
   2   6  13   27.58    6.98
   2  -6 -13   31.48    7.16
  -2  -6  13   27.12    8.90
  -2   6 -13   22.29    6.05
  -2   6  13   19.35    7.50
   2   6 -13   24.08    6.34
   2  -6  13   15.47    8.18
   3  -1 -13  235.27   12.86
  -3  -1  13  224.76   11.66
  -3  -1  13  207.79   16.94
  -3   1 -13  199.70   12.58
   3  -1 -13  229.01   12.05
   3   1  13  208.43   16.65
   3   1  13  224.44   12.37
  -3   1  13  200.73   16.75
   3   1 -13  219.98   13.07
  -3  -1 -13  209.19   12.89
   3  -1  13  223.60   18.53
  -3  -3  13  279.49   19.67
   3  -3 -13  236.82   13.37
   3  -3 -13  261.95   13.20
   3   3  13  264.02   17.73
  -3  -3  13  230.56   12.24
   3   3  13  230.11   14.06
  -3   3 -13  237.60   13.98
   3   3 -13  247.82   14.72
   3  -3  13  272.39   20.83
  -3  -3 -13  263.72   14.68
  -3   3  13  240.52   18.13
  -3  -5  13  211.00   17.60
   3  -5 -13  216.32   14.25
   3   5  13  217.29   15.08
  -3   5 -13  213.40   13.69
   3   5 -13  198.54   14.30
  -3  -5 -13  205.97   13.30
  -3   5  13  219.58   17.58
  -4   0 -13    1.00    2.31
   4   0 -13   -1.76    1.72
  -4   0  13   -1.08    3.41
   4   0  13    2.38    2.76
   4   0  13    2.24    4.11
   4   0 -13    2.28    2.40
   4   2  13   -0.62    2.49
  -4   2 -13   -1.72    1.96
   4  -2 -13    2.15    2.32
   4   2  13   -0.69    3.48
  -4  -2  13    1.64    3.73
  -4   2 -13    0.59    2.36
  -4  -2  13    2.82    2.61
   4  -2 -13   -0.02    2.11
   4   2 -13   -0.79    2.11
  -4  -2 -13   -2.83    2.13
   4  -2  13   -1.62    3.79
  -4   2  13   -1.56    2.82
   4  -4 -13   13.00    4.69
   4   4  13   10.18    5.77
   4   4  13   13.33    5.33
  -4  -4  13    9.67    4.01
  -4   4 -13    5.77    3.35
  -4  -4  13    6.01    4.82
  -4  -4 -13    6.47    3.74
   4   4 -13    2.28    2.87
   4  -4  13    3.87    5.24
  -4   4  13   15.87    6.38
   5   1  13   26.59    6.13
  -5  -1  13   23.50    5.46
   5   1  13   18.09    7.60
   5  -1 -13   20.78    5.14
  -5  -1  13   19.53    7.31
  -5   1 -13   18.70    4.66
  -5   1 -13   11.56    4.13
   5  -1 -13   21.19    5.16
   5   1 -13   24.45    6.15
  -5   1  13    9.94    6.14
  -5  -1 -13   23.29    5.41
   5  -1  13   20.39    7.99
   5  -3 -13   26.08    5.50
   5   3  13   26.86    6.60
   5  -3 -13   25.47    5.88
  -5   3 -13   26.23    5.65
   5   3  13   29.99    8.24
  -5   3 -13   20.10    5.11
  -5  -3  13   16.99    4.74
  -5  -3  13   36.10    9.18
   5  -3  13   17.67    6.94
  -5   3  13   26.97    9.05
  -5  -3 -13   37.96    7.17
   5   3 -13   39.18    7.90
   5   5  13   20.98    6.83
  -5  -5  13   22.27    8.02
  -5  -5  13   30.94    6.96
  -5   5 -13   11.29    4.33
   5  -5 -13   13.67    5.29
   5  -5  13   21.25    8.55
   5   5 -13   19.82    6.25
  -5  -5 -13    8.49    4.19
  -5   5  13   25.86    8.99
  -6   0 -13    4.44    3.21
  -6   0  13   -2.91    2.29
  -6   0  13    5.69    4.80
   6   0  13   -2.42    2.08
   6   0  13    0.45    3.62
   6   0 -13   -0.17    2.35
   6  -2 -13    0.80    2.47
  -6  -2  13    5.20    3.28
  -6   2 -13   -0.66    2.24
   6   2  13   -2.71    2.88
  -6  -2  13    4.48    5.18
  -6   2 -13    3.30    2.85
   6   2  13    1.45    3.25
   6  -2 -13    4.81    3.24
   6   2 -13    0.26    2.49
   6  -2  13    0.62    4.42
  -6   2  13    0.23    3.81
  -6  -2 -13    2.55    2.61
  -6   4 -13    3.83    3.19
   6   4  13    5.23    4.02
  -6  -4  13    2.45    3.30
  -6  -4  13   -2.09    3.61
  -6   4 -13   -0.52    2.69
   6  -4 -13    1.11    3.25
  -6   4  13    3.16    4.97
  -6  -4 -13    0.20    2.52
   6   4 -13    8.65    4.65
   6  -4  13    3.10    5.53
   7   1  13   12.33    4.68
  -7   1 -13    1.13    3.19
  -7  -1  13   15.08    6.91
  -7  -1  13   11.29    4.39
   7  -1 -13    5.11    3.43
   7   1  13    6.58    5.68
   7  -1 -13   10.55    4.23
  -7   1 -13    6.01    3.58
  -7   1  13   -1.23    3.53
  -7  -1 -13    0.46    2.69
   7  -1  13    5.27    4.89
   7   1 -13    9.38    4.39
   7   3  13   -2.25    2.80
  -7   3 -13    2.55    2.77
   7  -3 -13    5.50    3.97
  -7   3 -13   -0.29    2.39
  -7  -3  13    0.52    4.37
  -7  -3  13    1.27    3.07
   7   3 -13   -0.11    3.12
  -7   3  13   -1.09    4.75
   7  -3  13   -2.77    3.51
  -7  -3 -13   -0.06    2.88
   8   0  13    2.37    3.12
  -8   0 -13    1.49    2.77
   8   0 -13   -0.11    2.88
  -8   0  13    0.07    2.85
   8   0  13   -0.04    3.87
  -8   0  13    0.71    4.44
  -8   2 -13    0.94    3.10
   8  -2 -13    9.63    4.25
   8   2  13    7.13    5.04
  -8   2 -13    7.45    3.83
   8   2  13    0.97    4.79
  -8  -2  13    0.93    4.47
  -8  -2  13    3.97    3.14
   8   2 -13    2.19    3.46
   8  -2  13   11.26    6.87
  -8  -2 -13    1.19    3.20
  -8   2  13    5.01    5.65
   8  -4 -13    0.13    3.25
  -8   4 -13    2.67    3.50
   8   4  13    7.68    4.67
  -8   4 -13    4.73    3.94
  -8  -4  13   10.49    6.04
  -8  -4  13    9.39    4.51
  -8  -4 -13    7.62    4.80
   8  -4  13    1.41    4.75
   8   4 -13   -0.75    3.35
  -8   4  13   12.16    8.08
  -9   1 -13  166.36   14.72
   9   1  13  179.34   20.56
   9  -1 -13  194.56   12.70
  -9  -1  13  180.03   16.15
   9   1  13  185.05   17.07
  -9  -1  13  180.52   20.79
   9  -1 -13  161.38   15.04
  -9   1 -13  184.09   13.75
  -9  -1 -13  161.66   15.21
   9   1 -13  178.70   15.63
  -9   1  13  192.17   21.92
  -9   3 -13  163.10   14.75
  -9   3 -13  187.96   13.92
  -9  -3  13  178.70   20.38
   9  -3 -13  196.42   14.61
  -9  -3  13  171.22   16.02
   9   3  13  187.86   17.92
  -9  -3 -13  164.92   16.01
   9   3 -13  164.00   15.71
  -9   3  13  184.95   23.30
 -10   0  13    2.43    3.31
  10   0  13    0.25    4.15
  10   0  13   -4.66    2.14
 -10   0 -13    0.70    3.06
  10   0 -13   -1.73    2.94
 -10   0  13   -1.95    3.76
 -10  -2  13   -1.45    2.60
 -10   2 -13   -1.26    2.51
  10  -2 -13    0.71    3.45
 -10   2 -13   -0.13    2.95
 -10  -2  13    0.90    4.12
  10   2  13   -0.25    3.61
 -10  -2 -13    2.03    3.56
  10   2 -13   -3.78    2.52
  10  -2  13   -2.72    5.05
 -10   2  13    0.35    4.41
   0   0 -14   75.13    9.25
   0   0  14   71.30   13.18
   0   2 -14  206.57   13.44
   0  -2 -14  203.07   12.84
   0  -2  14  214.73   24.11
   0   2  14  236.27   17.99
   0   4 -14    6.79    4.11
   0  -4 -14   10.09    4.11
   0  -4  14    5.95    5.13
   0   4  14    3.89    4.00
  -1   1 -14    3.71    3.05
  -1  -1  14    7.20    5.84
   1   1  14   14.16    6.44
   1  -1 -14   -2.20    1.97
   1  -1  14   11.74    6.12
  -1   1  14    4.23    4.35
   1   1 -14    6.18    3.45
  -1  -1 -14    2.27    2.68
  -1   3 -14    7.53    3.64
  -1  -3  14    5.53    5.31
   1   3  14    7.32    5.43
   1  -3 -14    5.31    3.31
   1   3 -14    2.18    3.08
  -1  -3 -14    4.08    3.33
   1  -3  14    1.55    4.78
  -1   3  14    2.56    4.17
   1   5  14    2.40    4.11
  -1   5 -14   -1.63    2.54
  -1  -5  14    1.86    5.20
   1  -5 -14   -0.77    2.89
  -1  -5 -14    0.72    2.74
   1   5 -14    0.07    3.20
  -1   5  14   -1.59    3.66
   1  -5  14    0.11    4.76
   2   0  14   24.81    7.87
  -2   0 -14   21.85    5.34
  -2   0  14   40.26    9.73
   2   0 -14   33.11    6.72
  -2  -2  14   26.42    8.37
   2  -2 -14   30.28    6.09
   2  -2 -14   27.42    5.40
   2   2  14   34.93    9.25
  -2   2 -14   26.02    5.69
   2   2 -14   43.09    8.32
   2  -2  14   31.77   10.79
  -2   2  14   45.37   10.64
  -2  -2 -14   41.26    6.96
   2   4  14   13.41    6.25
   2  -4 -14   16.22    4.68
   2  -4 -14    7.93    3.95
  -2   4 -14    4.84    3.59
  -2  -4  14    6.80    5.83
  -2   4  14    5.87    5.03
   2  -4  14   12.80    7.53
  -2  -4 -14   12.56    4.66
   2   4 -14    9.54    4.49
  -3  -1  14   21.12    8.35
   3   1  14   14.94    7.08
   3  -1 -14   17.79    4.84
   3  -1 -14   15.83    4.30
  -3   1 -14    4.89    2.99
  -3  -1 -14   13.94    4.70
   3   1 -14   14.16    4.81
   3  -1  14    2.23    4.19
  -3   1  14   25.17    8.48
   3  -3 -14   14.48    4.31
   3  -3 -14    6.14    3.58
  -3  -3  14    5.93    5.34
  -3   3 -14    8.51    4.18
   3   3  14   21.31    7.40
   3   3 -14    9.21    4.39
   3  -3  14    8.64    5.89
  -3   3  14   16.07    7.21
  -3  -3 -14    9.22    4.27
   3  -5 -14   10.34    4.62
  -3  -5  14    3.39    5.47
  -3   5 -14   14.15    4.87
   3   5  14   12.58    5.33
   3   5 -14    2.65    3.44
  -3   5  14    2.57    4.52
  -3  -5 -14    9.63    4.71
   3  -5  14    3.96    5.89
   4   0 -14   25.21    5.76
   4   0  14   25.47    9.43
   4   0 -14   25.34    5.24
  -4   0  14   27.46    9.69
  -4   0 -14   20.02    5.55
  -4  -2  14    2.15    2.52
   4  -2 -14   -2.76    2.03
   4  -2 -14   -2.60    1.87
  -4   2 -14   -2.29    2.42
  -4  -2  14    5.11    5.31
   4   2  14    4.37    4.29
   4   2  14    0.97    2.88
   4   2 -14   -0.61    2.36
  -4   2  14    0.71    3.51
  -4  -2 -14   -1.01    2.32
   4  -2  14    0.00    4.29
  -4   4 -14   20.58    5.72
   4   4  14   10.22    4.95
  -4  -4  14   18.75    8.03
   4  -4 -14   22.07    6.04
   4   4 -14   22.42    6.52
  -4  -4 -14   25.83    6.57
   4  -4  14   15.97    7.76
  -4   4  14   14.06    6.40
   5  -1 -14   26.70    5.83
  -5   1 -14   11.84    4.90
  -5  -1  14   11.60    6.68
   5  -1 -14   21.71    5.48
   5   1  14   17.80    5.08
  -5  -1  14   20.41    4.86
   5   1  14   17.17    7.43
   5   1 -14   16.51    5.37
   5  -1  14   13.72    7.17
   5  -1  14   14.21    5.51
  -5   1  14   15.16    6.13
  -5  -1 -14   35.62    7.53
  -5   3 -14   -0.02    2.96
   5   3  14    1.36    3.87
   5   3  14    1.72    3.37
   5  -3 -14    1.64    2.86
  -5  -3  14    1.52    2.80
  -5  -3  14    4.24    4.95
  -5   3  14   -2.10    3.69
  -5  -3 -14    7.62    4.03
   5  -3  14    2.77    5.48
   5   3 -14    4.02    3.63
  -6   0 -14  185.16   13.43
  -6   0  14  182.16   21.95
   6   0 -14  173.35   12.41
   6   0  14  196.39   13.35
   6   0 -14  176.07   12.30
   6   0  14  172.89   21.38
   6  -2 -14   60.20    8.16
   6  -2 -14   65.61    9.62
  -6  -2  14   47.37   11.30
   6   2  14   64.07    9.66
  -6  -2  14   59.28    8.53
  -6   2 -14   53.52    8.56
   6   2  14   68.86   12.71
  -6   2 -14   63.25    8.93
  -6   2  14   60.50   12.85
   6  -2  14   46.29   11.47
   6   2 -14   68.02    9.87
  -6  -2 -14   60.32    9.16
  -6  -4  14   83.54   10.92
   6  -4 -14   66.39   10.52
  -6  -4  14   73.63   13.48
  -6   4 -14   77.28   10.38
   6   4  14   63.55   10.89
   6   4 -14   76.33   11.14
   6  -4  14   39.10   10.63
  -6  -4 -14   91.06   12.04
  -6   4  14   82.44   14.93
   7  -1 -14    8.80    4.36
  -7  -1  14    9.13    6.00
  -7   1 -14   12.28    4.47
   7   1  14    5.95    3.62
  -7   1 -14    7.12    4.03
   7  -1 -14    7.95    3.91
  -7  -1  14   11.27    4.59
   7   1  14    7.10    5.60
   7  -1  14    3.99    5.62
  -7   1  14    9.66    6.21
  -7  -1 -14   21.72    6.12
   7   1 -14    7.40    4.25
   7   3  14   61.17   10.20
  -7  -3  14   60.61    9.10
  -7   3 -14   57.03    8.91
   7  -3 -14   72.16   10.58
  -7   3 -14   65.48    9.74
  -7  -3  14   42.31   10.40
   7  -3  14   21.68    7.66
   7   3 -14   76.37   11.37
  -7  -3 -14   60.97    9.98
  -7   3  14   54.77   13.15
   8   0 -14   16.96    5.36
  -8   0 -14   15.12    5.25
   8   0  14   11.09    4.80
   8   0  14   15.16    7.28
   8   0 -14   10.94    4.79
  -8   0  14   10.79    6.84
   8   2  14   -0.97    3.18
   8  -2 -14   -1.73    2.48
  -8   2 -14    0.37    3.18
  -8   2 -14   -2.24    2.74
   8   2  14   -0.76    4.25
  -8  -2  14   -0.85    3.97
  -8  -2  14   -3.07    2.30
   8   2 -14   -3.83    2.51
  -8  -2 -14   -0.97    3.07
  -8   2  14    0.79    4.30
   8  -2  14    2.09    5.08
  -9   1 -14   19.64    6.12
   9   1  14   19.13    6.01
  -9  -1  14   14.20    5.69
  -9  -1  14   18.54    7.38
   9   1  14   13.88    7.96
  -9   1 -14   14.35    5.48
   9  -1 -14   12.10    4.64
   9  -1 -14   23.61    6.75
  -9  -1 -14   23.85    6.66
   9  -1  14   12.83    7.76
   9   1 -14   11.11    5.22
  -9   1  14   24.73    9.08
   0   0 -15    3.16    2.97
   0   0  15   -0.29    3.66
   0   2  15   -1.00    3.29
   0   2 -15   -0.28    2.50
   0  -2  15   -0.26    4.26
   0  -2 -15    0.92    2.57
   0  -4  15    0.06    4.47
   0  -4 -15    3.82    3.64
   0   4 -15    3.77    3.86
   0   4  15    2.71    4.63
  -1   1 -15   74.39    9.95
  -1  -1  15   74.65   13.29
   1   1  15   79.55   13.91
   1  -1 -15   71.91    9.64
   1  -1  15   83.33   15.50
  -1   1  15   69.41   13.12
  -1  -1 -15   70.74    9.50
   1   1 -15   89.94   10.51
  -1   3 -15   54.06    8.50
   1  -3 -15   62.53    9.03
   1   3  15   68.64   12.92
  -1  -3  15   79.48   14.73
  -1  -3 -15   67.43    9.85
   1   3 -15   69.08   10.49
  -1   3  15   65.43   13.28
   1  -3  15   73.59   15.05
  -2   0 -15    0.30    2.75
   2   0  15   -1.36    3.74
   2   0 -15    0.35    2.37
  -2   0  15    1.03    3.74
  -2   2 -15    2.45    3.34
  -2  -2  15   -1.96    4.21
   2  -2 -15    5.03    3.72
   2   2  15    1.17    3.89
   2  -2  15   12.09    7.63
  -2  -2 -15    1.34    2.68
  -2   2  15    4.29    4.53
   2   2 -15    7.92    4.11
   2   4  15    4.23    4.64
  -2  -4  15    0.78    4.80
  -2   4 -15    2.65    3.25
  -2   4  15    1.30    4.13
   2   4 -15    8.82    4.41
  -2  -4 -15    2.13    3.00
   2  -4  15    6.16    6.03
  -3  -1  15    1.68    4.94
  -3   1 -15    0.88    2.46
   3  -1 -15    4.26    3.21
   3   1  15   -1.32    3.36
   3  -1  15    2.21    4.59
   3   1 -15    3.63    3.22
  -3   1  15    4.00    4.93
  -3  -1 -15    7.92    4.00
   3  -3 -15   17.50    5.27
  -3   3 -15    7.50    4.00
   3  -3 -15   17.82    5.17
  -3  -3  15   13.47    7.32
   3   3  15   12.74    6.11
  -3  -3 -15   16.19    5.25
  -3   3  15   10.89    5.93
   3  -3  15    7.76    6.58
   3   3 -15    7.42    4.26
  -4   0 -15   -1.69    2.02
   4   0 -15    0.01    2.61
  -4   0  15   -0.55    4.79
   4   0 -15    0.41    3.38
   4   0  15   -1.52    3.86
  -4  -2  15    9.19    7.07
  -4   2 -15    8.26    4.19
   4  -2 -15    8.13    3.88
   4  -2 -15    9.60    3.87
   4   2  15    6.85    5.76
   4  -2  15    6.44    6.44
  -4   2  15    8.77    5.38
   4   2 -15    7.58    4.19
  -4  -2 -15    5.02    4.04
  -5  -1  15   73.38    9.62
  -5  -1  15   50.26   12.15
   5   1  15   45.32   10.79
   5  -1 -15   55.89    8.69
  -5   1 -15   54.10    8.85
   5  -1 -15   63.14    8.78
   5   1 -15   52.65    8.76
  -5   1  15   67.31   13.55
   5  -1  15   49.91   12.95
  -5  -1 -15   53.80    9.02
  -5  -3  15   27.87    9.45
   5  -3 -15   26.56    6.56
   5   3  15   32.30    9.71
  -5   3 -15   27.92    6.73
  -5  -3 -15   23.45    6.10
   5   3 -15   22.84    6.76
   5  -3  15   30.09   10.85
  -5   3  15   32.01    9.99
   6   0 -15    0.69    3.12
   6   0  15    0.70    4.38
   6   0 -15   -1.14    2.49
  -6   0 -15   -0.38    2.77
  -6   0  15   -3.37    3.38
   6  -2 -15    0.58    2.92
   6   2  15    5.10    4.24
  -6  -2  15   -3.19    3.99
   6  -2 -15    6.48    3.68
  -6   2 -15   -2.06    2.60
   6   2  15   -4.17    3.07
  -6  -2  15    0.05    2.69
  -6  -2 -15    2.74    3.29
   6  -2  15    2.54    4.66
  -6   2  15    5.11    5.11
   6   2 -15   -0.76    2.84
   7   1  15   73.04   10.13
   7  -1 -15  100.45   11.79
   7  -1 -15   90.80   11.67
  -7  -1  15   59.42    9.36
   7   1  15   74.51   15.32
  -7  -1  15   84.22   15.24
  -7   1 -15   80.29   11.00
   7  -1  15  103.30   12.43
   7  -1  15   39.35   10.37
  -7   1  15   95.13   16.99
  -7  -1 -15   81.95   11.56
   7   1 -15   92.25   11.82
   0   0 -16   40.12    7.57
   0   0  16   27.01    9.27
   0   2  16   13.14    7.11
   0  -2  16   31.26   10.13
   0   2 -16   27.78    6.50
   0  -2 -16   32.12    7.28
  -1   1 -16   -3.35    2.07
   1   1  16    1.92    5.09
   1  -1 -16    4.33    3.90
  -1  -1  16    0.66    4.94
   1   1 -16   -0.04    3.06
   1  -1  16   -0.77    4.13
  -1   1  16   -2.87    3.38
  -1  -1 -16    3.69    3.36
   2   0 -16  188.55   16.09
  -2   0  16  190.52   24.78
   2   0  16  172.35   23.24
  -2   0 -16  175.43   15.81
   2  -2 -16   35.11    7.30
  -2   2 -16   49.68    8.78
  -2  -2  16   47.05   13.14
   2   2  16   37.09   10.34
  -2  -2 -16   38.80    7.61
  -2   2  16   49.73   12.37
   2  -2  16   51.36   13.48
   2   2 -16   40.85    7.89
   3  -1 -16    1.83    3.12
  -3  -1  16   -0.79    4.43
   3   1  16    2.05    3.97
  -3   1 -16    0.34    2.99
   3  -1  16   -0.10    3.94
  -3   1  16   -0.83    4.02
   3   1 -16   -0.12    2.79
  -3  -1 -16   -0.56    2.74
  -4   0 -16   70.67   10.11
   4   0  16   53.40   12.56
  -4   0  16   71.95   14.92
   4   0 -16   70.68   10.26
   0   0   0    0.00    0.00
;
_shelx_hkl_checksum              40088
loop_
_space_group_symop_operation_xyz
'x, y, z'
'-x, -y, z+1/2'
'-x, y, -z+1/2'
'x, -y, -z'
'x+1/2, y+1/2, z'
'-x+1/2, -y+1/2, z+1/2'
'-x+1/2, y+1/2, -z+1/2'
'x+1/2, -y+1/2, -z'
'-x, -y, -z'
'x, y, -z-1/2'
'x, -y, z-1/2'
'-x, y, z'
'-x+1/2, -y+1/2, -z'
'x+1/2, y+1/2, -z-1/2'
'x+1/2, -y+1/2, z-1/2'
'-x+1/2, y+1/2, z'
loop_
_atom_site_label
_atom_site_type_symbol
_atom_site_fract_x
_atom_site_fract_y
_atom_site_fract_z
_atom_site_U_iso_or_equiv
_atom_site_adp_type
_atom_site_occupancy
_atom_site_site_symmetry_order
_atom_site_calc_flag
_atom_site_refinement_flags_posn
_atom_site_refinement_flags_adp
_atom_site_refinement_flags_occupancy
Rb1 Rb 0.21608(6) 0.0000 0.0000 0.0086(2) Uani 1 2 d S T P
Mg1 Mg 0.1395(2) 0.3734(4) 0.2500 0.0069(6) Uani 1 2 d S T P
Mg2 Mg 0.0000 0.6388(4) 0.1121(2) 0.0061(6) Uani 1 2 d S T P
Mg3 Mg 0.0000 0.0018(6) 0.2500 0.0082(9) Uani 1 4 d S T P
Sb1 Sb 0.33990(4) 0.24637(7) 0.2500 0.00484(15) Uani 1 2 d S T P
Sb2 Sb 0.0000 0.26512(7) 0.09321(4) 0.00478(15) Uani 1 2 d S T P
loop_
_atom_site_aniso_label
_atom_site_aniso_U_11
_atom_site_aniso_U_22
_atom_site_aniso_U_33
_atom_site_aniso_U_23
_atom_site_aniso_U_13
_atom_site_aniso_U_12
Rb1 0.0089(4) 0.0078(4) 0.0090(4) 0.0007(3) 0.000 0.000
Mg1 0.0072(15) 0.0070(15) 0.0064(15) 0.000 0.000 -0.0008(12)
Mg2 0.0067(15) 0.0061(15) 0.0056(14) -0.0006(11) 0.000 0.000
Mg3 0.009(2) 0.006(2) 0.010(2) 0.000 0.000 0.000
Sb1 0.0041(3) 0.0050(3) 0.0054(3) 0.000 0.000 0.0006(2)
Sb2 0.0060(3) 0.0044(3) 0.0039(3) 0.0000(2) 0.000 0.000
loop_
_atom_type_symbol
_atom_type_description
_atom_type_scat_dispersion_real
_atom_type_scat_dispersion_imag
_atom_type_scat_source
Mg Mg 0.0486 0.0363 'International Tables Vol C Tables 4.2.6.8 and 6.1.1.4'
Rb Rb -0.9393 2.9676 'International Tables Vol C Tables 4.2.6.8 and 6.1.1.4'
Sb Sb -0.5866 1.5461 'International Tables Vol C Tables 4.2.6.8 and 6.1.1.4'
loop_
_geom_angle_atom_site_label_1
_geom_angle_atom_site_label_2
_geom_angle_atom_site_label_3
_geom_angle
_geom_angle_site_symmetry_1
_geom_angle_site_symmetry_3
Sb2 Rb1 Sb2 80.90(7) 9 .
Sb2 Rb1 Sb1 82.26(4) 9 13
Sb2 Rb1 Sb1 81.33(5) . 13
Sb2 Rb1 Sb1 81.33(5) 9 7_545
Sb2 Rb1 Sb1 82.26(4) . 7_545
Sb1 Rb1 Sb1 158.38(4) 13 7_545
Sb2 Rb1 Mg1 120.11(6) 9 7_545
Sb2 Rb1 Mg1 103.49(6) . 7_545
Sb1 Rb1 Mg1 157.48(5) 13 7_545
Sb1 Rb1 Mg1 42.05(6) 7_545 7_545
Sb2 Rb1 Mg1 103.49(6) 9 13
Sb2 Rb1 Mg1 120.11(6) . 13
Sb1 Rb1 Mg1 42.05(6) 13 13
Sb1 Rb1 Mg1 157.48(5) 7_545 13
Mg1 Rb1 Mg1 122.25(10) 7_545 13
Sb2 Rb1 Rb1 135.51(3) 9 13
Sb2 Rb1 Rb1 67.84(5) . 13
Sb1 Rb1 Rb1 62.94(3) 13 13
Sb1 Rb1 Rb1 122.54(3) 7_545 13
Mg1 Rb1 Rb1 98.08(5) 7_545 13
Mg1 Rb1 Rb1 69.27(4) 13 13
Sb2 Rb1 Rb1 67.84(5) 9 13_545
Sb2 Rb1 Rb1 135.51(3) . 13_545
Sb1 Rb1 Rb1 122.54(3) 13 13_545
Sb1 Rb1 Rb1 62.94(3) 7_545 13_545
Mg1 Rb1 Rb1 69.27(4) 7_545 13_545
Mg1 Rb1 Rb1 98.08(5) 13 13_545
Rb1 Rb1 Rb1 154.47(6) 13 13_545
Sb2 Rb1 Sb1 77.06(5) 9 11
Sb2 Rb1 Sb1 145.08(2) . 11
Sb1 Rb1 Sb1 69.19(6) 13 11
Sb1 Rb1 Sb1 120.14(6) 7_545 11
Mg1 Rb1 Sb1 110.93(7) 7_545 11
Mg1 Rb1 Sb1 42.65(6) 13 11
Rb1 Rb1 Sb1 111.63(4) 13 11
Rb1 Rb1 Sb1 57.20(3) 13_545 11
Sb2 Rb1 Sb1 145.08(2) 9 .
Sb2 Rb1 Sb1 77.06(5) . .
Sb1 Rb1 Sb1 120.14(6) 13 .
Sb1 Rb1 Sb1 69.19(6) 7_545 .
Mg1 Rb1 Sb1 42.65(6) 7_545 .
Mg1 Rb1 Sb1 110.93(7) 13 .
Rb1 Rb1 Sb1 57.20(3) 13 .
Rb1 Rb1 Sb1 111.63(4) 13_545 .
Sb1 Rb1 Sb1 133.89(5) 11 .
Sb2 Rb1 Mg2 161.16(4) 9 5_545
Sb2 Rb1 Mg2 114.76(6) . 5_545
Sb1 Rb1 Mg2 109.46(5) 13 5_545
Sb1 Rb1 Mg2 90.20(5) 7_545 5_545
Mg1 Rb1 Mg2 48.36(6) 7_545 5_545
Mg1 Rb1 Mg2 78.35(7) 13 5_545
Rb1 Rb1 Mg2 62.98(4) 13 5_545
Rb1 Rb1 Mg2 93.32(6) 13_545 5_545
Sb1 Rb1 Mg2 93.04(6) 11 5_545
Sb1 Rb1 Mg2 40.92(4) . 5_545
Sb2 Rb1 Mg2 114.76(6) 9 13
Sb2 Rb1 Mg2 161.16(4) . 13
Sb1 Rb1 Mg2 90.20(5) 13 13
Sb1 Rb1 Mg2 109.46(5) 7_545 13
Mg1 Rb1 Mg2 78.35(7) 7_545 13
Mg1 Rb1 Mg2 48.36(6) 13 13
Rb1 Rb1 Mg2 93.32(6) 13 13
Rb1 Rb1 Mg2 62.98(4) 13_545 13
Sb1 Rb1 Mg2 40.92(4) 11 13
Sb1 Rb1 Mg2 93.03(6) . 13
Mg2 Rb1 Mg2 52.44(9) 5_545 13
Sb1 Mg1 Sb2 119.22(8) . .
Sb1 Mg1 Sb2 119.22(8) . 10_556
Sb2 Mg1 Sb2 91.26(11) . 10_556
Sb1 Mg1 Sb1 105.51(10) . 7
Sb2 Mg1 Sb1 110.60(8) . 7
Sb2 Mg1 Sb1 110.60(8) 10_556 7
Sb1 Mg1 Mg2 137.68(8) . .
Sb2 Mg1 Mg2 56.23(8) . .
Sb2 Mg1 Mg2 103.09(11) 10_556 .
Sb1 Mg1 Mg2 54.86(7) 7 .
Sb1 Mg1 Mg2 137.68(8) . 10_556
Sb2 Mg1 Mg2 103.09(11) . 10_556
Sb2 Mg1 Mg2 56.23(8) 10_556 10_556
Sb1 Mg1 Mg2 54.86(7) 7 10_556
Mg2 Mg1 Mg2 66.36(12) . 10_556
Sb1 Mg1 Mg3 101.29(11) . .
Sb2 Mg1 Mg3 54.09(6) . .
Sb2 Mg1 Mg3 54.09(6) 10_556 .
Sb1 Mg1 Mg3 153.20(12) 7 .
Mg2 Mg1 Mg3 103.88(10) . .
Mg2 Mg1 Mg3 103.88(10) 10_556 .
Sb1 Mg1 Mg1 159.21(6) . 3
Sb2 Mg1 Mg1 50.64(6) . 3
Sb2 Mg1 Mg1 50.64(6) 10_556 3
Sb1 Mg1 Mg1 95.28(6) 7 3
Mg2 Mg1 Mg1 56.49(6) . 3
Mg2 Mg1 Mg1 56.49(6) 10_556 3
Mg3 Mg1 Mg1 57.92(7) . 3
Sb1 Mg1 Rb1 68.81(6) . 6
Sb2 Mg1 Rb1 168.55(8) . 6
Sb2 Mg1 Rb1 77.40(6) 10_556 6
Sb1 Mg1 Rb1 72.74(5) 7 6
Mg2 Mg1 Rb1 124.46(10) . 6
Mg2 Mg1 Rb1 69.42(7) 10_556 6
Mg3 Mg1 Rb1 118.11(5) . 6
Mg1 Mg1 Rb1 118.88(5) 3 6
Sb1 Mg1 Rb1 68.81(6) . 13
Sb2 Mg1 Rb1 77.40(6) . 13
Sb2 Mg1 Rb1 168.55(8) 10_556 13
Sb1 Mg1 Rb1 72.74(5) 7 13
Mg2 Mg1 Rb1 69.42(7) . 13
Mg2 Mg1 Rb1 124.46(10) 10_556 13
Mg3 Mg1 Rb1 118.11(5) . 13
Mg1 Mg1 Rb1 118.88(5) 3 13
Rb1 Mg1 Rb1 113.90(9) 6 13
Sb1 Mg1 Rb1 64.01(5) . .
Sb2 Mg1 Rb1 55.22(5) . .
Sb2 Mg1 Rb1 118.02(10) 10_556 .
Sb1 Mg1 Rb1 128.74(5) 7 .
Mg2 Mg1 Rb1 97.63(8) . .
Mg2 Mg1 Rb1 158.30(8) 10_556 .
Mg3 Mg1 Rb1 64.41(6) . .
Mg1 Mg1 Rb1 102.84(4) 3 .
Rb1 Mg1 Rb1 131.84(8) 6 .
Rb1 Mg1 Rb1 56.45(5) 13 .
Sb1 Mg1 Rb1 64.01(5) . 10_556
Sb2 Mg1 Rb1 118.02(9) . 10_556
Sb2 Mg1 Rb1 55.22(6) 10_556 10_556
Sb1 Mg1 Rb1 128.74(5) 7 10_556
Mg2 Mg1 Rb1 158.30(8) . 10_556
Mg2 Mg1 Rb1 97.63(8) 10_556 10_556
Mg3 Mg1 Rb1 64.41(6) . 10_556
Mg1 Mg1 Rb1 102.84(4) 3 10_556
Rb1 Mg1 Rb1 56.45(5) 6 10_556
Rb1 Mg1 Rb1 131.84(8) 13 10_556
Rb1 Mg1 Rb1 93.37(9) . 10_556
Sb2 Mg2 Sb1 121.58(8) 9_565 7
Sb2 Mg2 Sb1 121.58(8) 9_565 5_455
Sb1 Mg2 Sb1 92.78(11) 7 5_455
Sb2 Mg2 Sb2 100.77(9) 9_565 .
Sb1 Mg2 Sb2 110.07(7) 7 .
Sb1 Mg2 Sb2 110.07(7) 5_455 .
Sb2 Mg2 Mg1 134.14(8) 9_565 .
Sb1 Mg2 Mg1 56.04(8) 7 .
Sb1 Mg2 Mg1 103.94(11) 5_455 .
Sb2 Mg2 Mg1 54.51(7) . .
Sb2 Mg2 Mg1 134.14(8) 9_565 3
Sb1 Mg2 Mg1 103.94(11) 7 3
Sb1 Mg2 Mg1 56.04(8) 5_455 3
Sb2 Mg2 Mg1 54.51(7) . 3
Mg1 Mg2 Mg1 67.02(12) . 3
Sb2 Mg2 Mg3 106.84(11) 9_565 1_565
Sb1 Mg2 Mg3 54.45(6) 7 1_565
Sb1 Mg2 Mg3 54.45(6) 5_455 1_565
Sb2 Mg2 Mg3 152.39(11) . 1_565
Mg1 Mg2 Mg3 103.71(10) . 1_565
Mg1 Mg2 Mg3 103.71(10) 3 1_565
Sb2 Mg2 Mg2 164.39(6) 9_565 10_556
Sb1 Mg2 Mg2 51.30(6) 7 10_556
Sb1 Mg2 Mg2 51.30(6) 5_455 10_556
Sb2 Mg2 Mg2 94.85(6) . 10_556
Mg1 Mg2 Mg2 56.82(6) . 10_556
Mg1 Mg2 Mg2 56.82(6) 3 10_556
Mg3 Mg2 Mg2 57.54(7) 1_565 10_556
Sb2 Mg2 Mg2 52.08(9) 9_565 9_565
Sb1 Mg2 Mg2 132.53(6) 7 9_565
Sb1 Mg2 Mg2 132.53(6) 5_455 9_565
Sb2 Mg2 Mg2 48.68(7) . 9_565
Mg1 Mg2 Mg2 93.80(11) . 9_565
Mg1 Mg2 Mg2 93.80(11) 3 9_565
Mg3 Mg2 Mg2 158.93(14) 1_565 9_565
Mg2 Mg2 Mg2 143.53(10) 10_556 9_565
Sb2 Mg2 Rb1 74.25(5) 9_565 5_455
Sb1 Mg2 Rb1 161.47(8) 7 5_455
Sb1 Mg2 Rb1 69.46(6) 5_455 5_455
Sb2 Mg2 Rb1 73.04(4) . 5_455
Mg1 Mg2 Rb1 121.64(10) . 5_455
Mg1 Mg2 Rb1 62.22(6) 3 5_455
Mg3 Mg2 Rb1 114.35(5) 1_565 5_455
Mg2 Mg2 Rb1 110.81(4) 10_556 5_455
Mg2 Mg2 Rb1 63.78(4) 9_565 5_455
Sb2 Mg2 Rb1 74.25(5) 9_565 13
Sb1 Mg2 Rb1 69.46(6) 7 13
Sb1 Mg2 Rb1 161.47(8) 5_455 13
Sb2 Mg2 Rb1 73.04(4) . 13
Mg1 Mg2 Rb1 62.22(6) . 13
Mg1 Mg2 Rb1 121.64(10) 3 13
Mg3 Mg2 Rb1 114.35(4) 1_565 13
Mg2 Mg2 Rb1 110.81(4) 10_556 13
Mg2 Mg2 Rb1 63.78(4) 9_565 13
Rb1 Mg2 Rb1 127.56(9) 5_455 13
Sb2 Mg2 Rb1 59.26(4) 9_565 1_565
Sb1 Mg2 Rb1 62.75(6) 7 1_565
Sb1 Mg2 Rb1 120.17(10) 5_455 1_565
Sb2 Mg2 Rb1 129.23(6) . 1_565
Mg1 Mg2 Rb1 103.91(8) . 1_565
Mg1 Mg2 Rb1 166.60(8) 3 1_565
Mg3 Mg2 Rb1 67.97(7) 1_565 1_565
Mg2 Mg2 Rb1 110.19(4) 10_556 1_565
Mg2 Mg2 Rb1 96.72(9) 9_565 1_565
Rb1 Mg2 Rb1 130.30(8) 5_455 1_565
Rb1 Mg2 Rb1 57.09(5) 13 1_565
Sb1 Mg3 Sb1 92.62(14) 5_445 7_545
Sb1 Mg3 Sb2 119.29(4) 5_445 10_556
Sb1 Mg3 Sb2 119.29(4) 7_545 10_556
Sb1 Mg3 Sb2 119.29(4) 5_445 .
Sb1 Mg3 Sb2 119.29(4) 7_545 .
Sb2 Mg3 Sb2 89.83(14) 10_556 .
Sb1 Mg3 Mg2 54.35(8) 5_445 1_545
Sb1 Mg3 Mg2 54.35(8) 7_545 1_545
Sb2 Mg3 Mg2 167.55(11) 10_556 1_545
Sb2 Mg3 Mg2 102.63(9) . 1_545
Sb1 Mg3 Mg2 54.35(8) 5_445 10_546
Sb1 Mg3 Mg2 54.35(8) 7_545 10_546
Sb2 Mg3 Mg2 102.63(9) 10_556 10_546
Sb2 Mg3 Mg2 167.55(11) . 10_546
Mg2 Mg3 Mg2 64.92(14) 1_545 10_546
Sb1 Mg3 Mg1 165.76(11) 5_445 .
Sb1 Mg3 Mg1 101.61(9) 7_545 .
Sb2 Mg3 Mg1 53.12(8) 10_556 .
Sb2 Mg3 Mg1 53.12(8) . .
Mg2 Mg3 Mg1 135.64(6) 1_545 .
Mg2 Mg3 Mg1 135.64(6) 10_546 .
Sb1 Mg3 Mg1 101.61(9) 5_445 3
Sb1 Mg3 Mg1 165.76(11) 7_545 3
Sb2 Mg3 Mg1 53.12(8) 10_556 3
Sb2 Mg3 Mg1 53.12(8) . 3
Mg2 Mg3 Mg1 135.64(6) 1_545 3
Mg2 Mg3 Mg1 135.64(6) 10_546 3
Mg1 Mg3 Mg1 64.15(14) . 3
Sb1 Mg3 Rb1 61.69(4) 5_445 9
Sb1 Mg3 Rb1 118.03(8) 7_545 9
Sb2 Mg3 Rb1 122.48(9) 10_556 9
Sb2 Mg3 Rb1 57.82(4) . 9
Mg2 Mg3 Rb1 65.85(5) 1_545 9
Mg2 Mg3 Rb1 113.82(9) 10_546 9
Mg1 Mg3 Rb1 110.45(9) . 9
Mg1 Mg3 Rb1 69.88(5) 3 9
Sb1 Mg3 Rb1 118.03(8) 5_445 10_556
Sb1 Mg3 Rb1 61.69(4) 7_545 10_556
Sb2 Mg3 Rb1 57.82(4) 10_556 10_556
Sb2 Mg3 Rb1 122.48(9) . 10_556
Mg2 Mg3 Rb1 113.82(9) 1_545 10_556
Mg2 Mg3 Rb1 65.85(5) 10_546 10_556
Mg1 Mg3 Rb1 69.88(5) . 10_556
Mg1 Mg3 Rb1 110.45(9) 3 10_556
Rb1 Mg3 Rb1 179.64(11) 9 10_556
Sb1 Mg3 Rb1 61.69(4) 5_445 2
Sb1 Mg3 Rb1 118.03(8) 7_545 2
Sb2 Mg3 Rb1 57.82(4) 10_556 2
Sb2 Mg3 Rb1 122.48(9) . 2
Mg2 Mg3 Rb1 113.82(9) 1_545 2
Mg2 Mg3 Rb1 65.85(5) 10_546 2
Mg1 Mg3 Rb1 110.45(9) . 2
Mg1 Mg3 Rb1 69.88(5) 3 2
Rb1 Mg3 Rb1 98.48(7) 9 2
Rb1 Mg3 Rb1 81.52(7) 10_556 2
Sb1 Mg3 Rb1 118.03(8) 5_445 .
Sb1 Mg3 Rb1 61.69(4) 7_545 .
Sb2 Mg3 Rb1 122.48(9) 10_556 .
Sb2 Mg3 Rb1 57.82(4) . .
Mg2 Mg3 Rb1 65.85(5) 1_545 .
Mg2 Mg3 Rb1 113.82(9) 10_546 .
Mg1 Mg3 Rb1 69.88(5) . .
Mg1 Mg3 Rb1 110.45(9) 3 .
Rb1 Mg3 Rb1 81.52(7) 9 .
Rb1 Mg3 Rb1 98.48(7) 10_556 .
Rb1 Mg3 Rb1 179.64(11) 2 .
Mg1 Sb1 Mg2 141.29(6) . 14_546
Mg1 Sb1 Mg2 141.29(6) . 5_545
Mg2 Sb1 Mg2 77.40(11) 14_546 5_545
Mg1 Sb1 Mg3 115.53(10) . 5
Mg2 Sb1 Mg3 71.20(8) 14_546 5
Mg2 Sb1 Mg3 71.20(8) 5_545 5
Mg1 Sb1 Mg1 116.06(8) . 7_545
Mg2 Sb1 Mg1 69.10(7) 14_546 7_545
Mg2 Sb1 Mg1 69.10(7) 5_545 7_545
Mg3 Sb1 Mg1 128.41(10) 5 7_545
Mg1 Sb1 Rb1 69.15(3) . 6
Mg2 Sb1 Rb1 76.05(7) 14_546 6
Mg2 Sb1 Rb1 144.03(5) 5_545 6
Mg3 Sb1 Rb1 77.53(5) 5 6
Mg1 Sb1 Rb1 121.60(3) 7_545 6
Mg1 Sb1 Rb1 69.15(3) . 13
Mg2 Sb1 Rb1 144.03(5) 14_546 13
Mg2 Sb1 Rb1 76.05(7) 5_545 13
Mg3 Sb1 Rb1 77.53(5) 5 13
Mg1 Sb1 Rb1 121.60(3) 7_545 13
Rb1 Sb1 Rb1 114.30(6) 6 13
Mg1 Sb1 Rb1 78.43(5) . .
Mg2 Sb1 Rb1 130.05(7) 14_546 .
Mg2 Sb1 Rb1 69.62(7) 5_545 .
Mg3 Sb1 Rb1 127.27(3) 5 .
Mg1 Sb1 Rb1 64.62(4) 7_545 .
Rb1 Sb1 Rb1 146.12(4) 6 .
Rb1 Sb1 Rb1 59.86(6) 13 .
Mg1 Sb1 Rb1 78.43(5) . 10_556
Mg2 Sb1 Rb1 69.62(7) 14_546 10_556
Mg2 Sb1 Rb1 130.05(7) 5_545 10_556
Mg3 Sb1 Rb1 127.27(3) 5 10_556
Mg1 Sb1 Rb1 64.62(4) 7_545 10_556
Rb1 Sb1 Rb1 59.86(6) 6 10_556
Rb1 Sb1 Rb1 146.12(4) 13 10_556
Rb1 Sb1 Rb1 104.93(6) . 10_556
Mg2 Sb2 Mg1 127.52(7) 9_565 .
Mg2 Sb2 Mg1 127.52(7) 9_565 3
Mg1 Sb2 Mg1 78.71(12) . 3
Mg2 Sb2 Mg3 150.53(9) 9_565 .
Mg1 Sb2 Mg3 72.79(8) . .
Mg1 Sb2 Mg3 72.79(8) 3 .
Mg2 Sb2 Mg2 79.23(9) 9_565 .
Mg1 Sb2 Mg2 69.26(7) . .
Mg1 Sb2 Mg2 69.26(7) 3 .
Mg3 Sb2 Mg2 130.24(9) . .
Mg2 Sb2 Rb1 80.41(5) 9_565 9
Mg1 Sb2 Rb1 151.97(5) . 9
Mg1 Sb2 Rb1 85.27(8) 3 9
Mg3 Sb2 Rb1 80.59(6) . 9
Mg2 Sb2 Rb1 125.80(4) . 9
Mg2 Sb2 Rb1 80.41(5) 9_565 .
Mg1 Sb2 Rb1 85.27(8) . .
Mg1 Sb2 Rb1 151.97(5) 3 .
Mg3 Sb2 Rb1 80.59(6) . .
Mg2 Sb2 Rb1 125.80(4) . .
Rb1 Sb2 Rb1 99.10(7) 9 .
Mg2 Sb2 Rb1 67.23(3) 9_565 13
Mg1 Sb2 Rb1 62.08(7) . 13
Mg1 Sb2 Rb1 128.44(7) 3 13
Mg3 Sb2 Rb1 120.09(3) . 13
Mg2 Sb2 Rb1 66.40(3) . 13
Rb1 Sb2 Rb1 143.03(4) 9 13
Rb1 Sb2 Rb1 59.40(6) . 13
Mg2 Sb2 Rb1 67.23(3) 9_565 5_455
Mg1 Sb2 Rb1 128.44(7) . 5_455
Mg1 Sb2 Rb1 62.08(7) 3 5_455
Mg3 Sb2 Rb1 120.09(3) . 5_455
Mg2 Sb2 Rb1 66.40(3) . 5_455
Rb1 Sb2 Rb1 59.40(6) 9 5_455
Rb1 Sb2 Rb1 143.03(4) . 5_455
Rb1 Sb2 Rb1 118.51(6) 13 5_455
loop_
_geom_bond_atom_site_label_1
_geom_bond_atom_site_label_2
_geom_bond_distance
_geom_bond_site_symmetry_2
Rb1 Sb2 3.705(2) 9
Rb1 Sb2 3.705(2) .
Rb1 Sb1 3.894(3) 13
Rb1 Sb1 3.894(3) 7_545
Rb1 Mg1 3.902(3) 7_545
Rb1 Mg1 3.902(3) 13
Rb1 Rb1 4.006(3) 13
Rb1 Rb1 4.006(3) 13_545
Rb1 Sb1 4.125(3) 11
Rb1 Sb1 4.125(3) .
Rb1 Mg2 4.129(3) 5_545
Rb1 Mg2 4.129(3) 13
Mg1 Sb1 2.797(4) .
Mg1 Sb2 2.870(3) .
Mg1 Sb2 2.870(3) 10_556
Mg1 Sb1 2.926(4) 7
Mg1 Mg2 3.296(4) .
Mg1 Mg2 3.296(4) 10_556
Mg1 Mg3 3.427(5) .
Mg1 Mg1 3.640(7) 3
Mg1 Rb1 3.902(3) 6
Mg1 Rb1 3.902(3) 13
Mg1 Rb1 4.496(3) 10_556
Mg2 Sb2 2.790(4) 9_565
Mg2 Sb1 2.885(3) 7
Mg2 Sb1 2.885(3) 5_455
Mg2 Sb2 2.930(4) .
Mg2 Mg1 3.296(4) 3
Mg2 Mg3 3.361(5) 1_565
Mg2 Mg2 3.608(7) 10_556
Mg2 Mg2 3.649(6) 9_565
Mg2 Rb1 4.129(3) 5_455
Mg2 Rb1 4.129(3) 13
Mg2 Rb1 4.250(3) 1_565
Mg3 Sb1 2.889(3) 5_445
Mg3 Sb1 2.889(3) 7_545
Mg3 Sb2 2.906(4) 10_556
Mg3 Sb2 2.906(4) .
Mg3 Mg2 3.361(5) 1_545
Mg3 Mg2 3.361(5) 10_546
Mg3 Mg1 3.427(5) 3
Mg3 Rb1 4.318(3) 9
Mg3 Rb1 4.318(3) 10_556
Mg3 Rb1 4.318(3) 2
Sb1 Mg2 2.885(3) 14_546
Sb1 Mg2 2.885(3) 5_545
Sb1 Mg3 2.889(4) 5
Sb1 Mg1 2.926(4) 7_545
Sb1 Rb1 3.894(3) 6
Sb1 Rb1 3.894(3) 13
Sb1 Rb1 4.125(3) 10_556
Sb2 Mg2 2.790(4) 9_565
Sb2 Mg1 2.870(3) 3
Sb2 Rb1 3.705(2) 9
Sb2 Rb1 4.310(3) 13
Sb2 Rb1 4.310(3) 5_455
