#------------------------------------------------------------------------------
#$Date: 2019-11-24 09:12:54 +0200 (Sun, 24 Nov 2019) $
#$Revision: 237424 $
#$URL: file:///home/coder/svn-repositories/cod/cif/7/23/71/7237112.cif $
#------------------------------------------------------------------------------
#
# This file is available in the Crystallography Open Database (COD),
# http://www.crystallography.net/
#
# All data on this site have been placed in the public domain by the
# contributors.
#
data_7237112
loop_
_publ_author_name
'Wang, Jian'
'Wang, Lin-Lin'
'Kovnir, Kirill'
_publ_section_title
;
 Phonon glass behavior beyond traditional cage structures: synthesis,
 crystal and electronic structure, and properties of KMg4Sb3
;
_journal_issue                   11
_journal_name_full               'Journal of Materials Chemistry A'
_journal_page_first              4759
_journal_paper_doi               10.1039/C8TA00553B
_journal_volume                  6
_journal_year                    2018
_chemical_formula_sum            'K Mg4 Sb3'
_chemical_formula_weight         501.59
_space_group_crystal_system      orthorhombic
_space_group_IT_number           63
_space_group_name_Hall           '-C 2c 2'
_space_group_name_H-M_alt        'C m c m'
_audit_creation_method           SHELXL-2014/6
_audit_update_record
;
2017-11-15 deposited with the CCDC.
2018-02-19 downloaded from the CCDC.
;
_cell_angle_alpha                90
_cell_angle_beta                 90
_cell_angle_gamma                90
_cell_formula_units_Z            4
_cell_length_a                   4.6642(6)
_cell_length_b                   15.3824(18)
_cell_length_c                   13.1613(16)
_cell_measurement_reflns_used    7384
_cell_measurement_temperature    90(2)
_cell_measurement_theta_max      30.640
_cell_measurement_theta_min      2.648
_cell_volume                     944.3(2)
_computing_cell_refinement       'SMART V5.625 (Bruker, 2000)'
_computing_data_collection       'SMART V5.625 (Bruker, 2000)'
_computing_data_reduction        'SAINT V6.32 (Bruker, 2001)'
_computing_publication_material  'SHELXL-97 (Sheldrick, 1997)'
_computing_structure_refinement  'SHELXL-97 (Sheldrick, 1997)'
_computing_structure_solution    'SHELXS-97 (Sheldrick, 1990)'
_diffrn_ambient_temperature      90(2)
_diffrn_measured_fraction_theta_full 1.000
_diffrn_measured_fraction_theta_max 1.000
_diffrn_measurement_device_type  'Bruker APEX II CCD area-detector'
_diffrn_measurement_method       'profile data from \w scans'
_diffrn_radiation_type           MoK\a
_diffrn_radiation_wavelength     0.71073
_diffrn_reflns_av_R_equivalents  0.0560
_diffrn_reflns_av_unetI/netI     0.0300
_diffrn_reflns_Laue_measured_fraction_full 1.000
_diffrn_reflns_Laue_measured_fraction_max 1.000
_diffrn_reflns_limit_h_max       6
_diffrn_reflns_limit_h_min       -6
_diffrn_reflns_limit_k_max       22
_diffrn_reflns_limit_k_min       -22
_diffrn_reflns_limit_l_max       18
_diffrn_reflns_limit_l_min       -18
_diffrn_reflns_number            7384
_diffrn_reflns_point_group_measured_fraction_full 1.000
_diffrn_reflns_point_group_measured_fraction_max 1.000
_diffrn_reflns_theta_full        25.242
_diffrn_reflns_theta_max         30.640
_diffrn_reflns_theta_min         2.648
_diffrn_source                   'fine-focus sealed tube'
_exptl_absorpt_coefficient_mu    9.137
_exptl_absorpt_correction_type   multi-scan
_exptl_absorpt_process_details   'SADABS v2.03 (Bruker, 2003)'
_exptl_crystal_colour            Black
_exptl_crystal_density_diffrn    3.528
_exptl_crystal_density_method    'not measured'
_exptl_crystal_description       Block
_exptl_crystal_F_000             880
_exptl_crystal_size_max          0.040
_exptl_crystal_size_mid          0.030
_exptl_crystal_size_min          0.020
_exptl_transmission_factor_max   0.8331
_exptl_transmission_factor_min   0.7256
_refine_diff_density_max         1.916
_refine_diff_density_min         -1.197
_refine_diff_density_rms         0.262
_refine_ls_extinction_coef       0.00020(6)
_refine_ls_extinction_expression Fc^*^=kFc[1+0.001xFc^2^\l^3^/sin(2\q)]^-1/4^
_refine_ls_extinction_method     SHELXL
_refine_ls_goodness_of_fit_ref   1.100
_refine_ls_hydrogen_treatment    undef
_refine_ls_matrix_type           full
_refine_ls_number_parameters     29
_refine_ls_number_reflns         842
_refine_ls_number_restraints     0
_refine_ls_restrained_S_all      1.100
_refine_ls_R_factor_all          0.0303
_refine_ls_R_factor_gt           0.0220
_refine_ls_shift/su_max          0.000
_refine_ls_shift/su_mean         0.000
_refine_ls_structure_factor_coef Fsqd
_refine_ls_weighting_details
'w=1/[\s^2^(Fo^2^)+(0.0145P)^2^] where P=(Fo^2^+2Fc^2^)/3'
_refine_ls_weighting_scheme      calc
_refine_ls_wR_factor_gt          0.0380
_refine_ls_wR_factor_ref         0.0405
_reflns_Friedel_coverage         0.000
_reflns_number_gt                724
_reflns_number_total             842
_reflns_threshold_expression     'I > 2\s(I)'
_cod_data_source_file            c8ta00553b2.cif
_cod_data_source_block           x1
_cod_database_code               7237112
_shelx_space_group_comment
;
The symmetry employed for this shelxl refinement is uniquely defined
by the following loop, which should always be used as a source of
symmetry information in preference to the above space-group names.
They are only intended as comments.
;
_shelx_estimated_absorpt_t_min   0.711
_shelx_estimated_absorpt_t_max   0.838
_shelxl_version_number           2014/6
_shelx_res_file
;

TITL x1 in Cmcm
CELL 0.71073   4.66420  15.38240  13.16130  90.0000  90.0000  90.0000
ZERR    4.00   0.00060   0.00180   0.00160   0.0000   0.0000   0.0000
LATT  7
SYMM -X, -Y, 0.5+Z
SYMM -X, Y, 0.5-Z
SYMM X, -Y, -Z
SFAC MG K SB
UNIT 16 4 12
TEMP -183.000
SIZE 0.02 0.03 0.04

L.S. 14
BOND
acta
FMAP 2
PLAN -5

WGHT    0.014500
EXTI    0.000197
FVAR       0.05058   0.98606
K1    2    0.000000    0.824481    0.250000    10.25000    0.01027    0.02522 =
         0.00934    0.00000    0.00000    0.00000
MG1   1    0.000000    0.179882    0.055478    10.50000    0.00811    0.00796 =
         0.00833    0.00099    0.00000    0.00000
MG2   1    0.000000    0.535508    0.127657    10.50000    0.01057    0.00803 =
         0.00630   -0.00089    0.00000    0.00000
SB1   3    0.000000    0.365116    0.054361    10.50000    0.00664    0.00623 =
         0.00589   -0.00020    0.00000    0.00000
SB2   3    0.000000    0.089844    0.250000    10.25000    0.00623    0.00840 =
         0.00501    0.00000    0.00000    0.00000
HKLF 4

REM  x1 in Cmcm
REM R1 =  0.0220 for     724 Fo > 4sig(Fo)  and  0.0303 for all     842 data
REM     29 parameters refined using      0 restraints

END

WGHT      0.0145      0.0000

REM Highest difference peak  1.916,  deepest hole -1.197,  1-sigma level  0.262
Q1    1   0.0000  0.6404  0.2500  10.25000  0.05    1.92
Q2    1   0.0000  0.7069  0.2500  10.25000  0.05    1.49
Q3    1  -0.3263  0.8212  0.4789  11.00000  0.05    1.10
Q4    1   0.0000  0.9531  0.2500  10.25000  0.05    1.10
Q5    1   0.0000  0.9082  0.5539  10.50000  0.05    1.06
;
_shelx_res_checksum              20092
_shelx_hkl_file
;
  -2   0   0  951.47   14.69
  -2   0   0 1000.00   13.70
   2   0   0  998.09   13.18
  -2   0   0  936.14   14.10
   4   0   0  486.56   11.20
  -4   0   0  451.01    9.60
  -4   0   0  472.04   11.18
   6   0   0  196.88    8.93
  -1   1   0   27.41    1.39
   1   1   0   26.00    1.05
  -1   1   0   28.32    1.26
  -1  -1   0   26.51    0.91
  -1   1   0   26.64    0.97
  -1  -1   0   26.74    1.30
  -1  -1   0   28.08    1.27
  -3   1   0   11.82    1.76
  -3  -1   0   13.05    1.52
   3   1   0   12.90    1.47
   3   1   0    9.93    1.70
  -3   1   0   11.16    1.52
  -3  -1   0   13.33    1.80
   3  -1   0   12.86    1.34
   3  -1   0   12.86    1.87
   5  -1   0    1.72    1.43
   5   1   0    3.08    1.84
  -5   1   0    8.41    2.15
  -5  -1   0    7.32    2.03
   0   2   0    0.27    0.32
   0  -2   0    0.31    0.30
   0  -2   0    0.72    0.24
   0   2   0    0.75    0.36
  -2   2   0   -0.09    0.52
  -2   2   0    0.77    0.66
  -2  -2   0    0.10    0.57
  -2  -2   0    0.36    0.56
  -2  -2   0    0.65    0.41
  -2   2   0    0.61    0.44
   2  -2   0    0.30    0.55
   2   2   0    0.68    0.53
   4   2   0    0.07    0.90
  -4   2   0   -0.31    0.75
   4  -2   0    0.44    0.90
   4   2   0    1.56    0.79
  -4  -2   0   -0.23    0.79
  -4   2   0   -0.32    0.79
   6  -2   0   -0.72    1.36
   6   2   0   -0.26    1.51
  -6  -2   0    0.16    1.45
  -6   2   0    1.42    1.82
   1   3   0   15.64    1.11
  -1   3   0   15.52    1.41
  -1   3   0   15.02    0.90
  -1   3   0   15.73    1.41
   1  -3   0   13.28    0.86
  -1  -3   0   11.35    1.11
  -1  -3   0   17.74    1.42
  -3  -3   0   11.27    1.21
  -3  -3   0   10.56    1.68
  -3   3   0    9.18    1.58
  -3  -3   0   10.47    1.65
   3  -3   0    8.92    1.58
  -3   3   0   11.43    1.93
   3   3   0   10.32    1.49
  -5   3   0   10.17    2.25
   5   3   0    6.89    2.32
  -5  -3   0    6.17    2.00
   5  -3   0    7.11    2.18
  -5   3   0    5.89    1.89
   0  -4   0  493.75    6.44
   0   4   0  492.60    7.53
   0  -4   0  478.20    7.58
   0   4   0  492.44    7.48
   2  -4   0  323.57    6.17
  -2   4   0  323.86    7.07
  -2   4   0  317.83    5.65
  -2  -4   0  313.04    6.73
  -2  -4   0  315.28    6.55
   2   4   0  312.70    6.29
  -2   4   0  317.19    7.08
   4   4   0  164.72    6.27
   4  -4   0  165.82    5.98
  -4   4   0  160.91    6.43
  -4  -4   0  157.22    6.02
  -4   4   0  165.84    6.11
   4   4   0  151.24    4.92
   6   4   0   81.66    7.48
  -6  -4   0   84.76    5.94
  -6   4   0   76.74    6.74
   6  -4   0   78.94    5.69
  -1  -5   0    9.82    1.32
   1   5   0   10.03    1.19
  -1  -5   0   10.26    1.08
  -1   5   0    8.06    1.00
  -1   5   0   11.41    1.46
   1  -5   0    9.43    0.80
   1  -5   0    9.52    1.35
   3   5   0    2.17    0.85
   3  -5   0    4.14    1.14
  -3  -5   0    3.59    1.05
  -3  -5   0    3.23    1.10
  -3   5   0    4.78    0.92
  -3   5   0    3.92    1.28
  -3   5   0    4.99    1.36
  -5   5   0    0.86    1.29
   5   5   0    2.79    1.68
  -5  -5   0    1.33    1.43
   5  -5   0    0.29    1.25
  -5   5   0    0.74    1.30
   0  -6   0   16.43    1.56
   0   6   0   18.93    1.39
   0   6   0   17.86    1.40
  -2  -6   0   13.59    1.70
  -2   6   0    9.75    1.56
  -2   6   0   12.01    1.28
   2  -6   0   11.73    1.30
   2   6   0   14.19    1.71
  -2  -6   0   17.49    1.88
  -4   6   0    7.19    1.96
   4  -6   0    4.08    1.37
   4   6   0    7.34    1.62
  -4  -6   0    2.75    1.18
   4   6   0    3.24    1.53
  -4   6   0    4.34    1.58
   6   6   0    0.60    2.00
   6  -6   0    2.17    1.89
  -6  -6   0    0.71    1.89
  -6   6   0    3.13    2.13
   1   7   0  339.88    6.26
  -1  -7   0  334.83    6.10
  -1  -7   0  340.45    7.20
   1  -7   0  337.86    7.37
  -1   7   0  350.59    6.62
   1   7   0  339.77    7.07
  -1   7   0  339.32    7.56
   3   7   0  205.98    6.02
  -3   7   0  213.59    5.11
  -3   7   0  218.51    7.06
  -3  -7   0  209.52    6.58
   3  -7   0  205.53    5.57
  -3  -7   0  211.31    6.13
  -3   7   0  202.01    6.84
  -5   7   0  107.55    5.99
   5   7   0  104.90    6.11
  -5  -7   0  113.86    6.04
  -5   7   0  115.67    6.55
   5  -7   0  109.24    5.60
   0  -8   0   34.96    2.19
   0   8   0   36.43    2.15
   0   8   0   38.12    2.17
  -2  -8   0   31.39    2.34
   2  -8   0   32.40    3.10
  -2  -8   0   25.91    1.91
  -2   8   0   26.64    2.69
   2   8   0   29.86    2.25
   2  -8   0   26.99    1.46
  -2   8   0   28.86    1.86
  -4   8   0   18.50    3.18
  -4   8   0   17.18    2.99
   4  -8   0   19.41    2.50
   4   8   0   21.56    2.89
   4   8   0   10.94    2.17
  -4  -8   0   13.39    2.39
  -6   8   0   12.79    4.38
  -6   8   0    6.48    2.39
   6   8   0    5.27    2.54
  -6  -8   0   13.18    3.04
  -1   9   0   11.00    1.53
   1   9   0   10.54    1.50
  -1  -9   0    9.85    1.48
  -1  -9   0    8.73    1.13
   1   9   0   11.38    1.71
   1  -9   0    6.11    1.31
  -1   9   0    8.02    1.60
  -3  -9   0    5.77    1.37
   3   9   0    5.19    1.46
  -3  -9   0    6.50    1.58
  -3   9   0    6.35    1.78
   3  -9   0    6.08    1.62
   3  -9   0    1.24    1.21
   5   9   0    2.70    1.99
  -5   9   0    1.11    1.69
  -5  -9   0    3.49    1.76
   0  10   0    9.69    1.53
   0 -10   0    9.31    1.60
   0  10   0   10.07    1.59
  -2  10   0    6.58    1.65
  -2 -10   0    7.56    1.35
   2 -10   0    9.14    1.86
   2  10   0    8.30    1.60
  -2 -10   0    9.24    1.69
  -2  10   0    5.84    1.18
  -4 -10   0    0.85    1.30
   4 -10   0    4.14    1.86
   4  10   0    2.55    1.42
   4  10   0    2.15    1.13
  -4  10   0    6.87    2.14
   1 -11   0  506.56   11.10
   1  11   0  491.06   10.04
  -1 -11   0  507.21    8.60
  -1  11   0  535.95   11.46
   1  11   0  516.18   10.78
  -1 -11   0  515.02   10.88
  -1  11   0  531.00   10.40
  -3  11   0  351.95   10.44
   3  11   0  350.05    9.01
  -3 -11   0  353.34    9.75
   3  11   0  337.67    9.28
   3 -11   0  334.70    9.93
  -5  11   0  173.96    8.53
   5  11   0  185.01    8.13
   5 -11   0  172.93    8.57
  -5 -11   0  187.67    8.42
   0 -12   0   10.30    1.79
   0  12   0   11.14    1.84
   0  12   0    9.53    1.81
   2 -12   0    8.18    2.04
  -2 -12   0    8.83    1.50
  -2 -12   0    5.00    1.52
  -2  12   0    5.54    1.32
   2  12   0    9.12    1.79
  -2  12   0    9.02    2.19
   4  12   0    4.90    1.81
  -4  12   0    6.33    2.25
   4  12   0    3.87    1.80
  -4 -12   0    3.86    1.79
   4 -12   0    5.21    2.08
   1  13   0   10.41    1.83
  -1 -13   0    7.95    1.76
   1 -13   0    5.96    1.62
   1  13   0   10.23    1.96
  -1  13   0    6.33    1.78
  -1  13   0    7.25    1.54
   3  13   0    3.65    1.40
  -3 -13   0    9.68    2.27
  -3  13   0    5.74    2.23
   3 -13   0    5.08    1.80
   3  13   0    8.29    1.96
   5  13   0    1.46    1.79
   5 -13   0    0.58    1.75
  -5 -13   0    5.57    2.25
  -5  13   0    2.08    1.98
   5  13   0   -0.80    1.56
   0 -14   0    5.44    1.62
   0  14   0    8.93    2.16
   0  14   0    7.19    1.67
   2 -14   0    5.14    1.85
  -2  14   0    5.96    1.86
  -2  14   0    8.38    1.80
   2  14   0    5.17    1.67
  -2 -14   0   10.57    2.18
   4 -14   0    3.73    1.99
   4  14   0    3.67    1.77
   4  14   0    2.97    1.78
  -4 -14   0    4.64    1.79
  -4  14   0    2.36    1.87
   1  15   0  138.02    6.05
   1 -15   0  132.09    6.20
  -1 -15   0  136.23    6.05
  -1  15   0  138.00    6.41
  -1  15   0  138.70    5.76
  -3 -15   0  102.79    5.93
   3 -15   0   95.14    5.96
   3  15   0  105.23    5.63
   0  16   0    0.92    1.25
   0 -16   0    0.94    1.20
   0  16   0    0.40    0.95
   2 -16   0    0.12    1.52
  -2 -16   0   -0.27    1.10
  -2  16   0    2.50    1.72
   2  16   0    1.62    1.45
  -2  16   0    0.83    1.10
  -4  16   0    0.41    1.91
   4 -16   0    3.20    2.37
   4  16   0   -2.72    1.01
  -4 -16   0   -0.27    1.47
   1  17   0    2.02    1.50
  -1 -17   0    3.60    1.63
  -1  17   0    2.73    1.42
  -1  17   0   -0.32    1.19
   1 -17   0    4.11    1.74
  -3 -17   0    0.37    1.44
  -3  17   0    1.81    1.89
   3 -17   0    0.58    1.76
   3  17   0    2.10    1.59
   0  18   0   88.75   10.20
   0 -18   0   99.84    5.91
   0  18   0  114.30    6.02
   2  18   0   98.43    6.03
  -2  18   0   98.54    6.66
  -2 -18   0   90.81    5.77
   2 -18   0   90.91    6.10
  -1  19   0   27.33    4.23
   1 -19   0   23.93    3.90
  -1 -19   0   35.67    4.76
   1  19   0   37.80    4.52
  -1  19   0   27.06    3.72
  -3  19   0   24.02    4.56
  -3 -19   0   11.80    3.02
   3  19   0   18.36    3.76
   3 -19   0   11.37    3.01
   0 -20   0   11.15    2.83
   0  20   0    9.43    2.48
  -2 -20   0    5.14    2.13
  -2  20   0    4.09    2.40
   2  20   0    9.60    2.74
   2 -20   0   14.70    3.77
   1  21   0    1.18    1.41
   1 -21   0    3.68    2.28
  -1 -21   0    1.59    1.87
  -1  21   0    0.81    1.82
  -1  21   0    0.57    2.04
   0  22   0  137.48    7.66
   0 -22   0  110.09    7.27
   0   0  -1   -0.03    0.12
   0   0   1   -0.05    0.11
   0   0  -1    0.00    0.13
  -2   0  -1    0.02    0.48
  -2   0   1    0.05    0.43
   2   0   1   -0.19    0.37
  -2   0  -1    0.13    0.47
   2   0  -1   -0.56    0.23
  -2   0  -1    0.23    0.40
  -2   0   1   -0.05    0.55
   2   0  -1    0.30    0.57
   4   0   1   -0.78    0.97
  -4   0  -1    1.08    0.98
  -4   0   1   -0.69    0.49
  -4   0   1    0.24    0.88
   4   0  -1   -0.03    0.92
  -4   0  -1   -0.20    0.66
   4   0   1    0.04    0.62
  -6   0   1   -0.13    1.57
   6   0   1    0.05    1.60
  -6   0  -1   -0.32    1.41
   6   0  -1    0.30    1.46
  -1   1   1   57.66    1.96
  -1   1   1   54.00    1.78
   1   1  -1   51.17    1.37
   1   1  -1   51.90    1.79
  -1  -1  -1   51.98    1.73
  -1  -1  -1   52.30    1.27
  -1  -1  -1   54.90    1.84
  -1   1  -1   53.64    1.68
  -1   1  -1   51.59    1.79
  -1   1  -1   56.13    1.80
   1  -1  -1   53.25    1.73
  -1   1  -1   53.32    1.68
  -1  -1   1   51.70    1.80
   1   1   1   51.66    1.66
  -1  -1   1   53.06    1.56
  -3   1   1   33.21    3.07
  -3  -1  -1   30.26    2.74
  -3  -1  -1   31.01    2.31
  -3   1   1   28.02    1.95
   3  -1   1   27.19    1.70
   3   1  -1   29.78    2.90
   3   1  -1   26.69    1.50
  -3  -1  -1   27.70    1.68
  -3   1  -1   25.34    1.89
  -3  -1   1   29.07    1.78
  -3   1  -1   28.39    2.08
   3   1   1   28.27    1.79
  -3   1  -1   27.75    2.61
   3  -1  -1   30.55    2.87
  -3  -1   1   33.04    2.39
  -5  -1  -1   13.68    2.47
  -5   1   1   16.94    2.90
   5   1  -1   13.64    2.69
   5  -1   1   10.26    2.47
  -5  -1   1   12.51    2.49
   5  -1  -1   17.35    3.18
  -5   1  -1    9.00    2.10
   5   1   1    9.15    2.37
   0  -2  -1    5.32    0.55
   0   2   1    4.40    0.51
   0   2   1    4.15    0.50
   0  -2   1    4.60    0.52
   0   2  -1    4.46    0.66
   0   2  -1    3.83    0.32
   0   2  -1    3.71    0.51
   0  -2  -1    4.96    0.57
  -2   2   1    3.21    0.85
   2   2  -1    2.53    0.60
  -2  -2  -1    2.72    0.84
  -2   2   1    2.14    0.80
   2   2  -1    1.18    0.69
  -2  -2  -1    3.09    0.91
  -2  -2  -1    3.84    0.60
   2   2   1    2.82    0.77
  -2   2  -1    3.44    0.75
  -2   2  -1    3.05    0.90
  -2  -2   1    1.60    0.73
  -2   2  -1    2.73    0.75
   2  -2  -1    3.10    0.85
  -2   2  -1    3.83    0.89
  -2  -2   1    2.93    0.69
   4   2  -1    2.12    1.29
  -4   2   1    0.67    0.89
  -4   2   1    1.00    0.90
  -4  -2  -1    2.50    1.16
   4  -2   1    2.43    1.31
  -4   2  -1    2.13    1.06
  -4  -2   1    2.07    1.25
   4   2   1    1.38    0.86
   4  -2  -1    1.03    1.09
   4   2   1    1.92    1.30
  -4   2  -1    1.42    1.03
   6   2  -1    0.91    1.62
  -6   2   1   -1.06    1.47
   6  -2   1    2.28    1.91
  -6  -2  -1    0.44    1.52
  -6  -2   1   -0.16    1.57
   6   2   1    1.90    1.98
  -6   2  -1    0.17    1.50
   6  -2  -1    0.25    1.54
  -1  -3  -1  106.95    2.83
  -1   3   1  114.61    3.05
   1   3  -1  109.87    2.78
  -1   3   1  107.89    2.11
  -1  -3  -1  105.75    2.80
  -1   3   1  104.17    2.98
   1   3  -1  110.61    2.74
  -1  -3   1  105.54    2.84
  -1   3  -1  112.28    2.69
  -1  -3   1  105.41    2.35
  -1   3  -1  108.15    3.10
  -1   3  -1  108.95    2.27
   1   3   1  107.67    2.83
  -1   3  -1  106.41    2.93
   1  -3  -1  110.57    2.51
  -3  -3  -1   60.00    3.12
  -3  -3  -1   58.91    3.11
  -3   3   1   56.84    2.99
   3   3  -1   52.25    3.02
   3   3  -1   54.37    2.40
   3  -3   1   55.81    2.95
  -3   3   1   58.08    3.32
  -3  -3   1   55.72    3.08
  -3   3  -1   63.72    3.20
  -3   3  -1   58.18    3.24
   3  -3  -1   55.31    2.96
  -3  -3   1   55.29    2.23
   3   3   1   59.94    2.72
  -3   3  -1   53.27    2.35
  -5   3   1   31.28    3.64
   5   3  -1   37.57    4.44
  -5  -3  -1   25.85    3.58
   5  -3   1   23.49    3.52
  -5   3   1   24.19    3.63
   5  -3  -1   30.99    3.86
  -5  -3   1   26.47    3.49
  -5   3  -1   27.27    3.53
   5   3   1   30.89    4.08
   0   4  -1  153.74    3.67
   0  -4  -1  150.69    2.90
   0   4  -1  148.31    3.33
   0   4   1  149.90    3.20
   0  -4  -1  142.36    3.31
   0   4   1  149.11    3.21
   0  -4   1  147.19    3.33
  -2   4   1   92.58    3.49
  -2  -4  -1   90.02    3.24
   2   4  -1   91.65    2.96
   2  -4   1   97.06    2.98
  -2   4   1   92.51    3.56
  -2  -4  -1   90.45    3.23
   2   4  -1   87.42    3.29
   2   4   1   87.37    3.08
  -2   4  -1   91.25    2.87
  -2  -4   1   95.44    3.39
   2  -4  -1   87.93    2.94
  -2   4  -1   91.33    3.54
  -2  -4   1   93.88    2.34
  -2   4  -1   95.58    3.51
  -4  -4  -1   45.47    3.31
  -4   4   1   38.69    3.05
   4  -4   1   46.55    4.10
   4   4  -1   46.73    4.14
   4   4  -1   41.25    2.53
  -4  -4  -1   49.50    3.34
  -4   4   1   42.89    4.14
  -4   4  -1   45.04    4.15
  -4  -4   1   39.58    3.73
   4  -4  -1   46.48    3.29
  -4   4  -1   43.57    3.26
   4   4   1   41.27    2.78
  -6   4   1   22.62    3.87
   6   4  -1   18.65    3.85
  -6  -4  -1   24.09    3.76
   6  -4   1   19.28    3.58
  -6  -4   1   20.37    3.72
   6  -4  -1   18.26    3.60
  -6   4  -1   21.63    4.01
   6   4   1   15.24    3.70
   1  -5   1   12.02    1.53
   1   5  -1   11.90    1.40
   1  -5   1   10.30    0.68
  -1   5   1   11.05    1.43
  -1   5   1   11.61    1.06
  -1  -5  -1   10.82    1.14
  -1  -5  -1   14.36    1.49
   1  -5  -1   12.03    1.51
  -1  -5   1   11.96    1.12
  -1  -5   1   12.93    1.21
   1  -5  -1   12.84    0.93
   1   5   1   12.64    1.37
  -1   5  -1   11.55    1.21
  -1  -5   1   11.00    1.35
  -1   5  -1   11.22    1.49
   3   5  -1    5.72    1.16
   3   5  -1    5.66    1.43
  -3   5   1    6.18    1.45
   3  -5   1    4.78    1.18
  -3   5   1    7.80    1.69
  -3  -5  -1    6.05    1.40
  -3  -5  -1    5.84    1.37
  -3   5  -1    5.28    1.32
  -3  -5   1    7.68    1.61
  -3   5  -1    6.70    1.19
  -3  -5   1    7.66    0.99
   3  -5  -1    7.92    1.52
   3   5   1    6.94    1.33
  -3   5  -1    8.23    1.71
   5  -5   1    0.91    1.21
  -5   5   1    0.97    1.30
   5   5  -1    1.78    1.59
  -5  -5  -1    5.19    1.99
  -5   5   1    5.07    2.12
   5  -5  -1    2.22    1.38
  -5   5  -1    3.46    1.68
   5   5   1   -0.34    1.24
  -5   5  -1    3.25    1.73
  -5  -5   1    2.86    1.57
   0  -6  -1   27.38    1.33
   0  -6   1   26.62    1.68
   0   6   1   28.96    1.66
   0   6   1   29.64    1.69
   0  -6  -1   28.73    1.75
   0   6  -1   26.77    1.85
   0   6  -1   28.50    1.72
  -2   6   1   18.47    2.27
   2   6  -1   21.53    2.08
  -2   6   1   16.60    1.95
   2  -6   1   17.62    1.27
  -2  -6  -1   16.88    1.85
  -2  -6  -1   20.18    1.97
   2   6  -1   20.45    2.08
  -2   6   1   18.47    1.21
  -2  -6   1   20.09    1.13
  -2   6  -1   18.34    2.14
  -2   6  -1   19.34    1.81
   2   6   1   20.12    2.02
   2  -6  -1   19.47    1.39
  -2  -6   1   21.33    2.22
  -4   6   1    6.32    1.85
  -4   6   1   10.29    2.15
   4   6  -1    6.32    1.50
   4   6  -1    6.65    1.88
  -4  -6  -1    6.80    1.71
   4  -6   1   10.16    1.94
  -4  -6  -1    9.05    1.90
   4   6   1   12.81    2.05
  -4   6  -1    9.92    2.09
  -4  -6   1    9.85    2.09
   4  -6  -1   13.07    2.30
  -4   6  -1    9.02    2.13
   6   6  -1    6.03    2.47
   6  -6   1    4.27    2.20
  -6   6   1    8.61    2.87
  -6  -6  -1    2.59    1.99
   6   6   1    1.19    2.10
   6  -6  -1    6.44    2.24
  -6   6  -1    8.39    2.72
  -6  -6   1    4.28    2.32
  -1   7   1  101.36    3.72
  -1  -7  -1  102.64    3.00
   1   7  -1  103.16    3.51
  -1  -7  -1  106.39    3.61
   1  -7   1  101.18    3.72
  -1   7   1  104.04    3.10
  -1   7  -1  100.13    3.77
   1  -7  -1   99.04    2.42
   1   7   1  100.27    3.47
  -1   7  -1  104.66    3.34
  -1  -7   1  105.65    2.78
   1   7   1   96.10    2.80
   1  -7  -1  103.80    3.73
  -3   7   1   60.65    3.69
   3   7  -1   61.34    3.20
  -3  -7  -1   63.62    3.38
  -3  -7  -1   57.75    3.42
   3   7  -1   61.87    3.43
  -3   7   1   62.18    3.82
   3  -7   1   56.23    2.79
  -3   7  -1   56.61    2.78
  -3   7  -1   60.36    3.76
   3   7   1   60.44    3.28
   3  -7  -1   60.33    2.98
  -3   7  -1   64.03    3.80
  -3  -7   1   58.71    3.48
  -5  -7  -1   36.00    4.21
  -5   7   1   30.67    4.29
   5   7  -1   25.27    3.60
   5  -7   1   29.95    3.66
  -5   7   1   31.01    4.20
   5   7   1   28.33    4.10
  -5   7  -1   30.45    4.19
  -5   7  -1   34.02    4.26
  -5  -7   1   34.69    4.17
   5  -7  -1   32.41    3.85
   0   8   1   62.89    2.75
   0   8   1   59.61    2.70
   0   8  -1   62.92    2.82
   0  -8  -1   65.11    2.91
   0   8  -1   60.00    2.95
   0  -8  -1   64.80    2.03
   0  -8   1   64.32    2.92
   2  -8   1   46.14    2.98
   2   8  -1   43.32    2.50
  -2  -8  -1   46.58    2.52
   2  -8   1   40.40    1.74
   2   8  -1   48.69    2.77
  -2   8   1   47.02    3.04
  -2  -8  -1   44.16    2.74
  -2   8   1   47.82    2.17
   2  -8  -1   42.94    1.97
  -2  -8   1   44.71    1.83
  -2   8  -1   46.80    2.39
  -2   8  -1   45.37    3.04
   2  -8  -1   49.81    3.11
  -2  -8   1   46.81    2.80
   2   8   1   47.32    2.74
  -4  -8  -1   30.72    3.63
   4   8  -1   28.83    3.56
  -4   8   1   25.05    3.62
  -4  -8  -1   28.28    3.18
   4   8  -1   29.20    3.15
   4  -8   1   26.90    3.05
  -4   8   1   21.57    3.07
   4   8   1   29.77    3.33
   4  -8  -1   25.69    2.96
  -4   8  -1   30.34    3.57
  -4   8  -1   29.55    3.79
  -4  -8   1   30.37    3.58
  -6   8   1    8.94    3.09
  -6  -8  -1   19.27    3.56
  -6   8   1   18.38    3.96
   6   8  -1   17.94    3.69
   6   8   1   19.07    3.90
  -6   8  -1   17.76    3.72
  -6  -8   1   21.48    3.83
   1  -9   1   12.38    1.76
  -1   9   1    8.69    1.58
  -1  -9  -1   10.91    1.63
  -1  -9  -1   11.67    1.35
   1   9  -1    6.14    1.26
   1   9  -1   10.62    1.58
  -1   9   1   11.13    1.46
   1  -9  -1    9.94    0.96
   1   9   1   11.24    1.45
   1  -9  -1   11.73    1.73
  -1   9  -1    8.61    1.64
  -1  -9   1   10.09    1.53
   1   9   1   10.85    1.61
  -1   9  -1   10.99    1.56
   3   9  -1    5.52    1.50
  -3  -9  -1    8.01    1.60
   3   9  -1    6.87    1.69
  -3  -9  -1    6.52    1.58
   3  -9   1    4.44    1.54
  -3   9   1    8.47    2.10
  -3   9  -1    6.68    1.35
   3  -9  -1    4.95    1.76
  -3  -9   1    7.60    1.65
   3   9   1    7.66    1.70
  -3   9  -1    5.73    1.64
   3  -9  -1    7.16    1.31
  -5  -9  -1    2.32    1.62
  -5   9   1    2.79    1.87
   5   9  -1    1.28    1.65
   5   9   1    1.31    1.63
   5   9   1    2.06    1.67
  -5  -9   1    3.13    1.92
  -5   9  -1    4.88    2.36
   0  10   1   26.04    2.05
   0 -10   1   23.74    2.49
   0  10   1   25.39    2.33
   0 -10  -1   31.95    2.87
   0 -10  -1   21.50    1.22
   0  10  -1   23.68    2.38
   0  10  -1   22.48    2.47
  -2 -10  -1   19.06    2.05
  -2 -10  -1   18.58    2.42
  -2  10   1   17.76    2.51
   2  10  -1   18.90    2.31
  -2  10   1   21.72    2.08
   2  10  -1   24.27    2.46
   2 -10   1   20.21    2.70
   2  10   1   18.96    2.41
  -2 -10   1   19.09    2.35
  -2  10  -1   20.52    2.18
   2 -10  -1   15.23    2.36
  -2  10  -1   16.69    2.57
   4  10  -1   10.57    2.11
  -4  10   1   11.19    2.67
   4 -10   1   11.53    2.57
   4  10  -1   11.41    2.41
  -4 -10  -1    9.93    2.36
  -4 -10   1   15.74    2.99
   4 -10  -1    6.93    2.28
  -4  10  -1    9.56    2.45
   4  10   1   13.45    2.57
  -1 -11  -1    0.54    0.73
   1 -11   1    1.23    0.96
   1  11  -1    1.07    0.57
  -1  11   1   -0.74    0.56
  -1  11   1    1.40    0.81
   1  11  -1    0.96    0.74
   1  11  -1    0.74    0.76
  -1 -11  -1    0.30    0.48
   1  11   1    0.00    0.64
   1  11   1   -0.33    0.60
  -1  11  -1    0.28    0.93
  -1  11  -1    0.95    0.71
   1 -11  -1   -0.07    0.62
  -1 -11   1    0.92    0.81
   3  11  -1   -1.12    0.72
   3  11  -1   -1.26    0.65
   3 -11   1   -0.71    1.01
  -3 -11  -1   -0.12    0.71
  -3  11   1    0.33    1.15
  -3 -11  -1    0.47    0.95
   3 -11  -1   -1.23    0.97
   3  11   1    0.62    0.90
  -3 -11   1    1.16    1.03
  -3  11  -1   -0.09    0.89
  -3  11  -1    0.81    1.13
   5 -11   1    1.21    1.60
   5  11  -1    0.30    1.41
  -5 -11  -1    2.38    1.60
  -5  11   1    0.92    1.64
  -5 -11   1    1.91    1.60
   5  11   1    0.67    1.54
   5 -11  -1    3.25    2.08
  -5  11  -1   -2.56    1.36
   5  11   1    0.36    1.42
   0  12  -1   28.91    2.88
   0  12  -1   38.00    3.71
   0 -12   1   27.53    2.81
   0  12   1   36.51    2.78
   0  12   1   31.52    2.95
   0 -12  -1   39.04    2.88
  -2  12   1   21.34    2.92
  -2  12   1   23.64    2.37
   2  12  -1   25.10    2.50
   2 -12   1   31.07    3.58
  -2 -12  -1   24.16    2.36
  -2 -12  -1   27.42    2.97
   2  12  -1   26.06    2.95
  -2  12  -1   27.67    2.86
  -2 -12   1   29.45    3.17
   2  12   1   24.05    2.82
   2 -12  -1   26.41    3.30
  -2  12  -1   25.04    3.31
   4  12  -1   19.56    3.12
  -4  12   1   14.39    3.16
   4  12  -1   15.85    2.78
   4 -12   1   20.18    3.58
  -4 -12  -1   12.25    2.65
   4  12   1   18.08    3.10
   4 -12  -1   16.32    3.26
  -4  12  -1   16.19    3.15
   4  12   1   15.52    2.79
  -4 -12   1   14.35    2.79
   1 -13   1   -0.40    0.91
  -1  13   1   -0.94    0.61
  -1  13   1    0.07    0.90
   1  13  -1   -0.46    0.76
  -1 -13  -1   -0.11    0.69
   1  13  -1    0.33    0.87
  -1 -13   1   -0.57    0.75
  -1  13  -1   -0.47    0.73
  -1  13  -1    0.60    0.80
   1 -13  -1   -0.21    0.87
   1  13   1    0.60    0.76
   1  13   1   -0.29    0.76
  -3  13   1   -0.37    1.09
  -3 -13  -1   -0.61    0.96
   3  13  -1   -0.46    0.85
  -3 -13  -1   -1.00    0.67
   3 -13   1    1.84    1.42
   3  13  -1   -0.07    1.02
   3 -13  -1    0.69    1.21
  -3 -13   1    1.11    1.21
  -3  13  -1   -1.48    1.15
   3  13   1    0.48    0.98
   5  13  -1    0.60    1.60
   5 -13   1   -0.16    1.62
  -5 -13  -1    0.21    1.51
  -5  13   1    0.41    1.67
   5 -13  -1   -0.46    1.82
   5  13   1    0.86    1.74
  -5 -13   1   -0.57    1.52
   5  13   1    2.32    1.82
  -5  13  -1   -0.75    1.48
   0  14   1   43.47    3.28
   0 -14   1   44.36    3.37
   0  14   1   44.35    3.43
   0  14  -1   46.56    3.77
   0  14  -1   44.42    3.32
   0 -14  -1   47.26    3.51
  -2  14   1   34.03    4.07
  -2 -14  -1   40.47    3.98
  -2  14   1   39.51    2.92
   2 -14   1   37.53    4.10
   2  14  -1   39.69    3.92
  -2  14  -1   44.88    4.76
   2  14   1   39.09    3.98
  -2 -14   1   36.29    3.79
  -2  14  -1   39.54    3.62
   2 -14  -1   42.30    4.35
   4 -14   1   22.71    3.64
  -4  14   1   28.74    4.41
   4  14  -1   26.50    3.75
   4  14  -1   29.60    4.66
  -4 -14  -1   24.13    3.83
   4  14   1   21.44    3.36
  -4 -14   1   26.06    3.95
  -4  14  -1   20.59    3.77
   4 -14  -1   30.05    4.53
   4  14   1   25.40    3.80
  -1 -15  -1   24.35    3.08
  -1  15   1   19.37    2.68
   1 -15   1   16.68    2.93
   1  15  -1   19.52    2.84
  -1  15   1   18.50    3.00
  -1  15  -1   16.44    2.53
  -1 -15   1   19.92    2.89
   1 -15  -1   20.60    2.97
   1  15   1   18.40    2.68
  -1  15  -1   18.19    3.03
   3  15  -1   10.39    2.49
  -3 -15  -1   14.15    2.73
   3 -15   1   13.79    2.81
  -3  15   1   10.85    2.83
   3 -15  -1   12.72    2.99
   3  15   1   17.23    2.94
  -3 -15   1   21.83    3.40
  -3  15  -1   12.60    3.03
   0  16  -1    2.99    1.61
   0 -16   1   -0.08    1.06
   0  16  -1    0.68    0.99
   0  16   1    0.94    1.25
   0  16   1    0.44    1.02
   0 -16  -1    3.21    1.46
  -2  16   1    1.15    1.11
   2 -16   1   -0.76    1.09
  -2  16   1   -0.66    1.19
   2  16  -1   -1.59    1.03
  -2 -16  -1    1.12    1.33
   2 -16  -1    1.98    1.62
  -2  16  -1    0.78    1.39
  -2 -16   1    2.54    1.48
   2  16   1   -0.03    0.85
  -2  16  -1    0.81    1.08
   4 -16   1    1.39    1.85
  -4 -16  -1    1.18    1.65
   4  16  -1    0.87    1.54
  -4  16   1    0.70    1.87
   4  16   1   -0.71    1.30
  -4 -16   1    2.29    1.65
   4 -16  -1   -0.63    1.65
  -4  16  -1    1.72    1.86
   1 -17   1    7.56    2.19
   1  17  -1   10.67    2.38
  -1 -17  -1    8.73    2.19
  -1  17   1   13.65    2.93
  -1  17   1    7.94    2.04
  -1  17  -1   10.25    2.62
   1 -17  -1   10.38    2.62
  -1 -17   1    9.67    2.25
  -1  17  -1    9.05    2.20
   1  17   1    6.88    2.11
  -3  17   1    6.50    2.68
   3 -17   1    5.63    2.45
  -3 -17  -1    7.09    2.36
   3  17  -1    3.62    1.78
   3  17   1    3.79    1.98
  -3  17  -1    4.20    2.30
   3 -17  -1    2.75    1.79
  -3 -17   1    4.87    2.12
   0 -18   1   25.52    3.73
   0  18   1   24.78    3.59
   0 -18  -1   25.26    3.68
   0  18  -1   19.71    3.50
   0  18  -1   23.89    3.47
   2 -18   1   17.66    3.43
  -2  18   1   20.42    3.75
  -2 -18  -1   16.04    3.13
   2  18  -1   16.57    3.13
  -2  18  -1   21.35    4.07
  -2  18  -1   19.57    3.13
   2 -18  -1   16.24    3.42
   2  18   1   21.23    3.45
  -2 -18   1   16.13    3.05
  -1 -19  -1   17.36    3.15
   1 -19   1   19.47    3.89
   1  19  -1   17.97    3.31
  -1  19   1   12.84    2.66
  -1  19   1   20.32    3.81
  -1  19  -1   17.31    3.20
   1 -19  -1    8.22    2.60
  -1 -19   1   15.91    3.28
  -1  19  -1   10.77    2.90
   1  19   1   15.06    2.99
  -3  19   1   13.63    3.56
   3  19  -1   12.96    3.06
  -3 -19  -1    9.58    2.85
   3 -19   1    8.96    2.90
  -3 -19   1   11.17    2.91
  -3  19  -1   10.99    3.39
   3  19   1   12.45    3.17
   3 -19  -1    7.06    2.51
   0  20   1    6.19    2.20
   0  20  -1    6.30    2.21
   0 -20  -1    1.34    1.71
   0 -20   1    1.35    1.63
   2 -20   1    2.50    1.97
   2  20  -1    2.61    1.84
  -2  20   1    1.30    2.14
  -2 -20  -1    2.34    1.84
  -2  20  -1    3.03    2.45
   2  20   1   -1.24    1.36
   2 -20  -1    0.87    2.12
  -2 -20   1    3.12    1.91
   1 -21   1    8.99    2.94
  -1  21   1    8.17    2.59
   1  21  -1   10.23    2.79
  -1 -21  -1   13.36    3.41
   1 -21  -1   10.44    3.13
  -1 -21   1   12.12    3.18
  -1  21  -1    9.28    2.95
   1  21   1    8.79    2.59
  -1  21  -1    8.02    2.57
   0 -22  -1    0.05    1.62
   0 -22   1    0.28    1.60
   0   0  -2   26.84    1.08
   0   0   2   27.33    1.12
   0   0  -2   26.82    1.04
  -2   0  -2   18.63    1.84
  -2   0   2   14.63    1.47
  -2   0  -2   15.61    1.25
  -2   0  -2   16.41    1.62
   2   0  -2   19.31    1.93
  -2   0   2   17.15    1.88
  -4   0  -2   10.33    1.73
   4   0  -2    6.47    1.68
   4   0   2    8.81    1.59
  -4   0  -2    9.58    1.88
  -4   0  -2    8.13    1.85
  -4   0   2    8.88    1.98
  -4   0   2    8.86    1.71
  -6   0  -2    1.00    1.72
  -6   0   2    1.51    1.75
   6   0   2    3.21    2.16
   6   0  -2    0.65    1.65
   1   1  -2  284.35    5.05
  -1   1   2  288.33    5.20
   1   1  -2  280.80    4.28
  -1  -1  -2  282.53    5.36
  -1   1   2  278.89    5.11
  -1  -1  -2  283.52    4.77
  -1   1  -2  276.47    4.79
   1   1   2  290.50    4.49
  -1   1  -2  279.45    5.00
  -1   1  -2  282.74    5.13
   1   1   2  276.33    5.07
  -1  -1   2  280.38    4.96
   1  -1  -2  279.76    4.98
  -1  -1   2  275.71    4.96
  -1   1  -2  278.35    5.23
  -3  -1  -2  126.47    4.48
  -3  -1  -2  125.70    3.63
  -3  -1  -2  138.36    4.69
  -3   1   2  135.15    4.86
  -3   1   2  133.90    4.34
   3  -1   2  138.34    4.05
   3   1  -2  125.61    3.12
   3   1  -2  133.49    4.71
  -3   1  -2  130.79    4.49
  -3   1  -2  135.03    4.67
  -3  -1   2  134.36    4.80
  -3   1  -2  129.76    4.14
   3  -1  -2  141.44    4.77
   3   1   2  134.21    4.10
  -3  -1   2  133.22    4.02
  -5  -1  -2   65.15    4.55
   5   1  -2   73.51    4.85
  -5   1   2   52.65    4.97
   5  -1   2   67.90    4.79
   5   1   2   62.77    4.71
   5  -1  -2   68.36    4.70
  -5   1  -2   66.40    4.66
  -5  -1   2   70.20    4.82
   0  -2  -2   38.05    1.24
   0   2  -2   38.35    1.40
   0  -2  -2   39.46    1.40
   0   2   2   35.93    1.27
   0  -2   2   38.83    1.16
   0   2  -2   36.34    1.13
   0   2   2   36.38    1.32
   0  -2   2   38.09    1.64
  -2   2   2   24.60    1.88
   2   2  -2   23.86    1.77
  -2   2   2   23.42    1.71
   2   2  -2   22.63    1.27
  -2  -2  -2   25.80    1.70
  -2  -2  -2   26.42    2.28
  -2   2  -2   23.33    1.64
  -2   2  -2   25.07    1.73
   2  -2  -2   22.08    1.65
   2   2   2   21.56    1.55
  -2  -2   2   24.49    1.46
  -2   2  -2   24.78    1.61
  -2  -2   2   25.54    1.78
  -2   2  -2   24.65    1.78
   4   2  -2   12.32    2.30
  -4  -2  -2    7.52    1.76
   4  -2   2   15.02    2.52
  -4  -2  -2    6.20    1.66
  -4   2   2   15.91    2.48
   4  -2   2   11.19    1.74
  -4   2   2   11.27    1.91
  -4   2  -2   10.68    1.99
  -4  -2   2   12.21    2.22
  -4   2  -2   15.48    2.22
   4  -2  -2   13.63    2.30
   4   2   2   12.50    1.99
  -4  -2   2   12.04    1.82
  -6  -2  -2    5.06    2.02
  -6   2   2    3.44    2.04
   6  -2   2    3.15    2.04
   6   2  -2    4.40    2.18
   6   2   2    4.84    2.56
  -6   2  -2    6.17    2.36
   6  -2  -2    4.72    2.20
  -6  -2   2    4.29    2.11
  -1  -3  -2  146.66    3.79
  -1  -3  -2  145.98    3.37
   1   3  -2  151.35    3.35
  -1   3   2  139.69    3.69
   1   3  -2  151.76    3.39
  -1   3   2  148.40    3.66
  -1  -3   2  145.55    3.47
  -1  -3   2  150.63    3.34
  -1   3  -2  153.36    3.54
  -1   3  -2  152.90    3.05
  -1   3  -2  155.64    3.63
   1  -3  -2  147.89    3.31
  -1   3  -2  148.18    3.95
   1   3   2  152.54    3.63
  -3  -3  -2   76.48    3.62
   3   3  -2   76.18    3.64
  -3   3   2   67.81    3.63
   3   3  -2   65.32    2.57
  -3  -3  -2   74.05    3.43
  -3   3   2   73.89    3.44
  -3   3  -2   73.71    2.97
   3  -3  -2   76.53    3.50
  -3  -3   2   72.36    3.55
  -3  -3   2   73.92    2.71
  -3   3  -2   71.68    3.38
  -3   3  -2   71.28    3.53
   3   3   2   78.39    3.27
  -3   3  -2   72.42    3.25
   5   3  -2   38.07    4.46
  -5   3   2   37.12    4.14
   5  -3   2   38.78    4.38
  -5   3   2   31.03    3.78
  -5  -3  -2   33.92    3.81
  -5   3  -2   41.91    4.49
  -5  -3   2   32.42    3.89
   5   3   2   32.34    4.17
   5  -3  -2   39.18    4.42
   0  -4  -2   52.15    1.81
   0   4  -2   52.48    1.99
   0   4   2   55.83    1.88
   0   4   2   53.22    1.85
   0  -4  -2   54.90    1.96
   0   4  -2   57.58    2.34
   0  -4   2   54.36    1.92
   0   4  -2   50.27    1.23
  -2  -4  -2   36.37    2.07
   2   4  -2   35.16    2.16
  -2   4   2   38.49    2.37
  -2   4   2   33.21    2.16
  -2  -4  -2   34.14    2.16
   2   4  -2   36.04    1.89
  -2   4  -2   36.98    1.83
  -2   4  -2   33.80    2.15
  -2   4  -2   36.15    2.28
   2  -4  -2   35.82    1.97
  -2  -4   2   35.44    1.64
  -2  -4   2   35.29    2.17
  -2   4  -2   37.38    2.02
   2   4   2   37.75    2.11
  -4  -4  -2   19.61    2.57
  -4  -4  -2   16.41    2.54
  -4   4   2   15.41    2.46
   4  -4   2   17.31    2.52
  -4   4   2   21.71    2.92
   4   4  -2   19.93    2.90
  -4   4  -2   17.66    2.57
   4   4   2   20.09    2.48
  -4  -4   2   12.71    2.16
  -4   4  -2   16.52    2.45
   4  -4  -2   19.20    2.66
   6  -4   2   16.92    3.48
  -6   4   2    2.98    2.26
   6   4  -2    5.92    2.20
  -6  -4  -2    4.09    2.01
  -6  -4   2    9.45    2.82
  -6   4  -2    8.91    2.71
   6   4   2    9.08    3.00
   6  -4  -2    5.72    2.17
   1   5  -2  178.08    3.80
  -1   5   2  175.53    4.51
   1   5  -2  173.40    4.24
  -1  -5  -2  168.75    4.21
  -1  -5  -2  174.80    4.28
   1  -5   2  176.49    4.37
  -1   5   2  174.62    3.46
  -1   5  -2  164.59    4.09
   1   5   2  169.49    4.33
  -1  -5   2  172.10    3.93
  -1   5  -2  170.84    2.93
   1  -5  -2  170.30    4.45
  -1   5  -2  169.32    4.72
  -1  -5   2  169.14    4.19
   1  -5  -2  171.32    3.68
  -3   5   2  100.54    4.36
  -3  -5  -2  101.47    4.38
  -3  -5  -2   99.87    4.22
   3   5  -2  110.78    3.78
   3  -5   2  103.28    3.89
  -3   5   2  100.52    4.52
   3   5  -2  102.53    4.35
  -3  -5   2  102.02    4.33
  -3   5  -2  112.34    4.51
  -3  -5   2  100.90    3.10
   3   5   2  104.29    4.11
   3  -5  -2  106.78    4.03
  -3   5  -2  106.56    3.78
  -3   5  -2  102.89    4.49
   5  -5   2   60.54    5.29
  -5   5   2   55.65    5.21
  -5  -5  -2   47.10    4.55
  -5   5   2   37.74    4.24
   5   5  -2   55.31    5.37
   5   5   2   36.57    4.42
   5  -5  -2   54.14    5.09
  -5   5  -2   38.12    4.20
  -5   5  -2   58.01    5.32
  -5  -5   2   55.74    5.32
   0  -6   2  139.42    3.79
   0  -6  -2  131.21    3.74
   0   6   2  142.08    3.62
   0  -6  -2  143.95    3.40
   0   6   2  139.11    3.62
   0   6  -2  139.47    4.25
   0   6  -2  135.80    3.79
   2  -6   2  107.40    4.10
  -2   6   2  106.13    4.21
  -2  -6  -2  100.42    3.71
   2   6  -2  109.76    3.65
  -2   6   2  106.71    4.11
   2   6  -2  111.96    3.77
   2  -6   2  107.48    3.04
  -2  -6  -2  104.36    3.82
  -2   6  -2  101.31    4.16
  -2  -6   2  101.36    2.94
  -2   6  -2  106.56    3.58
   2   6   2  110.85    3.90
  -2  -6   2  111.06    3.97
   2  -6  -2  104.52    3.27
  -4   6   2   50.36    3.75
  -4  -6  -2   60.53    3.89
  -4  -6  -2   56.85    3.78
   4   6  -2   52.06    3.10
   4   6  -2   52.52    3.81
   4  -6   2   60.99    3.65
  -4   6   2   55.28    4.09
  -4   6  -2   57.73    3.99
  -4  -6   2   55.46    3.80
  -4   6  -2   64.66    4.19
   4   6   2   55.24    3.51
   4  -6  -2   58.95    3.66
   6   6  -2   17.23    3.44
  -6   6   2   26.26    4.35
  -6  -6  -2   20.57    3.61
   6  -6  -2   19.14    3.52
  -6   6  -2   34.76    4.81
   6   6   2   25.32    4.32
  -6  -6   2   21.62    3.84
  -1  -7  -2   35.13    1.94
  -1   7   2   31.42    1.69
   1   7  -2   31.38    1.60
   1  -7   2   33.16    2.16
  -1   7   2   38.26    2.31
  -1  -7  -2   33.92    2.10
   1   7  -2   33.34    2.10
   1   7   2   35.09    2.13
  -1  -7   2   34.83    1.98
  -1  -7   2   36.98    2.19
  -1   7  -2   33.58    2.36
   1   7   2   34.88    1.52
  -1   7  -2   33.95    2.02
   1  -7  -2   34.27    2.22
   1  -7  -2   34.10    1.57
   3   7  -2   27.76    3.08
  -3  -7  -2   19.73    2.38
  -3   7   2   19.32    2.62
   3  -7   2   20.21    2.14
  -3  -7  -2   26.27    2.80
  -3   7   2   23.24    2.95
   3   7  -2   21.43    2.44
  -3   7  -2   21.85    2.94
  -3  -7   2   19.85    2.67
   3   7   2   23.18    2.58
  -3   7  -2   20.17    2.56
   3  -7  -2   23.11    2.36
  -3   7  -2   20.07    2.14
  -5   7   2   14.01    3.24
   5   7  -2   10.99    2.58
  -5   7   2   15.51    3.17
  -5  -7  -2   11.08    2.50
  -5   7  -2    9.40    2.56
  -5   7  -2   11.71    2.78
  -5  -7   2   11.36    2.55
   5   7   2    9.61    2.30
   5  -7  -2   14.08    2.73
   5   7   2   12.44    3.07
   0   8  -2  112.94    3.85
   0  -8  -2  110.46    3.23
   0  -8  -2  112.15    3.86
   0  -8   2  114.18    3.84
   0   8   2  113.27    3.63
   0   8  -2  110.50    4.21
   0   8   2  110.37    3.63
   2   8  -2   81.34    3.31
  -2  -8  -2   92.22    3.83
  -2   8   2   84.70    2.78
   2  -8   2   86.52    3.97
   2  -8   2   81.31    2.39
  -2  -8  -2   86.23    3.50
  -2   8   2   80.76    3.93
   2   8  -2   83.46    3.54
  -2  -8   2   81.36    2.79
  -2  -8   2   85.66    3.78
   2   8   2   83.18    3.68
  -2   8  -2   85.95    3.42
   2  -8  -2   78.32    3.88
   2  -8  -2   81.33    2.89
  -2   8  -2   86.28    4.24
   4   8  -2   55.61    3.95
  -4  -8  -2   53.81    3.90
   4   8  -2   43.71    3.07
  -4  -8  -2   49.81    3.66
  -4   8   2   47.11    4.54
  -4   8   2   50.21    4.01
  -4  -8   2   47.49    4.41
  -4   8  -2   54.35    5.02
   4   8   2   46.29    3.44
   4  -8  -2   50.22    3.36
  -4   8  -2   51.40    5.13
  -6   8   2   21.72    4.01
  -6   8   2   22.42    4.33
   6   8  -2   17.69    3.56
  -6  -8  -2   28.49    4.11
  -6  -8   2   33.96    4.82
   6   8   2   25.37    4.38
  -6   8  -2   22.39    4.04
  -1  -9  -2   23.65    2.41
   1  -9   2   19.36    2.17
   1   9  -2   21.62    2.26
  -1   9   2   22.80    2.04
  -1  -9  -2   18.34    1.74
   1   9  -2   19.62    1.32
  -1   9   2   21.15    2.24
  -1   9  -2   23.56    2.72
   1  -9  -2   18.58    1.28
   1  -9  -2   24.54    2.59
  -1   9  -2   20.58    2.17
   1   9   2   20.52    2.12
  -1  -9   2   20.99    2.19
   1   9   2   17.91    1.69
  -1  -9   2   22.28    2.26
  -3  -9  -2    9.45    1.84
   3  -9   2   17.04    2.61
  -3   9   2   13.59    2.21
   3   9  -2   20.09    2.62
  -3  -9  -2   13.44    2.07
   3   9  -2   14.44    2.37
   3  -9  -2   12.46    2.35
  -3   9  -2   13.96    1.91
   3  -9  -2   14.42    1.93
  -3  -9   2   15.08    2.38
   3   9   2   10.75    1.91
  -3   9  -2   12.81    2.37
  -5   9   2    5.14    2.35
   5   9  -2    4.53    2.02
  -5  -9  -2    7.23    2.23
  -5  -9   2    5.47    2.17
   5   9   2    5.44    1.80
   5   9   2    4.88    2.14
  -5   9  -2    6.71    2.29
   0  10  -2  110.24    4.20
   0 -10  -2  100.31    4.11
   0 -10   2  108.27    4.19
   0  10   2  100.82    3.92
   0  10   2  103.88    3.96
   0 -10  -2   99.71    3.14
   0  10  -2  104.86    4.50
   2  10  -2   76.99    3.35
  -2 -10  -2   78.25    3.46
   2 -10   2   77.19    4.16
  -2 -10  -2   83.27    4.01
  -2  10   2   83.96    3.19
   2  10  -2   88.93    4.05
   2  10   2   82.96    4.03
  -2  10  -2   84.85    4.53
   2 -10  -2   77.98    2.88
   2 -10  -2   77.95    4.22
  -2 -10   2   72.33    2.96
  -2 -10   2   82.84    4.04
  -2  10  -2   78.44    3.57
  -4 -10  -2   54.95    4.19
   4 -10   2   47.15    4.79
  -4  10   2   41.52    4.64
  -4 -10  -2   41.85    3.95
   4  10  -2   50.93    3.54
   4  10  -2   39.25    4.06
   4  10   2   52.26    3.94
   4 -10  -2   45.33    5.11
  -4 -10   2   54.23    5.01
  -4  10  -2   54.91    5.55
  -1  11   2   15.20    1.96
   1  11  -2   13.33    2.01
  -1 -11  -2   14.56    1.61
  -1 -11  -2   10.72    1.70
   1 -11   2   10.25    1.86
   1  11  -2   12.32    1.35
  -1  11   2   13.59    2.14
  -1 -11   2   13.43    1.93
  -1  11  -2   12.96    1.87
   1 -11  -2   13.54    2.00
   1  11   2   15.31    2.10
   1  11   2   13.94    1.81
  -1  11  -2   14.38    2.46
  -3 -11  -2    7.26    1.63
   3  11  -2    5.90    1.66
  -3  11   2    4.97    1.77
   3 -11   2    8.06    2.00
   3  11  -2    9.71    2.00
  -3 -11  -2    9.06    1.99
   3  11   2    7.75    1.86
  -3  11  -2    7.90    1.64
  -3  11  -2   11.03    2.57
  -3 -11   2   10.44    2.10
   3 -11  -2   12.12    2.48
   5  11  -2    5.64    2.13
   5 -11   2    3.79    2.03
  -5 -11  -2    4.49    1.92
  -5  11   2    5.82    2.45
   5  11   2    3.40    2.06
   5  11   2    1.84    1.58
  -5 -11   2    3.94    1.83
   5 -11  -2    3.42    2.20
  -5  11  -2    4.32    2.43
   0 -12  -2  128.99    5.13
   0 -12   2  125.44    5.01
   0  12   2  128.67    4.83
   0  12  -2  132.30    5.50
   0  12  -2  126.31    5.03
   0  12   2  132.36    4.92
   2  12  -2  111.00    5.02
  -2 -12  -2  108.30    4.97
  -2  12   2  106.79    5.37
  -2 -12  -2  109.44    4.23
  -2  12   2  101.28    4.05
   2  12  -2   99.01    3.86
   2 -12   2   97.19    4.93
  -2  12  -2  109.55    4.64
  -2  12  -2  101.87    5.43
   2  12   2  110.62    5.02
  -2 -12   2  114.17    5.05
   2 -12  -2  110.43    5.31
   4 -12   2   73.52    5.16
  -4 -12  -2   64.31    4.34
   4  12  -2   61.38    4.34
  -4  12   2   58.99    5.87
  -4 -12  -2   69.21    5.01
   4  12  -2   66.22    4.45
  -4  12  -2   67.67    5.39
  -4 -12   2   70.39    5.07
   4  12   2   68.95    4.66
   4 -12  -2   58.63    5.69
   1 -13   2   10.20    2.11
  -1  13   2    9.52    2.01
  -1 -13  -2   12.18    1.98
   1  13  -2   10.06    1.90
  -1  13   2    9.54    1.72
   1  13   2   11.02    1.98
  -1 -13   2    8.42    1.83
   1 -13  -2   13.15    2.32
  -1  13  -2    9.67    2.24
  -1  13  -2   14.88    2.37
   3  13  -2    7.73    1.86
  -3 -13  -2    8.68    2.13
  -3  13   2    3.63    1.77
  -3 -13  -2    6.09    1.59
   3  13  -2   11.37    2.47
   3 -13   2    3.63    1.77
  -3  13  -2    6.99    2.20
  -3 -13   2    9.13    2.20
   3  13   2    6.27    1.86
  -3  13  -2    4.67    2.36
   3 -13  -2    8.53    2.31
  -5 -13  -2    2.14    1.91
   5  13  -2    2.78    1.85
   5 -13   2    1.41    1.71
  -5  13   2    5.74    2.48
   5 -13  -2    0.86    2.06
  -5 -13   2    2.86    2.07
   5  13   2    4.57    2.05
  -5  13  -2    6.85    2.73
   5  13   2    3.63    2.05
   0  14   2   36.78    3.56
   0 -14   2   39.09    3.82
   0 -14  -2   30.70    3.28
   0  14  -2   25.61    2.96
   0  14   2   29.37    3.12
   0  14  -2   39.66    4.17
  -2 -14  -2   27.03    3.26
  -2  14   2   26.56    3.59
   2 -14   2   34.40    4.12
  -2  14   2   30.58    3.08
   2  14  -2   25.24    3.26
   2 -14  -2   24.43    3.29
   2  14   2   27.94    3.38
  -2  14  -2   26.04    3.75
  -2 -14   2   29.80    3.40
  -2  14  -2   29.81    3.29
  -4  14   2   14.83    3.11
   4  14  -2   20.37    3.42
  -4 -14  -2   18.09    3.16
   4 -14   2   18.15    3.37
  -4  14  -2   21.95    4.11
  -4 -14   2   16.23    3.11
   4 -14  -2   21.40    3.83
   4  14   2   24.09    3.74
   1  15  -2   16.13    2.68
  -1 -15  -2   21.28    2.91
  -1  15   2   19.47    2.67
  -1  15   2   20.52    2.99
   1 -15   2   13.78    2.51
  -1  15  -2   16.04    2.85
  -1  15  -2   16.67    2.54
  -1 -15   2   16.59    2.64
   1 -15  -2   22.66    3.16
   1  15   2   16.07    2.53
  -3  15   2   14.08    2.92
   3 -15   2   10.82    2.65
   3  15  -2   15.78    2.91
  -3 -15  -2   17.31    3.10
  -3  15  -2   21.74    3.88
   3  15   2   13.96    2.83
  -3 -15   2   12.00    2.72
   3 -15  -2   14.57    3.01
   0  16   2   69.10    4.56
   0  16  -2   77.24    5.05
   0 -16   2   74.20    4.78
   0  16   2   73.54    4.50
   0 -16  -2   71.48    4.57
   0  16  -2   69.70    4.55
   2 -16   2   65.83    4.84
  -2 -16  -2   60.39    5.31
   2  16  -2   45.75    4.59
  -2  16   2   51.78    5.27
   2 -16  -2   62.31    5.73
  -2 -16   2   56.72    4.35
  -2  16  -2   55.94    5.71
  -2  16  -2   58.08    4.15
   2  16   2   59.10    4.45
   4 -16   2   34.13    4.79
   4  16  -2   30.91    4.34
  -4  16   2   31.09    4.64
  -4 -16  -2   31.79    4.42
   4  16   2   37.66    4.72
  -4  16  -2   33.47    5.22
   4 -16  -2   44.14    5.65
  -4 -16   2   40.57    5.01
  -1  17   2   32.91    3.66
  -1  17   2   35.85    4.41
   1  17  -2   33.07    4.02
  -1 -17  -2   37.15    4.08
   1 -17   2   29.66    3.85
   1 -17  -2   36.87    4.33
  -1  17  -2   32.79    4.47
   1  17   2   32.73    3.86
  -1  17  -2   28.47    3.54
  -1 -17   2   39.68    4.47
   3 -17   2   25.76    4.11
  -3  17   2   23.89    4.15
   3  17  -2   22.38    3.59
  -3 -17  -2   25.45    3.70
  -3  17  -2   24.05    4.40
   3 -17  -2   25.08    4.11
  -3 -17   2   31.64    4.39
   3  17   2   22.01    3.55
   0  18  -2   12.94    2.76
   0 -18   2    5.47    2.10
   0 -18  -2    6.84    2.09
   0  18   2    9.31    2.21
   0  18  -2    8.25    2.36
   2  18  -2    8.10    2.37
   2 -18   2    8.67    2.64
  -2  18   2    6.83    2.47
  -2 -18  -2    8.48    2.23
   2 -18  -2    6.98    2.42
  -2  18  -2   12.30    3.28
  -2 -18   2    8.54    2.38
  -2  18  -2    9.43    2.38
   2  18   2    5.76    2.15
  -1 -19  -2   37.87    4.56
   1 -19   2   32.04    4.47
   1  19  -2   35.81    4.38
  -1  19   2   37.98    4.28
  -1  19   2   28.54    4.20
   1  19   2   25.81    3.79
  -1 -19   2   34.72    4.59
  -1  19  -2   41.08    5.24
   1 -19  -2   31.47    4.22
  -1  19  -2   24.40    3.66
   3  19  -2   22.48    3.79
   3 -19   2   15.76    3.42
  -3 -19  -2   17.93    3.30
  -3  19   2   22.22    4.45
  -3 -19   2   30.04    4.61
   3  19   2   28.65    4.47
  -3  19  -2   23.22    4.62
   3 -19  -2   32.06    5.22
   0  20   2   10.34    2.68
   0  20  -2    6.50    2.37
   0 -20  -2    6.43    2.25
   0 -20   2    6.71    2.37
   2  20  -2    5.36    2.32
   2 -20   2   10.52    3.27
  -2  20   2    6.12    2.65
  -2 -20  -2    7.67    2.59
  -2  20  -2    8.89    2.77
  -2  20  -2    4.64    2.74
   2  20   2    5.58    2.26
  -2 -20   2    4.71    2.14
   2 -20  -2    7.01    2.70
  -1  21   2   18.45    3.40
   1 -21   2   15.25    3.74
  -1 -21  -2   13.19    3.11
   1  21  -2   23.52    4.03
   1  21   2   20.01    3.72
  -1  21  -2   16.64    3.40
  -1  21  -2   27.43    4.66
  -1 -21   2   21.20    4.08
   1 -21  -2   27.89    4.31
   0   0   3   -0.97    0.36
   0   0  -3   -0.17    0.41
   0   0  -3   -0.37    0.46
  -2   0  -3   -0.65    0.45
  -2   0   3    0.36    0.56
  -2   0   3    0.11    0.57
   2   0  -3    0.09    0.53
  -2   0  -3   -0.24    0.46
  -2   0  -3   -0.37    0.48
  -2   0  -3   -0.12    0.51
  -4   0  -3   -0.49    0.75
  -4   0   3   -0.39    0.90
  -4   0  -3   -0.82    0.86
   4   0  -3    0.16    0.91
  -4   0   3    0.13    0.76
   4   0   3    2.02    0.98
  -6   0   3    1.62    1.99
   6   0   3   -1.13    1.53
   6   0  -3   -1.70    1.32
  -6   0  -3   -0.61    1.49
   1   1  -3  129.37    3.24
  -1   1   3  132.45    3.25
  -1   1   3  133.78    3.48
  -1  -1  -3  140.25    3.74
   1   1  -3  134.53    2.72
  -1  -1  -3  134.85    3.41
  -1  -1  -3  134.33    2.84
  -1   1  -3  129.50    3.48
  -1   1  -3  130.72    3.49
  -1   1  -3  138.19    3.50
  -1  -1   3  133.33    3.40
  -1   1  -3  134.48    2.86
   1   1   3  129.02    2.89
   1  -1  -3  133.63    3.32
  -1  -1   3  130.68    3.08
  -3  -1  -3   64.32    3.30
  -3   1   3   67.13    3.16
  -3   1   3   62.03    3.36
  -3  -1  -3   56.86    2.51
   3   1  -3   64.88    3.30
  -3  -1  -3   59.88    3.07
  -3   1  -3   62.22    3.15
  -3   1  -3   61.33    2.93
  -3  -1   3   59.24    3.27
  -3   1  -3   56.98    3.20
   3   1   3   65.47    3.03
   3  -1  -3   67.40    3.33
  -3  -1   3   64.22    2.87
   5  -1   3   25.79    3.66
  -5  -1  -3   24.87    3.28
  -5   1   3   30.43    3.99
   5   1  -3   26.86    3.61
  -5  -1   3   30.37    4.01
   5   1   3   32.24    4.31
   5  -1  -3   22.83    3.43
  -5   1  -3   31.30    3.80
   0   2   3  296.81    5.15
   0  -2  -3  297.40    4.56
   0   2   3  296.50    5.02
   0  -2   3  297.89    5.61
   0   2  -3  294.51    5.30
   0   2  -3  299.11    4.83
   0  -2  -3  295.20    5.22
   0  -2   3  294.29    4.39
   2   2  -3  194.21    3.91
   2   2  -3  195.83    5.02
  -2   2   3  197.92    5.25
  -2   2   3  199.60    5.11
  -2  -2  -3  201.31    4.79
  -2  -2  -3  192.54    5.20
  -2   2  -3  186.80    4.82
   2   2   3  196.84    4.94
  -2   2  -3  200.56    5.19
   2   2   3  194.54    3.87
  -2  -2   3  200.06    5.03
   2  -2  -3  186.56    4.87
  -2   2  -3  195.31    4.84
  -2   2  -3  190.11    4.79
  -2  -2   3  198.49    4.67
  -4  -2  -3  107.20    4.91
   4  -2   3  106.61    4.36
  -4  -2  -3  108.34    5.05
   4   2  -3  107.68    5.00
  -4   2   3  102.81    5.11
  -4   2   3  108.54    4.70
  -4   2  -3  107.06    5.00
  -4   2  -3   95.99    4.65
  -4  -2   3  107.55    4.21
  -4   2  -3   98.24    4.42
   4  -2  -3  113.65    5.13
   4   2   3  103.60    4.37
  -4  -2   3  114.06    5.29
   6  -2   3   51.14    5.88
   6   2  -3   61.77    6.65
  -6  -2  -3   60.48    5.93
   6  -2  -3   59.65    6.26
  -6   2  -3   51.90    5.45
   6   2   3   57.21    6.36
  -6  -2   3   56.50    5.93
   1   3  -3   11.75    1.22
   1   3  -3    8.22    1.08
  -1   3   3    8.76    1.12
  -1   3   3    9.22    1.24
  -1  -3  -3    7.26    0.90
  -1  -3  -3    9.23    1.38
  -1  -3   3    9.31    1.13
   1  -3  -3   11.39    1.29
   1   3   3   10.36    0.85
  -1  -3   3    8.75    1.10
  -1   3  -3    9.02    1.03
  -1   3  -3    8.43    1.31
  -1   3  -3    7.61    1.15
   1   3   3    7.67    1.09
  -3  -3  -3    3.07    1.11
   3   3  -3    4.58    0.93
  -3  -3  -3    4.64    1.21
  -3   3   3    3.78    1.16
  -3   3   3    3.55    1.21
   3   3  -3    4.72    1.21
  -3   3  -3    4.68    1.15
  -3   3  -3    5.55    1.34
  -3  -3   3    4.27    1.27
   3  -3  -3    4.51    1.26
  -3   3  -3    4.03    1.05
  -3   3  -3    5.69    1.29
   3   3   3    2.52    0.98
  -3  -3   3    4.33    1.02
  -5  -3  -3    2.12    1.50
  -5   3   3    1.46    1.27
  -5   3   3    0.41    1.25
  -5  -3  -3    0.56    1.30
   5   3  -3    3.99    1.84
   5  -3   3    1.74    1.33
  -5   3  -3   -0.41    1.17
  -5  -3   3    1.58    1.63
   5  -3  -3    1.19    1.40
   0  -4   3   46.66    2.38
   0  -4   3   47.28    1.77
   0   4  -3   48.16    2.04
   0   4   3   48.11    1.85
   0   4   3   47.93    1.88
   0  -4  -3   48.28    1.86
   0   4  -3   43.50    1.41
   0  -4  -3   47.54    1.87
  -2   4   3   30.94    2.16
  -2  -4  -3   33.37    1.97
   2   4  -3   28.68    1.94
  -2  -4  -3   32.04    2.16
   2   4  -3   26.16    1.65
  -2   4   3   29.57    2.14
   2   4   3   28.71    2.00
  -2   4  -3   29.60    2.01
  -2  -4   3   30.25    2.01
  -2  -4   3   30.20    1.75
   2  -4  -3   29.29    1.87
  -2   4  -3   34.03    2.34
  -2   4  -3   29.64    1.73
  -2   4  -3   31.55    2.07
  -4   4   3   12.11    2.11
  -4   4   3    8.71    2.00
   4  -4   3   11.78    2.18
  -4  -4  -3   13.47    2.19
  -4  -4  -3   11.55    2.15
   4   4  -3   16.65    2.66
   4   4   3   17.58    2.50
   4  -4  -3   15.67    2.45
  -4   4  -3   13.19    2.23
  -4  -4   3   15.46    2.56
  -4   4  -3   15.37    2.16
  -4   4  -3   12.97    2.20
  -6  -4  -3    7.06    2.34
   6  -4   3    5.28    2.25
   6   4  -3    7.19    2.47
  -6   4   3    5.70    2.40
  -6   4  -3    4.85    2.12
   6   4   3    5.42    2.58
  -6  -4   3   10.68    2.86
   6  -4  -3    6.37    2.43
   1   5  -3  365.23    6.43
   1  -5   3  367.55    6.95
  -1  -5  -3  365.18    6.85
  -1   5   3  379.32    5.99
  -1   5   3  360.29    7.34
  -1  -5  -3  353.38    7.33
   1   5  -3  366.95    6.92
  -1   5  -3  368.35    5.68
  -1   5  -3  352.32    7.07
   1   5   3  371.08    5.59
  -1  -5   3  365.32    6.97
   1  -5  -3  350.68    7.07
  -1  -5   3  354.88    6.79
  -1   5  -3  362.51    7.94
   1  -5  -3  362.76    6.54
   1   5   3  371.33    7.23
   3   5  -3  205.09    5.29
  -3  -5  -3  207.16    6.39
  -3   5   3  200.10    6.54
  -3  -5  -3  214.47    6.26
   3   5  -3  207.55    6.28
  -3   5   3  208.03    6.49
  -3   5  -3  199.72    5.72
   3   5   3  211.14    6.20
  -3   5  -3  208.26    6.31
   3  -5  -3  222.48    6.09
  -3  -5   3  207.80    6.35
  -3   5  -3  208.53    5.62
  -3   5  -3  195.49    6.45
  -3  -5   3  212.80    5.12
   5  -5   3   91.44    5.28
  -5  -5  -3   89.73    5.44
   5   5  -3   95.07    5.56
  -5  -5  -3   95.63    5.50
  -5   5   3   91.41    5.42
  -5   5   3  100.27    6.01
   5   5   3   84.17    4.90
  -5   5  -3   99.46    5.66
  -5   5  -3  104.20    5.80
   5  -5  -3   94.75    5.54
  -5  -5   3  101.80    5.76
   0  -6   3  322.23    6.33
   0  -6  -3  314.14    6.11
   0   6   3  330.32    6.36
   0   6   3  327.49    6.32
   0  -6  -3  338.17    6.55
   0   6  -3  325.16    7.26
  -2  -6  -3  242.04    6.32
  -2   6   3  251.01    6.60
   2   6  -3  242.57    5.87
  -2  -6  -3  243.53    6.09
   2   6  -3  237.00    5.87
   2  -6   3  241.84    6.37
  -2  -6   3  245.75    6.28
  -2  -6   3  247.13    5.41
   2  -6  -3  248.10    5.67
   2   6   3  242.76    6.29
  -2   6  -3  240.68    4.96
  -2   6  -3  243.05    6.88
  -2   6  -3  239.07    6.06
   4   6  -3  119.73    5.53
  -4   6   3  124.34    5.73
  -4  -6  -3  126.07    5.49
   4  -6   3  120.92    5.05
  -4  -6  -3  120.02    5.56
  -4  -6   3  128.58    5.73
  -4   6  -3  135.56    5.83
   4  -6  -3  127.03    5.33
   4   6   3  121.40    5.23
  -4   6  -3  139.10    6.12
   6   6  -3   56.77    6.33
  -6   6   3   51.90    5.94
   6  -6  -3   58.99    6.00
   6   6   3   64.93    6.81
  -6   6  -3   51.42    5.77
  -6  -6   3   55.92    6.01
   1   7  -3   15.81    1.52
   1   7  -3   13.82    1.71
  -1   7   3   14.15    1.43
  -1  -7  -3   11.13    1.44
  -1   7   3   10.61    1.56
   1  -7   3   11.22    1.54
  -1  -7  -3   11.81    1.58
   1  -7  -3   14.37    1.86
  -1  -7   3   13.66    1.60
   1   7   3   15.19    1.77
  -1  -7   3   12.89    1.70
   1  -7  -3   12.05    1.31
   1   7   3   12.95    1.03
  -1   7  -3   12.86    1.94
  -1   7  -3   13.79    1.65
  -3  -7  -3    7.45    1.67
   3  -7   3    7.70    1.42
   3   7  -3    7.54    1.66
  -3   7   3    9.93    1.89
  -3   7   3    4.39    1.51
   3   7  -3    9.75    1.82
  -3  -7  -3    4.07    1.28
  -3  -7   3    6.06    1.44
  -3   7  -3    7.11    1.81
   3   7   3    7.90    1.66
   3  -7  -3    6.69    1.39
  -3   7  -3    6.68    1.46
   5   7  -3    1.37    1.59
  -5  -7  -3    4.27    1.70
  -5   7   3    1.64    1.64
  -5   7   3    3.18    1.97
  -5  -7  -3    6.16    2.07
   5  -7  -3    2.42    1.56
   5   7   3    2.79    1.46
  -5  -7   3    5.05    1.95
  -5   7  -3    2.88    1.91
  -5   7  -3    8.12    2.52
   0   8   3   28.07    1.89
   0   8   3   27.00    1.86
   0   8  -3   25.69    2.59
   0   8  -3   26.15    1.98
   0  -8  -3   28.21    2.50
   0  -8   3   27.03    1.93
   0  -8  -3   27.36    1.79
   2   8  -3   21.66    2.36
   2   8  -3   20.60    2.24
   2  -8   3   17.52    1.25
   2  -8   3   13.45    1.93
  -2   8   3   16.44    2.24
  -2  -8  -3   19.94    2.29
  -2  -8  -3   25.11    2.44
  -2   8   3   20.66    1.39
  -2   8  -3   21.98    2.83
   2   8   3   21.02    2.37
  -2   8  -3   20.28    2.29
  -2  -8   3   16.95    2.15
  -2  -8   3   22.05    2.14
   2  -8  -3   20.86    2.02
   2  -8  -3   20.81    2.54
  -4  -8  -3    5.77    1.80
   4   8  -3   11.15    2.33
  -4  -8  -3   13.05    2.29
   4   8  -3   13.48    2.22
  -4   8   3   11.69    2.33
  -4   8   3    9.17    2.37
  -4   8  -3    8.28    2.28
  -4  -8   3    6.32    1.88
   4   8   3   11.03    2.22
   4  -8  -3    9.23    1.82
  -6  -8  -3    5.62    2.22
   6   8  -3    4.46    2.43
  -6   8   3    3.64    2.17
  -6   8   3    2.48    2.33
  -6  -8   3    1.73    1.92
   6   8   3    4.41    2.44
  -6   8  -3    6.22    2.77
  -1  -9  -3  155.10    4.63
   1   9  -3  152.08    5.01
  -1   9   3  151.14    4.30
   1  -9   3  156.53    5.07
   1   9  -3  146.53    3.69
  -1   9   3  156.67    5.24
  -1  -9  -3  149.63    4.89
   1   9   3  159.59    5.08
   1  -9  -3  156.40    4.01
  -1   9  -3  157.07    5.74
   1  -9  -3  157.46    5.14
  -1  -9   3  159.78    5.12
   1   9   3  161.00    4.09
  -1   9  -3  153.37    4.95
  -1  -9   3  156.40    4.94
  -3  -9  -3  100.91    4.75
   3  -9   3  106.02    5.04
   3   9  -3  110.99    4.68
  -3   9   3  110.92    5.36
  -3  -9  -3  108.96    4.76
   3   9  -3  105.52    4.55
  -3  -9   3  114.68    5.06
   3  -9  -3  103.84    4.13
  -3   9  -3  119.99    5.74
   3  -9  -3  101.80    5.26
  -3   9  -3  105.78    4.47
   3   9   3  102.05    4.78
   5  -9   3   59.09    6.08
   5   9  -3   64.53    4.76
  -5  -9  -3   58.40    5.33
  -5  -9  -3   67.63    4.92
  -5   9   3   69.71    5.44
  -5  -9   3   46.47    4.87
   5   9   3   60.34    5.43
  -5   9  -3   58.72    6.34
   0 -10  -3   52.42    3.06
   0 -10  -3   57.84    2.68
   0 -10   3   52.44    2.98
   0  10  -3   48.63    2.96
   0  10  -3   51.91    3.33
   0  10   3   52.62    2.86
   0  10   3   54.35    2.85
   2 -10   3   41.92    3.19
   2  10  -3   43.21    3.01
   2  10  -3   42.51    2.49
  -2 -10  -3   42.76    2.95
  -2 -10  -3   39.94    2.72
  -2  10   3   44.59    2.30
  -2  10   3   45.34    3.32
  -2  10  -3   43.07    4.18
   2 -10  -3   42.66    2.28
   2  10   3   42.15    3.03
  -2 -10   3   38.28    2.37
   2 -10  -3   43.82    3.28
  -2 -10   3   44.73    3.04
  -2  10  -3   36.53    2.67
   4 -10   3   27.88    3.95
  -4  10   3   23.59    3.66
   4  10  -3   30.09    3.56
   4  10  -3   28.42    3.50
  -4 -10  -3   25.21    3.32
  -4 -10  -3   28.62    3.76
   4  10   3   28.53    3.71
  -4  10  -3   28.88    4.11
  -4 -10   3   27.70    3.74
   4 -10  -3   30.65    4.10
   1  11  -3   -0.26    0.62
  -1 -11  -3    0.04    0.63
  -1  11   3   -0.51    0.49
  -1 -11  -3   -0.14    0.71
  -1  11   3    0.86    0.88
   1 -11   3   -0.48    0.72
  -1 -11   3   -0.37    0.81
   1  11   3    1.12    0.74
  -1  11  -3    0.20    0.91
   1 -11  -3    0.23    0.60
  -1 -11   3    0.84    0.81
   1  11   3   -0.07    0.63
   1 -11  -3    0.70    0.90
  -1  11  -3    1.69    0.93
  -3  11   3    0.26    0.99
  -3 -11  -3   -0.28    0.89
  -3 -11  -3    0.14    0.86
   3 -11   3   -0.09    0.93
   3  11  -3   -0.15    0.83
   3  11  -3   -1.29    0.79
   3  11   3    1.04    1.01
  -3  11  -3   -0.09    1.06
   3 -11  -3    0.52    1.21
  -3 -11   3   -0.53    0.83
  -3  11  -3    0.11    0.93
   5  11  -3    3.03    1.69
  -5  11   3    0.75    1.65
   5 -11   3   -1.22    1.40
  -5 -11  -3    2.82    1.55
   5  11   3   -0.08    1.29
   5 -11  -3    1.06    2.06
  -5  11  -3   -2.45    1.67
  -5 -11   3    0.80    1.55
   0  12   3   47.25    3.10
   0 -12  -3   48.97    3.23
   0  12   3   49.93    3.18
   0 -12   3   49.37    3.19
   0 -12  -3   48.22    2.54
   0  12  -3   53.97    3.45
   0  12  -3   53.17    3.72
   2  12  -3   39.53    2.65
  -2 -12  -3   39.17    2.77
  -2 -12  -3   35.93    3.44
  -2  12   3   37.71    2.46
   2  12  -3   42.04    3.88
  -2  12   3   31.94    3.56
   2 -12   3   37.97    3.75
  -2 -12   3   37.02    3.58
   2 -12  -3   36.02    3.61
  -2  12  -3   37.27    4.14
  -2  12  -3   39.72    2.94
   2  12   3   43.53    3.95
  -4 -12  -3   20.29    3.42
   4  12  -3   22.18    3.34
  -4 -12  -3   20.12    2.95
   4  12  -3   21.22    3.18
   4 -12   3   21.63    3.45
  -4  12   3   26.91    4.34
  -4  12  -3   22.03    3.98
   4  12   3   24.26    3.63
   4 -12  -3   24.90    4.00
  -4 -12   3   25.59    3.73
  -1 -13  -3  119.45    4.34
   1  13  -3  127.20    5.42
   1 -13   3  119.01    5.37
  -1  13   3  126.41    5.57
  -1  13   3  119.32    4.75
  -1 -13  -3  123.14    5.29
  -1  13  -3  114.07    5.74
  -1  13  -3  121.17    5.24
  -1 -13   3  120.99    5.28
  -1 -13   3  122.22    5.34
   1  13   3  111.05    5.07
   1 -13  -3  115.42    5.33
  -3 -13  -3   90.78    4.58
   3 -13   3   84.26    5.21
  -3  13   3   80.09    5.43
   3  13  -3   82.41    4.91
  -3 -13  -3   87.78    5.15
  -3  13  -3   81.10    5.76
   3 -13  -3   92.05    5.59
  -3 -13   3   87.84    5.17
   3  13   3   80.62    5.00
  -3  13  -3   85.67    4.64
   5 -13   3   46.70    5.55
  -5  13   3   54.78    6.28
   5  13  -3   52.14    5.64
  -5 -13  -3   50.74    5.37
  -5  13  -3   43.24    5.85
   5  13   3   48.62    5.37
  -5 -13   3   47.31    5.45
   5  13   3   46.74    5.28
   5 -13  -3   48.59    5.84
   0 -14   3   -0.71    0.88
   0  14  -3    0.49    1.15
   0  14   3    0.09    0.85
   0  14  -3    0.08    0.85
   0 -14  -3   -0.14    0.94
   0  14   3    0.58    0.89
  -2 -14  -3   -0.95    0.85
  -2  14   3    0.50    1.17
   2  14  -3    1.22    1.04
  -2 -14  -3    2.36    1.63
   2 -14   3   -0.56    1.09
   2 -14  -3    0.43    1.10
   2  14   3   -0.26    0.91
  -2  14  -3    1.50    1.30
  -2 -14   3    0.64    1.02
  -2  14  -3    1.06    1.09
   4 -14   3    3.88    1.98
   4  14  -3    1.18    1.38
  -4 -14  -3   -1.54    1.04
  -4  14   3    1.99    1.63
  -4 -14  -3   -0.14    1.30
   4 -14  -3   -1.48    1.47
  -4 -14   3   -0.57    1.30
  -4  14  -3    2.24    1.90
   4  14   3    1.58    1.57
  -1  15   3   25.75    2.98
  -1  15   3   15.75    2.82
  -1 -15  -3   20.56    2.88
   1 -15   3   18.61    3.09
   1  15  -3   21.17    3.09
  -1 -15   3   19.39    3.00
   1 -15  -3   18.87    2.91
  -1 -15   3   20.47    3.13
  -1  15  -3   17.65    3.15
  -1  15  -3   20.59    2.94
   1  15   3   20.23    2.88
   3 -15   3   10.27    2.52
   3  15  -3    9.98    2.32
  -3  15   3   10.37    2.52
  -3 -15  -3   13.01    2.72
  -3  15  -3   14.03    3.28
   3 -15  -3   13.25    2.83
   3  15   3   13.68    2.83
  -3 -15   3    9.70    2.28
   0 -16   3  114.89    5.76
   0  16   3  106.12    5.50
   0  16  -3  113.06    5.82
   0 -16  -3  107.18    5.57
   0  16  -3  112.25    6.06
   0  16   3  109.68    5.45
  -2 -16  -3   95.48    5.50
   2  16  -3   90.94    5.39
  -2  16   3   80.19    5.59
   2 -16   3   89.33    5.65
  -2  16  -3   88.62    5.12
   2 -16  -3   93.98    5.73
  -2 -16   3   88.48    5.37
  -2  16  -3   97.71    6.39
   2  16   3   77.73    5.19
  -4 -16  -3   68.25    6.18
   4  16  -3   65.93    6.01
   4 -16   3   60.69    6.53
   4  16   3   53.09    5.85
  -4 -16   3   63.90    6.38
   4 -16  -3   54.49    6.30
  -4  16  -3   56.00    6.71
  -1  17   3   72.62    4.46
  -1  17   3   76.76    5.25
   1  17  -3   72.60    4.92
  -1 -17  -3   78.38    5.12
   1 -17   3   72.21    5.09
   1  17   3   65.91    4.58
  -1  17  -3   78.31    5.56
  -1  17  -3   70.45    4.84
   1 -17  -3   69.57    5.08
  -1 -17   3   65.18    4.85
  -3  17   3   49.39    5.58
   3  17  -3   46.13    5.11
  -3 -17  -3   52.40    5.16
   3 -17   3   54.18    5.74
  -3  17  -3   57.79    6.54
   3 -17  -3   47.10    5.44
   3  17   3   61.87    5.89
  -3 -17   3   45.41    4.88
   0  18  -3   -1.36    1.33
   0  18  -3   -0.14    1.28
   0  18   3    0.48    1.31
   0 -18   3    1.16    1.51
   0 -18  -3    2.03    1.64
  -2  18   3    1.21    1.59
   2  18  -3   -0.63    1.15
   2 -18   3    0.97    1.68
  -2 -18  -3    0.43    1.29
  -2 -18   3   -0.01    1.15
   2  18   3   -0.45    1.19
  -2  18  -3    0.85    1.47
   2 -18  -3   -0.21    1.48
  -2  18  -3   -1.49    1.54
  -1  19   3    7.80    2.58
   1 -19   3   10.69    2.82
   1  19  -3    4.27    2.07
  -1 -19  -3    8.23    2.28
  -1  19   3    8.98    2.25
  -1  19  -3    3.64    2.23
   1 -19  -3   10.54    2.61
  -1 -19   3    5.85    2.28
   1  19   3   10.94    2.72
  -1  19  -3    2.72    1.76
  -3  19   3    9.22    3.08
   3 -19   3    2.92    2.34
   3  19  -3    6.53    2.44
  -3 -19  -3    5.16    2.35
   3  19   3    1.75    1.77
  -3  19  -3    6.07    2.86
   3 -19  -3    7.56    2.83
  -3 -19   3    5.44    2.52
   0  20  -3   59.55    5.87
   0 -20   3   66.56    6.61
   0 -20  -3   52.67    5.45
   0  20   3   55.44    5.47
   2 -20   3   39.56    5.28
  -2  20   3   61.98    6.65
  -2 -20  -3   47.56    5.45
   2  20  -3   49.06    5.47
  -2 -20   3   46.82    5.32
  -2  20  -3   50.61    5.48
  -2  20  -3   50.20    6.30
   2  20   3   43.47    5.16
   2 -20  -3   48.52    5.75
   1 -21   3   13.55    3.40
   1  21  -3   12.98    3.10
  -1 -21  -3   10.00    3.01
   1 -21  -3   23.56    4.24
  -1  21  -3    8.75    3.15
  -1  21  -3   13.31    3.11
  -1 -21   3   17.00    3.66
   1  21   3    6.20    2.57
   0   0   4  148.26    3.71
   0   0  -4  162.31    3.66
   0   0  -4  155.89    3.57
  -2   0  -4   99.23    3.53
  -2   0   4   97.10    3.48
  -2   0   4   95.98    3.47
  -2   0  -4   97.57    3.24
  -2   0  -4   97.47    3.60
   2   0  -4   98.34    3.48
  -2   0  -4   93.41    3.11
  -4   0   4   48.66    3.20
  -4   0  -4   53.07    3.51
   4   0   4   50.40    3.21
  -4   0  -4   45.90    3.43
  -4   0   4   46.91    3.54
   4   0  -4   48.76    3.57
  -6   0  -4   31.08    4.41
  -6   0   4   23.82    3.95
   6   0   4   30.64    4.73
   6   0  -4   22.61    4.07
  -1  -1  -4  100.81    3.13
   1  -1   4   93.68    3.17
  -1   1   4   93.93    2.70
  -1   1   4   97.61    3.18
  -1  -1  -4   96.86    2.27
  -1  -1  -4   96.23    3.26
   1   1  -4   95.39    2.47
   1   1  -4   93.01    2.90
   1  -1  -4  101.00    2.21
   1   1   4   93.54    2.71
  -1  -1   4   91.33    3.04
   1  -1  -4   92.97    2.93
  -1   1  -4   97.89    2.30
  -1  -1   4   97.31    2.62
  -1   1  -4   97.28    3.09
  -1   1  -4   93.40    3.15
  -3  -1  -4   47.39    2.97
  -3  -1  -4   47.30    2.79
  -3  -1  -4   47.98    2.36
  -3   1   4   49.54    2.83
  -3   1   4   46.65    3.00
  -3   1  -4   48.46    2.78
  -3   1  -4   46.83    2.75
   3  -1  -4   46.89    2.89
   3   1   4   50.03    2.90
  -3   1  -4   48.75    2.95
  -3  -1   4   51.72    3.08
  -3  -1   4   50.43    2.76
  -3   1  -4   48.13    2.76
  -5   1   4   20.13    2.87
  -5   1   4   27.14    3.92
  -5  -1  -4   19.64    3.31
   5   1  -4   10.42    2.43
  -5  -1  -4   20.32    3.11
  -5   1  -4   19.73    3.07
  -5  -1   4   24.61    3.64
   5  -1  -4   30.85    4.07
   0   2  -4    4.58    0.77
   0   2  -4    6.17    0.97
   0  -2  -4    3.71    0.83
   0   2   4    4.82    0.90
   0  -2  -4    4.75    0.79
   0  -2   4    6.47    1.12
   0  -2  -4    5.77    0.65
  -2  -2  -4    3.48    0.82
  -2  -2  -4    2.68    0.90
  -2   2   4    3.12    0.94
   2   2  -4    2.64    0.62
   2   2  -4    2.63    0.81
  -2   2   4    5.06    1.20
   2   2   4    5.20    1.14
  -2   2  -4    1.89    0.85
  -2   2  -4    3.70    1.03
  -2  -2   4    2.10    0.75
  -2   2  -4    2.25    0.87
  -2  -2   4    2.97    0.95
   2  -2  -4    3.31    0.92
  -2   2  -4    2.53    0.77
   2   2   4    3.19    0.72
   4  -2   4    1.11    1.03
  -4  -2  -4   -0.49    0.87
  -4  -2  -4    1.43    1.06
   4   2  -4    0.53    0.82
  -4   2   4   -0.06    0.90
  -4   2   4    0.30    0.91
  -4   2  -4    0.55    0.92
  -4   2  -4    1.71    1.10
  -4   2  -4    1.66    1.01
   4   2   4   -0.19    0.73
  -4  -2   4    0.54    1.06
   4  -2  -4    0.29    0.90
  -4  -2   4    0.52    0.72
   6   2  -4   -0.17    1.51
  -6   2   4   -1.12    1.53
  -6  -2  -4    0.11    1.21
   6  -2   4    0.10    1.56
  -6   2  -4   -1.07    1.50
   6   2   4   -0.81    1.51
  -6  -2   4   -1.31    1.31
   6  -2  -4   -0.98    1.49
  -1  -3  -4    1.09    0.52
   1   3  -4    0.76    0.54
   1  -3   4    2.07    0.64
  -1  -3  -4    1.52    0.71
   1   3  -4    1.86    0.68
  -1   3   4    1.29    0.39
  -1   3   4    1.41    0.66
  -1   3   4    1.77    0.63
   1   3   4    2.22    0.59
  -1  -3   4    0.74    0.52
  -1  -3   4    1.11    0.65
  -1   3  -4    2.42    0.87
  -1   3  -4    2.00    0.84
   1   3   4    1.84    0.76
  -1   3  -4    1.04    0.65
   1  -3  -4    0.96    0.56
  -3  -3  -4    0.44    0.81
   3   3  -4    1.34    0.65
  -3   3   4    1.74    0.83
  -3   3   4    0.91    0.78
   3   3  -4    0.87    0.81
  -3  -3  -4    0.70    0.79
  -3   3  -4    1.50    0.88
  -3  -3   4    1.58    0.77
   3   3   4    0.25    0.65
  -3  -3   4    0.61    0.68
   3  -3  -4    0.93    0.86
  -3   3  -4   -0.17    0.66
  -3   3  -4    0.92    0.85
  -3   3  -4    1.27    0.83
  -5   3   4    0.50    1.10
   5  -3   4    1.83    1.48
  -5  -3  -4    0.29    1.37
  -5  -3  -4   -1.94    0.93
   5   3  -4    2.55    1.57
  -5   3   4    0.55    1.46
  -5   3  -4    0.40    1.32
   5   3   4    0.92    1.21
  -5  -3   4   -0.50    1.21
   5  -3  -4   -0.23    1.38
   0  -4   4  127.91    3.00
   0  -4  -4  132.76    3.19
   0   4   4  128.82    3.45
   0  -4   4  127.39    4.06
   0   4  -4  130.53    2.93
   0  -4  -4  127.12    3.48
   0   4   4  124.52    3.29
  -2  -4  -4   91.93    3.74
   2   4  -4   91.41    3.47
  -2   4   4   90.68    3.60
  -2   4   4   90.65    3.71
  -2  -4  -4   92.26    3.24
   2   4  -4   79.80    2.82
  -2   4  -4   91.12    3.90
   2   4   4   94.24    3.64
  -2   4  -4   91.66    3.33
  -2   4  -4   91.69    3.59
  -2  -4   4   92.36    3.28
  -2  -4   4   89.80    3.44
  -2   4  -4   90.54    3.15
   2  -4  -4   88.35    3.34
  -4   4   4   36.40    3.73
  -4   4   4   40.71    3.31
   4   4  -4   37.86    3.77
  -4  -4  -4   49.82    4.60
  -4  -4  -4   47.39    3.44
  -4   4  -4   43.89    3.23
   4   4   4   46.61    3.33
   4  -4  -4   49.28    3.53
  -4   4  -4   46.59    3.12
  -4   4  -4   42.56    3.45
  -4   4  -4   49.80    3.52
  -4  -4   4   42.31    4.10
  -6  -4  -4   28.20    3.92
   6  -4   4   19.96    3.80
  -6   4   4   21.08    4.01
   6   4  -4   19.06    3.64
   6  -4  -4   19.01    3.59
  -6   4  -4   20.64    3.65
   6   4   4   20.55    4.10
  -6  -4   4   18.46    3.66
  -1   5   4    5.22    0.75
   1   5  -4    6.41    1.01
  -1   5   4    5.90    1.12
   1   5  -4    3.22    0.86
  -1  -5  -4    4.34    0.89
  -1  -5  -4    3.58    0.98
   1  -5   4    3.58    0.90
  -1   5  -4    4.47    0.79
  -1   5  -4    3.59    0.93
   1   5   4    5.12    1.02
  -1  -5   4    3.35    0.79
   1  -5  -4    5.61    1.08
  -1  -5   4    4.28    1.07
   1   5   4    4.72    0.73
   1  -5  -4    5.72    1.04
  -1   5  -4    4.42    1.28
  -3   5   4    3.84    1.33
  -3  -5  -4    2.04    1.13
  -3  -5  -4    4.25    1.19
  -3   5   4    2.36    1.10
   3   5  -4    1.35    0.74
   3   5  -4    4.30    1.40
  -3   5  -4    2.93    1.06
   3  -5  -4    2.38    1.00
  -3   5  -4    2.93    1.13
  -3   5  -4    3.03    1.05
  -3  -5   4    1.15    0.86
   3   5   4    4.40    1.25
  -3  -5   4    3.91    1.05
  -3   5  -4    3.07    1.32
   5  -5   4    2.39    1.48
  -5   5   4    3.58    1.96
  -5  -5  -4    3.77    1.66
  -5  -5  -4    2.42    1.65
  -5   5   4    1.64    1.56
   5   5  -4    2.01    1.58
   5  -5  -4    5.62    2.00
  -5  -5   4    3.77    1.87
  -5   5  -4    4.07    1.86
   5   5   4    2.60    1.61
  -5   5  -4    0.18    1.28
   0  -6  -4   16.28    1.57
   0  -6  -4   16.61    1.62
   0   6   4   16.87    1.66
   0   6  -4   18.54    1.90
   0  -6   4   17.97    1.38
   0   6   4   15.74    1.59
   0  -6   4   18.85    2.37
   0   6  -4   14.48    0.95
   2  -6   4   14.90    2.01
   2   6  -4    9.76    1.51
  -2  -6  -4   14.78    2.09
  -2   6   4   12.75    1.89
  -2  -6  -4   14.94    1.76
   2   6  -4   10.64    1.56
   2  -6  -4   16.08    1.86
  -2  -6   4   14.96    1.84
  -2  -6   4   12.34    1.75
  -2   6  -4   15.24    1.54
  -2   6  -4   16.65    2.10
   2   6   4   16.37    2.07
  -2   6  -4   15.76    2.24
  -4   6   4    7.67    1.84
   4  -6   4    7.08    1.79
  -4   6   4    7.35    2.13
  -4  -6  -4    6.85    1.92
  -4  -6  -4   12.90    2.25
   4   6  -4    6.65    2.09
   4   6   4    4.94    1.65
  -4   6  -4    6.29    1.67
  -4   6  -4    7.18    1.83
  -4  -6   4    7.88    1.99
   4  -6  -4    6.08    1.70
  -4   6  -4    8.29    2.16
   6   6  -4   -0.37    1.63
  -6   6   4    5.38    2.60
  -6   6   4    2.47    2.07
  -6  -6  -4    1.14    1.97
   6   6   4    0.61    2.00
  -6  -6   4    1.93    2.09
   6  -6  -4    1.95    1.90
  -6   6  -4    3.60    2.22
  -1  -7  -4   50.44    2.80
  -1  -7  -4   48.37    2.45
   1  -7   4   46.16    2.44
   1   7  -4   47.63    2.55
  -1   7   4   46.76    2.07
  -1   7   4   53.37    2.81
   1   7  -4   47.78    2.04
  -1  -7   4   46.62    2.57
   1   7   4   50.60    2.70
  -1   7  -4   45.40    2.54
   1  -7  -4   46.48    2.57
  -1   7  -4   51.10    3.16
   1  -7  -4   48.93    2.26
  -1  -7   4   48.16    2.49
   1   7   4   47.42    1.90
   3  -7   4   34.03    3.50
   3   7  -4   28.20    2.77
  -3   7   4   24.29    2.74
  -3  -7  -4   31.24    2.94
  -3   7   4   26.83    2.99
  -3  -7  -4   29.85    3.07
   3   7  -4   27.85    2.98
  -3   7  -4   32.41    2.14
  -3   7  -4   30.23    2.92
  -3   7  -4   40.95    4.00
  -3  -7   4   28.24    3.12
   3  -7  -4   31.57    2.94
  -3  -7   4   30.18    2.07
   3   7   4   28.20    2.92
  -5  -7  -4   14.49    3.06
  -5  -7  -4   13.80    2.61
  -5   7   4   11.89    2.87
  -5   7   4   16.22    3.10
   5   7  -4   20.85    3.39
  -5  -7   4   11.31    2.59
   5  -7  -4   18.25    3.02
  -5   7  -4   20.88    3.50
  -5   7  -4   17.17    3.35
   5   7   4   19.92    3.21
   0  -8  -4   -0.05    0.51
   0  -8  -4   -0.57    0.43
   0  -8   4    0.20    0.58
   0   8  -4    0.13    0.52
   0   8   4    0.86    0.62
   0   8  -4    0.29    0.69
   0   8   4   -0.20    0.50
  -2   8   4    0.43    0.48
   2  -8   4    0.05    0.75
  -2  -8  -4   -0.31    0.65
  -2  -8  -4    0.31    0.60
   2   8  -4    0.44    0.64
   2   8  -4   -0.35    0.52
  -2   8   4   -0.49    0.62
  -2  -8   4    0.60    0.71
   2   8   4    0.22    0.72
   2  -8  -4   -1.13    0.60
  -2   8  -4   -0.15    0.86
   2  -8  -4    0.58    0.64
  -2  -8   4    0.58    0.81
  -2   8  -4   -0.62    0.58
  -2   8  -4   -0.16    0.39
  -4   8   4   -1.05    0.89
   4   8  -4   -0.28    0.90
  -4  -8  -4    0.13    1.10
  -4  -8  -4   -0.24    0.80
  -4   8   4   -0.53    1.06
  -4  -8   4   -0.31    0.97
  -4   8  -4    1.02    1.36
   4   8   4    0.41    1.00
   4  -8  -4    1.03    1.13
  -6   8   4    0.87    1.97
  -6   8   4    0.51    1.94
   6   8  -4    0.35    1.67
  -6  -8  -4    0.24    1.62
   6   8   4    0.61    1.97
  -6  -8   4    0.77    1.86
   1  -9   4    1.31    0.80
   1   9  -4    1.20    0.60
  -1  -9  -4    2.88    1.04
   1   9  -4    1.57    0.91
  -1  -9  -4    2.89    0.95
  -1   9   4    1.13    0.81
  -1   9   4    2.31    0.80
  -1   9  -4    0.75    0.82
   1   9   4    1.02    0.79
   1   9   4    0.94    0.59
  -1  -9   4    0.89    0.69
  -1   9  -4    0.32    0.83
   1  -9  -4    1.10    0.83
   1  -9  -4    0.43    0.66
  -1  -9   4    1.92    0.97
  -3  -9  -4   -0.42    0.80
   3  -9   4    0.63    0.99
  -3   9   4    0.40    1.07
   3   9  -4    0.67    0.89
   3   9  -4    0.67    0.83
  -3  -9  -4    1.98    1.15
   3  -9  -4    1.47    0.97
  -3   9  -4    0.72    1.22
  -3   9  -4    1.54    1.10
   3  -9  -4    3.13    1.40
  -3  -9   4    1.85    1.09
   3   9   4    0.72    1.04
  -5  -9  -4    1.27    1.47
  -5  -9  -4   -0.86    1.43
   5  -9   4    0.50    1.64
  -5   9   4   -2.19    1.12
   5   9  -4    0.45    1.24
  -5  -9   4    0.69    1.31
   5   9   4    0.92    1.41
  -5   9  -4    0.76    1.81
   0  10   4   27.70    2.51
   0 -10  -4   25.19    2.31
   0  10  -4   26.20    2.77
   0 -10  -4   22.82    2.51
   0  10  -4   22.53    2.95
   0 -10   4   29.12    2.81
   0  10   4   26.99    2.16
  -2 -10  -4   16.62    2.21
   2 -10   4   17.35    2.45
   2  10  -4   20.14    2.59
  -2  10   4   22.31    2.98
   2  10  -4   21.70    2.36
  -2  10   4   17.30    1.79
  -2 -10  -4   20.91    2.47
  -2 -10   4   19.89    2.38
   2 -10  -4   21.39    2.84
  -2  10  -4   17.81    2.44
  -2  10  -4   21.40    3.05
   2  10   4   19.32    2.48
   2 -10  -4   19.76    2.03
  -2 -10   4   20.35    2.61
  -4 -10  -4    7.44    2.10
   4 -10   4   10.22    2.27
   4  10  -4   13.00    2.52
   4  10  -4   10.21    2.25
  -4 -10  -4   14.18    2.62
  -4  10   4   10.72    2.64
   4 -10  -4    9.09    2.68
  -4 -10   4   11.71    2.59
   4  10   4    8.31    2.16
  -4  10  -4   10.28    2.71
  -1 -11  -4   57.05    3.34
  -1  11   4   59.44    3.02
  -1  11   4   58.73    3.57
  -1 -11  -4   60.28    3.23
   1 -11   4   58.61    3.51
   1  11  -4   53.85    3.40
  -1  11  -4   62.49    3.55
  -1 -11   4   57.07    3.47
   1 -11  -4   59.05    3.51
   1  11   4   61.13    3.49
   1  11   4   55.16    2.76
   1 -11  -4   59.33    2.79
  -1  11  -4   59.29    3.99
  -1 -11   4   58.83    3.47
  -3  11   4   36.30    3.98
   3  11  -4   46.47    3.41
   3  11  -4   40.71    3.86
  -3 -11  -4   39.94    3.73
   3 -11   4   45.20    4.47
  -3 -11  -4   42.30    3.94
  -3 -11   4   46.45    4.44
   3 -11  -4   48.72    4.92
  -3  11  -4   45.15    5.03
   3  11   4   38.21    3.93
  -3  11  -4   44.84    3.37
   5  11  -4   26.15    4.07
  -5 -11  -4   23.86    3.85
   5 -11   4   27.33    4.13
  -5  11   4   29.56    4.80
  -5 -11  -4   26.40    3.86
   5  11   4   21.89    3.67
   5 -11  -4   30.55    4.89
  -5  11  -4   19.41    3.95
  -5 -11   4   22.17    3.91
   0  12   4   40.19    2.87
   0 -12  -4   39.13    2.96
   0  12  -4   33.30    3.21
   0  12   4   40.70    2.94
   0 -12   4   39.31    3.66
   0  12  -4   51.51    4.68
   0 -12  -4   41.39    2.68
   2 -12   4   36.07    3.93
   2  12  -4   36.90    3.74
  -2 -12  -4   34.25    3.15
  -2  12   4   30.68    3.60
  -2 -12  -4   25.85    2.96
   2 -12  -4   30.03    3.50
  -2 -12   4   21.38    2.72
   2  12   4   22.68    2.84
  -2  12  -4   32.19    3.50
  -2  12  -4   26.89    3.54
   4 -12   4   17.37    3.30
  -4  12   4   17.60    3.37
  -4 -12  -4   18.73    3.19
  -4 -12  -4   16.83    3.00
   4  12  -4   15.86    2.78
   4  12  -4   19.63    2.97
   4 -12  -4   23.99    3.88
   4  12   4   13.50    2.70
  -4  12  -4   22.19    4.04
  -4 -12   4   18.82    3.25
   1  13  -4    0.36    0.97
  -1 -13  -4   -0.20    0.85
  -1  13   4    0.27    0.86
  -1  13   4    0.54    1.07
   1 -13   4    0.45    0.82
  -1 -13  -4   -0.39    0.71
  -1 -13   4    0.48    1.10
   1  13   4    0.92    1.06
   1 -13  -4   -0.13    0.93
  -1  13  -4    0.44    0.96
  -1 -13   4    0.34    1.03
  -1  13  -4    0.74    1.10
   3 -13   4   -0.03    1.21
   3  13  -4    1.92    1.30
  -3 -13  -4   -0.79    0.91
  -3 -13  -4   -0.90    0.80
  -3  13   4   -0.63    1.13
   3  13   4    1.19    1.25
  -3  13  -4    0.79    1.58
  -3 -13   4   -1.45    0.96
   3 -13  -4    0.27    1.39
  -3  13  -4    0.03    1.20
   5  13  -4    0.83    1.67
   5 -13   4    0.27    1.46
  -5 -13  -4   -0.76    1.37
  -5 -13  -4   -0.76    1.40
  -5  13   4    0.33    2.17
   5  13   4    0.68    1.59
  -5  13  -4    0.84    2.17
  -5 -13   4    1.00    1.53
   5 -13  -4    0.14    1.98
   0  14  -4    2.96    1.60
   0  14   4    3.34    1.34
   0  14  -4    4.75    1.53
   0 -14   4    4.75    1.64
   0  14   4    4.47    1.47
   0 -14  -4    2.80    1.30
   2  14  -4    0.94    1.24
  -2 -14  -4    2.86    1.19
  -2 -14  -4    1.08    1.25
  -2  14   4    3.87    1.86
   2 -14   4    4.82    1.95
  -2  14  -4    1.83    1.25
  -2  14  -4    1.45    1.49
   2  14   4    5.31    1.83
  -2 -14   4    2.27    1.20
   2 -14  -4    1.06    1.14
   4 -14   4    1.59    1.50
  -4  14   4    0.68    1.49
  -4 -14  -4    1.04    1.55
   4  14  -4    2.36    1.60
  -4 -14  -4    0.83    1.47
  -4 -14   4    2.22    1.77
   4 -14  -4    0.74    1.68
  -4  14  -4    0.60    1.68
   4  14   4    1.15    1.53
   1  15  -4   50.10    4.68
  -1  15   4   38.23    4.01
   1 -15   4   50.42    5.02
  -1  15   4   46.17    3.42
  -1 -15  -4   52.07    3.86
  -1 -15   4   49.83    4.73
  -1 -15   4   47.32    3.82
  -1  15  -4   42.08    4.75
   1 -15  -4   52.16    4.94
   1  15   4   43.64    4.20
  -1  15  -4   51.77    3.93
  -3  15   4   33.33    4.65
   3 -15   4   41.46    5.04
  -3 -15  -4   34.91    4.10
   3  15  -4   24.53    3.47
   3 -15  -4   39.91    5.00
  -3  15  -4   26.59    4.21
  -3 -15   4   32.91    4.23
  -3  15  -4   31.38    3.87
   3  15   4   38.50    4.58
   0 -16   4    0.91    1.34
   0  16   4    0.32    0.93
   0  16  -4   -0.26    1.28
   0  16  -4   -0.26    1.06
   0 -16  -4    2.43    1.49
   0  16   4   -0.35    1.31
  -2 -16  -4   -0.42    1.18
   2 -16   4    0.94    1.27
  -2  16   4    1.46    1.65
   2  16  -4    0.83    1.28
  -2  16  -4    0.01    1.15
  -2 -16   4    0.62    1.13
  -2  16  -4   -0.80    1.50
   2  16   4    1.63    1.32
   2 -16  -4    0.96    1.35
  -4  16   4    1.05    2.01
   4 -16   4    1.32    1.66
  -4 -16  -4    1.25    1.69
   4  16  -4    1.60    1.62
  -4 -16   4    1.29    1.85
   4  16   4    2.97    2.02
  -4  16  -4    3.02    2.27
   4 -16  -4   -1.28    1.57
   1  17  -4    8.58    2.31
   1 -17   4   11.09    2.51
  -1  17   4   11.22    2.30
  -1  17   4    7.44    2.17
  -1 -17  -4   11.70    2.62
  -1 -17   4    9.47    2.36
  -1  17  -4    8.82    2.67
  -1  17  -4   11.66    2.62
   1 -17  -4    5.92    2.06
   1  17   4   14.34    2.66
   3 -17   4    7.12    2.63
  -3 -17  -4   13.09    3.00
  -3  17   4    4.46    2.38
   3  17  -4   12.18    2.84
  -3  17  -4    8.04    2.97
  -3 -17   4    9.09    2.44
   3  17   4   10.20    2.80
   3 -17  -4   10.47    2.99
   0 -18  -4    8.79    2.30
   0 -18   4    6.70    2.28
   0  18  -4    7.97    2.25
   0  18   4    6.94    2.00
  -2  18   4    8.30    2.65
  -2 -18  -4    8.04    2.36
   2  18  -4    7.25    2.41
   2 -18   4    3.32    1.99
   2  18   4    8.91    2.51
  -2  18  -4    7.90    2.80
  -2 -18   4    5.78    2.01
   2 -18  -4   13.29    3.29
  -2  18  -4    7.57    2.42
   1 -19   4    0.21    1.32
   1  19  -4   -1.05    1.16
  -1  19   4    0.30    1.76
  -1  19   4   -0.15    1.21
  -1 -19  -4    0.44    1.46
   1 -19  -4    2.60    1.86
  -1  19  -4    2.48    1.92
  -1  19  -4    0.17    1.36
   1  19   4    0.43    1.36
  -1 -19   4   -0.58    1.30
   3  19  -4   -0.74    1.43
   3 -19   4    0.11    1.61
  -3  19   4   -0.35    1.80
  -3 -19  -4   -1.45    1.56
   3 -19  -4    0.75    1.85
  -3 -19   4    0.89    1.52
   3  19   4   -0.50    1.37
  -3  19  -4    1.75    2.08
   0  20  -4    1.49    1.72
   0  20   4    0.91    1.51
   0 -20   4    1.49    1.74
   0 -20  -4   -0.83    1.41
   2 -20   4    0.46    1.58
   2  20  -4    0.02    1.54
  -2  20   4   -1.76    1.58
  -2 -20  -4    0.54    1.51
   2  20   4   -1.50    1.16
  -2 -20   4    0.42    1.66
   2 -20  -4   -0.05    1.79
  -2  20  -4   -0.80    1.99
  -2  20  -4    0.64    1.63
   1  21  -4    4.26    2.21
  -1 -21  -4   -0.26    1.80
   1 -21   4    1.79    1.80
  -1  21  -4    2.27    2.31
   1 -21  -4    3.51    1.91
  -1  21  -4   -0.62    1.48
   1  21   4    4.33    2.14
  -1 -21   4    2.41    1.99
   0   0  -5    0.03    0.57
   0   0  -5   -0.67    0.49
   0   0   5   -0.88    0.41
   2   0   5   -0.45    0.44
   2   0  -5   -0.30    0.52
  -2   0   5    0.52    0.58
  -2   0  -5   -0.92    0.38
  -2   0  -5   -0.41    0.58
  -2   0   5   -0.34    0.58
  -2   0  -5   -0.70    0.61
  -4   0   5   -0.31    0.69
   4   0  -5   -0.51    0.83
  -4   0   5   -0.28    0.75
   4   0   5    0.95    0.94
  -4   0  -5   -0.29    0.74
  -4   0  -5   -0.20    1.02
   6   0   5   -0.63    1.49
  -6   0  -5   -0.69    1.44
   6   0  -5   -0.61    1.54
  -6   0   5   -0.12    1.51
  -1  -1  -5  285.94    6.37
  -1   1   5  276.83    6.21
   1   1  -5  291.62    5.99
   1  -1   5  281.95    6.28
  -1   1   5  274.11    5.32
  -1  -1  -5  281.22    6.20
   1   1  -5  287.72    5.45
   1  -1  -5  280.83    5.99
  -1  -1   5  292.84    6.39
   1   1   5  284.88    5.80
  -1   1  -5  282.07    6.10
  -1   1  -5  281.59    6.34
  -1  -1   5  287.05    5.29
   1  -1  -5  289.92    5.01
  -3  -1  -5  168.21    5.16
  -3   1   5  160.09    5.51
  -3   1   5  171.21    5.72
   3   1  -5  171.23    5.71
  -3  -1  -5  161.34    5.68
   3   1   5  172.39    4.84
  -3  -1   5  164.30    5.36
  -3   1  -5  166.65    5.60
   3   1   5  162.62    5.55
  -3   1  -5  163.29    5.41
   3  -1  -5  160.09    5.45
  -3  -1   5  166.51    5.64
  -3   1  -5  166.56    5.13
  -3   1  -5  160.52    5.11
  -5  -1  -5   77.35    4.94
  -5  -1  -5   77.35    5.10
  -5   1   5   77.05    4.62
   5   1  -5   78.49    5.21
  -5   1   5   81.88    5.45
  -5  -1   5   69.68    4.97
   5  -1  -5   73.90    5.12
   5   1   5   72.14    5.07
  -5   1  -5   81.83    5.03
  -5   1  -5   84.85    5.25
   0  -2  -5   86.75    2.97
   0   2   5   87.57    2.99
   0  -2   5   91.53    3.30
   0   2  -5   89.67    2.76
   0  -2  -5   85.88    2.75
   0   2  -5   87.52    3.05
  -2  -2  -5   61.57    3.18
  -2   2   5   53.50    2.90
   2   2  -5   56.00    2.77
   2   2  -5   58.29    2.10
  -2   2   5   57.09    2.84
  -2  -2  -5   57.92    2.38
  -2   2  -5   57.05    2.44
  -2  -2   5   59.68    2.71
  -2   2  -5   54.41    2.88
  -2   2  -5   58.56    2.83
   2  -2  -5   59.27    2.85
  -2   2  -5   54.00    2.91
  -2  -2   5   59.65    2.79
   2   2   5   55.56    2.23
   2   2   5   58.66    2.93
  -4  -2  -5   29.62    3.09
   4   2  -5   32.29    3.42
  -4   2   5   31.98    3.49
  -4   2   5   27.54    3.31
   4  -2   5   36.50    3.59
  -4  -2  -5   26.41    3.37
   4   2   5   32.72    3.41
  -4   2  -5   24.01    2.89
  -4   2  -5   35.75    3.39
  -4   2  -5   28.60    3.29
   4  -2  -5   28.98    3.40
  -4  -2   5   31.44    3.19
  -4  -2   5   25.06    3.09
  -6  -2  -5   15.09    3.08
   6   2  -5    9.42    3.02
   6  -2   5   16.81    3.45
  -6   2   5    8.18    2.90
  -6  -2   5   14.17    3.53
   6   2   5   16.40    3.75
   6  -2  -5   10.43    2.98
  -6   2  -5   19.13    3.47
  -1   3   5  285.33    4.90
  -1   3   5  286.80    6.49
  -1  -3  -5  286.24    6.65
  -1   3   5  288.23    5.68
   1   3  -5  290.15    5.80
   1  -3   5  278.75    5.07
   1   3  -5  285.05    5.91
  -1  -3  -5  272.43    5.01
   1  -3   5  274.15    6.86
  -1  -3   5  285.42    5.47
   1  -3  -5  286.46    6.14
  -1  -3   5  287.79    6.38
  -1   3  -5  280.69    5.83
   1   3   5  283.52    5.51
  -1   3  -5  269.51    6.45
   1   3   5  280.94    6.34
  -3  -3  -5  168.75    5.98
   3   3  -5  160.37    4.14
   3   3  -5  169.65    5.68
  -3   3   5  173.03    5.98
  -3  -3  -5  172.46    5.27
  -3   3   5  163.10    5.76
  -3   3  -5  171.26    5.33
   3   3   5  169.12    5.65
  -3  -3   5  171.46    5.72
  -3  -3   5  164.38    5.23
  -3   3  -5  169.68    5.49
   3  -3  -5  172.01    5.60
  -3   3  -5  167.95    5.45
  -3   3  -5  166.31    5.73
  -5   3   5   84.53    5.06
  -5  -3  -5   82.03    5.36
   5   3  -5   74.56    5.07
  -5   3   5   83.47    5.63
  -5  -3  -5   84.46    5.18
  -5   3  -5   87.37    5.18
  -5   3  -5   87.38    5.05
   5   3   5   81.28    4.84
   5  -3  -5   80.48    5.27
  -5  -3   5   89.37    5.48
   0   4   5   47.13    2.10
   0  -4   5   44.34    2.59
   0   4  -5   49.72    2.40
   0  -4   5   47.77    1.73
   0  -4  -5   47.92    2.27
   0  -4  -5   48.66    1.87
   0   4   5   45.18    2.19
   0   4  -5   45.05    1.88
  -2  -4  -5   32.06    1.97
   2   4  -5   31.85    1.86
  -2  -4  -5   35.27    2.58
  -2   4   5   33.88    2.25
   2   4  -5   34.62    2.23
  -2   4   5   34.47    2.44
  -2  -4   5   33.98    2.20
  -2   4  -5   34.44    2.61
  -2   4  -5   36.19    2.13
   2  -4  -5   35.02    2.26
   2   4   5   36.00    2.40
  -2   4  -5   31.55    2.39
  -2  -4   5   36.83    2.26
  -2   4  -5   35.69    2.15
  -4   4   5   22.73    3.26
  -4  -4  -5   20.79    2.95
   4   4  -5   22.28    2.94
  -4  -4  -5   20.04    2.62
  -4   4   5   15.15    2.53
   4   4   5   27.96    3.21
  -4   4  -5   22.76    2.80
  -4   4  -5   20.53    2.79
  -4   4  -5   20.73    2.73
  -4  -4   5   16.42    2.63
   4  -4  -5   22.40    2.96
  -4   4  -5   19.24    2.83
  -4  -4   5   21.92    2.80
  -6   4   5   10.89    3.02
   6  -4   5   19.37    3.75
   6   4  -5   15.25    3.74
  -6  -4  -5   14.61    3.09
   6  -4  -5    9.94    2.99
  -6   4  -5    9.94    2.82
  -6  -4   5    9.92    2.83
   1   5  -5   69.15    2.86
   1   5  -5   63.42    2.53
  -1   5   5   69.33    3.12
  -1  -5  -5   71.23    2.56
   1  -5   5   69.10    2.54
  -1   5   5   71.20    2.26
  -1  -5  -5   66.73    3.18
  -1   5  -5   71.84    2.49
   1   5   5   71.95    2.39
  -1  -5   5   68.86    2.64
  -1   5  -5   65.90    3.40
   1  -5  -5   71.21    2.84
  -1  -5   5   74.30    3.22
   1   5   5   74.16    3.06
  -1   5  -5   76.50    3.29
   1  -5  -5   68.90    2.79
   3   5  -5   45.50    2.42
  -3   5   5   48.37    3.31
  -3  -5  -5   48.31    3.39
  -3  -5  -5   48.97    2.98
   3   5  -5   45.21    3.05
  -3   5   5   45.41    3.27
  -3  -5   5   46.80    2.74
   3   5   5   43.82    3.10
  -3   5  -5   52.29    3.10
  -3   5  -5   48.40    3.15
   3  -5  -5   43.66    2.98
  -3   5  -5   45.48    2.83
  -3   5  -5   49.49    3.54
  -3  -5   5   47.43    3.14
   5  -5   5   21.60    3.33
   5   5  -5   14.02    2.79
  -5  -5  -5   19.61    2.93
  -5   5   5   24.32    3.57
  -5   5   5   25.20    3.80
  -5  -5  -5   30.26    4.10
  -5  -5   5   30.17    4.09
   5   5   5   20.16    3.16
   5  -5  -5   25.34    3.63
  -5   5  -5   23.27    3.48
   0  -6   5   97.43    3.03
   0  -6   5   99.32    4.11
   0  -6  -5   97.06    3.17
   0   6  -5   92.22    3.50
   0   6  -5   96.79    2.63
   0   6   5   89.59    3.22
   0  -6  -5   89.96    3.34
   0   6   5   94.78    3.33
  -2  -6  -5   73.72    3.71
  -2   6   5   72.21    3.68
   2   6  -5   78.09    3.25
   2  -6   5   81.43    3.42
  -2  -6  -5   78.74    3.23
   2   6  -5   76.97    3.29
  -2   6  -5   73.45    2.81
  -2   6  -5   68.09    3.86
   2   6   5   76.46    3.61
  -2   6  -5   81.98    3.75
   2  -6  -5   77.79    3.34
  -2  -6   5   76.58    3.39
  -2  -6   5   74.12    3.26
   2  -6  -5   75.29    3.72
  -4  -6  -5   56.92    4.98
  -4  -6  -5   41.84    3.65
  -4   6   5   42.89    4.46
   4   6  -5   46.61    4.59
  -4   6   5   43.18    4.35
  -4   6  -5   47.14    4.66
  -4   6  -5   48.07    3.66
   4   6   5   40.32    3.92
   4  -6  -5   37.18    3.87
  -4   6  -5   43.14    3.82
  -4  -6   5   48.04    4.57
  -4   6  -5   40.68    3.68
   6   6  -5   19.94    3.78
  -6  -6  -5   20.71    3.77
  -6   6   5   16.62    3.53
  -6   6   5   14.88    3.44
  -6   6  -5   19.06    3.84
   6  -6  -5   17.31    3.57
  -6  -6   5   27.59    4.49
   1  -7   5   37.25    2.20
  -1   7   5   37.84    1.92
  -1  -7  -5   41.38    2.74
  -1  -7  -5   37.41    2.20
   1   7  -5   42.77    2.49
   1   7  -5   41.51    2.04
  -1   7   5   39.57    2.53
  -1   7  -5   39.05    2.55
   1  -7  -5   40.87    2.25
  -1   7  -5   35.84    1.61
   1  -7  -5   37.67    2.37
   1   7   5   37.94    2.47
  -1  -7   5   44.01    2.70
   1   7   5   37.64    1.84
  -1  -7   5   37.63    2.20
  -1   7  -5   42.54    3.00
  -3   7   5   29.57    3.30
  -3  -7  -5   33.05    3.08
   3  -7   5   38.92    3.75
   3   7  -5   28.56    3.00
  -3  -7  -5   32.74    3.44
  -3   7   5   30.37    3.35
   3   7  -5   25.48    2.72
  -3  -7   5   27.53    3.29
  -3   7  -5   30.07    3.08
   3   7   5   23.22    2.76
  -3   7  -5   27.92    3.46
  -3   7  -5   29.75    2.19
   3  -7  -5   20.11    2.48
  -3  -7   5   28.07    2.20
  -5  -7  -5   16.25    2.88
  -5   7   5   15.90    3.24
  -5  -7  -5   20.92    3.54
  -5   7   5   14.93    3.27
   5   7  -5   15.35    2.83
  -5   7  -5   15.73    3.37
   5   7   5   15.66    2.91
   5  -7  -5   14.85    2.98
  -5   7  -5   12.58    2.64
  -5  -7   5   13.05    3.00
   0   8   5  215.07    5.58
   0  -8  -5  216.29    5.60
   0  -8  -5  204.87    5.50
   0   8  -5  202.69    5.87
   0  -8   5  205.45    6.62
   0   8  -5  204.22    3.98
   0   8   5  203.25    5.50
   0  -8   5  206.99    5.40
   2   8  -5  168.27    5.00
  -2   8   5  166.31    5.98
  -2  -8  -5  170.79    5.30
   2   8  -5  158.30    5.23
  -2  -8  -5  157.47    5.65
   2  -8   5  168.57    5.47
   2  -8  -5  158.24    4.97
  -2   8  -5  144.12    4.99
  -2  -8   5  165.91    5.15
  -2   8  -5  159.59    6.29
  -2  -8   5  154.62    5.25
   2   8   5  162.70    5.67
  -2   8  -5  160.98    5.62
   2  -8  -5  162.85    5.68
   4  -8   5   88.00    5.07
  -4   8   5   90.53    5.60
  -4   8   5   93.11    5.50
  -4  -8  -5  105.23    5.61
  -4  -8  -5   97.30    5.08
   4   8  -5   93.42    5.14
   4  -8  -5   97.07    4.98
  -4  -8   5   94.35    5.24
  -4   8  -5  101.74    5.94
  -4   8  -5  100.05    4.91
   4   8   5   97.23    5.28
   1  -9   5   54.97    2.98
   1   9  -5   44.24    2.10
  -1  -9  -5   43.07    2.93
  -1  -9  -5   46.01    2.70
   1   9  -5   49.91    3.04
  -1   9   5   49.09    3.05
  -1   9   5   44.14    2.36
   1  -9  -5   55.00    3.06
  -1  -9   5   42.76    2.92
   1  -9  -5   47.19    2.51
  -1   9  -5   40.14    3.24
  -1  -9   5   49.05    2.84
   1   9   5   45.49    2.21
  -1   9  -5   48.69    3.00
   1   9   5   48.94    2.99
  -3  -9  -5   31.69    3.09
   3   9  -5   36.01    3.55
  -3  -9  -5   35.65    3.60
   3  -9   5   43.25    4.22
   3   9  -5   34.02    3.43
  -3   9   5   30.39    3.62
  -3   9  -5   35.81    4.29
  -3  -9   5   26.01    3.21
   3  -9  -5   32.00    3.04
  -3   9  -5   27.96    3.09
   3   9   5   28.86    3.21
   3  -9  -5   29.35    3.52
   5   9  -5   14.16    2.97
  -5  -9  -5   14.75    2.92
   5  -9   5   13.52    3.14
  -5  -9  -5   23.76    3.77
  -5   9   5   18.68    3.59
  -5  -9   5   18.35    3.35
   5   9   5   18.87    3.31
  -5   9  -5   22.04    4.05
   0 -10  -5  226.96    6.51
   0  10   5  243.87    6.40
   0  10  -5  228.79    6.86
   0  10   5  226.94    6.30
   0 -10   5  236.88    7.68
   0 -10   5  228.51    6.40
   0 -10  -5  234.14    6.34
  -2 -10  -5  172.55    6.13
  -2  10   5  175.94    6.53
   2  10  -5  186.02    6.20
   2 -10   5  180.86    6.23
  -2 -10  -5  180.20    5.95
   2  10  -5  175.19    5.23
  -2  10  -5  183.12    7.20
  -2 -10   5  190.12    5.90
   2 -10  -5  183.24    5.37
   2  10   5  180.86    6.44
   2 -10  -5  186.05    6.48
  -2 -10   5  179.83    6.16
  -2  10  -5  174.01    6.19
  -4 -10  -5   98.83    5.84
  -4  10   5  124.89    6.64
  -4 -10  -5  111.99    5.83
   4  10  -5  112.67    5.64
   4 -10   5  107.58    5.69
   4 -10  -5  114.16    6.52
  -4 -10   5  109.99    5.93
  -4  10  -5  118.14    6.86
   4  10   5  107.33    5.81
  -1  11   5    4.43    1.20
  -1  11   5    5.47    1.57
  -1 -11  -5    5.07    1.47
  -1 -11  -5    3.20    1.20
   1  11  -5    3.70    1.33
   1 -11   5    3.68    1.33
  -1  11  -5    5.74    1.55
  -1 -11   5    6.37    1.78
   1 -11  -5    3.73    1.07
   1  11   5    5.12    1.48
  -1  11  -5    3.15    1.59
  -1 -11   5    6.39    1.54
   1  11   5    3.19    1.29
   1 -11  -5    2.71    1.16
  -3 -11  -5    3.52    1.43
   3 -11   5    4.69    1.68
   3  11  -5    3.14    1.27
   3  11  -5    2.61    1.21
  -3 -11  -5    2.86    1.35
  -3  11   5    1.15    1.29
  -3 -11   5    3.39    1.50
   3 -11  -5    1.74    1.43
   3  11   5    3.92    1.55
  -3  11  -5    2.16    1.33
  -3  11  -5    0.92    1.32
   5  11  -5    0.34    1.44
  -5 -11  -5    1.39    1.46
  -5  11   5    0.00    1.63
   5 -11   5    0.58    1.48
  -5 -11  -5    0.44    1.37
   5  11   5   -1.62    1.20
   5 -11  -5    2.92    2.36
  -5 -11   5   -0.24    1.39
  -5  11  -5    0.65    1.78
   0 -12   5  101.16    4.56
   0  12   5   96.67    4.34
   0  12   5   96.03    4.33
   0 -12   5   94.12    5.21
   0 -12  -5   99.57    4.28
   0  12  -5   95.41    4.70
   0 -12  -5   93.33    4.46
  -2 -12  -5   86.16    4.43
   2 -12   5   75.01    4.40
   2  12  -5   78.59    4.46
  -2 -12  -5   85.87    4.38
  -2  12   5   71.48    4.60
  -2 -12   5   75.98    3.97
  -2  12  -5   76.99    5.05
  -2 -12   5   81.26    4.47
  -2  12  -5   77.32    4.42
   2  12   5   81.43    4.61
   2 -12  -5   73.10    4.52
   4 -12   5   56.42    5.52
  -4 -12  -5   48.68    4.73
   4  12  -5   63.38    5.55
  -4 -12  -5   53.87    5.34
  -4  12   5   57.67    5.96
   4  12  -5   50.09    4.90
   4  12   5   70.44    6.21
  -4  12  -5   48.86    5.80
  -4 -12   5   36.28    4.47
   4 -12  -5   53.22    5.86
   1  13  -5   18.86    2.75
  -1 -13  -5   24.17    2.68
  -1  13   5   24.60    3.09
   1 -13   5   21.07    2.92
  -1  13   5   22.56    2.57
  -1 -13  -5   22.41    2.85
  -1  13  -5   19.54    2.75
   1 -13  -5   24.18    3.06
   1  13   5   24.28    2.95
  -1 -13   5   15.52    2.35
  -1 -13   5   24.82    3.35
  -1  13  -5   19.85    3.20
  -3  13   5   19.17    3.25
   3  13  -5   18.87    3.17
  -3 -13  -5   15.71    2.73
   3 -13   5   17.41    2.94
  -3 -13  -5   21.10    3.00
  -3 -13   5   21.57    3.33
  -3  13  -5   17.82    3.39
   3 -13  -5   19.16    3.49
   3  13   5   12.03    2.56
  -3  13  -5   12.48    2.53
   5  13  -5    7.40    4.02
  -5  13   5   12.84    3.40
  -5 -13  -5   17.16    3.66
  -5 -13  -5   13.50    3.14
   5 -13   5    8.47    2.76
   5 -13  -5   11.04    3.17
  -5  13  -5   11.10    3.43
   5  13   5    8.89    2.78
  -5 -13   5    9.19    2.77
   0  14   5  100.10    4.91
   0  14   5  110.91    5.07
   0 -14   5  102.69    5.19
   0 -14   5  106.85    5.94
   0  14  -5  108.74    5.46
   0 -14  -5  118.67    5.42
   2  14  -5   85.98    5.03
   2 -14   5   85.96    5.14
  -2 -14  -5   87.50    4.87
  -2 -14  -5   90.32    4.60
  -2  14   5   94.61    5.54
  -2  14  -5   90.72    5.08
  -2 -14   5   86.38    4.95
  -2  14  -5   92.27    5.88
   2 -14  -5   97.15    5.46
   2  14   5   88.24    5.14
   4  14  -5   59.43    5.45
  -4 -14  -5   64.34    5.71
  -4  14   5   59.03    6.55
   4 -14   5   61.30    6.22
  -4 -14  -5   49.33    5.00
  -4  14  -5   55.48    6.41
  -4 -14   5   69.68    6.38
   4 -14  -5   59.99    6.29
   4  14   5   78.38    6.93
  -1  15   5   13.50    2.62
   1  15  -5   15.80    2.72
  -1 -15  -5   16.37    2.66
  -1  15   5   13.33    2.23
   1 -15   5   11.90    2.54
  -1  15  -5   12.78    2.91
  -1 -15   5   14.66    2.92
   1  15   5   12.42    2.42
   1 -15  -5   17.32    2.90
  -1 -15   5   12.68    2.42
  -1  15  -5   11.73    2.49
  -3  15   5   10.84    2.92
  -3 -15  -5   12.05    2.39
   3 -15   5    6.22    2.32
   3  15  -5   17.65    3.26
  -3 -15  -5   16.30    3.07
  -3 -15   5   10.71    2.40
  -3  15  -5    4.51    2.21
  -3  15  -5   10.81    2.61
   3 -15  -5   14.18    3.20
   3  15   5    8.57    2.39
   0  16   5   21.69    2.94
   0 -16   5   27.02    3.71
   0 -16  -5   26.27    3.35
   0  16  -5   26.92    3.56
   0 -16   5   27.77    3.93
   2 -16   5   23.68    3.75
  -2 -16  -5   23.25    3.28
  -2  16   5   18.88    3.45
   2  16  -5   19.79    3.37
  -2 -16   5   28.20    3.81
   2  16   5   24.49    3.58
  -2  16  -5   21.56    3.85
   2 -16  -5   20.51    3.45
  -2  16  -5   17.73    2.98
  -4  16   5   10.03    3.17
   4 -16   5   10.29    2.94
  -4 -16  -5   12.70    2.91
   4  16  -5   10.56    2.80
  -4 -16   5   11.12    3.02
  -4  16  -5   12.82    3.84
   4 -16  -5   12.43    3.39
   4  16   5   14.10    3.16
  -1  17   5   54.40    5.38
  -1  17   5   55.25    4.82
   1 -17   5   56.58    5.66
  -1 -17  -5   56.67    5.21
   1  17  -5   49.97    4.97
   1  17   5   51.58    4.98
  -1  17  -5   53.06    5.71
  -1  17  -5   47.14    4.75
   1 -17  -5   51.72    5.12
  -1 -17   5   44.61    4.66
   3 -17   5   36.44    4.84
  -3  17   5   46.15    5.81
   3  17  -5   32.44    4.33
  -3 -17  -5   42.83    4.77
  -3  17  -5   37.01    5.46
   3  17   5   34.43    4.56
  -3  17  -5   29.05    6.49
  -3 -17   5   36.95    4.75
   3 -17  -5   43.20    5.45
   0  18   5   20.48    3.23
   0 -18  -5   20.16    3.24
   0 -18   5   21.87    3.78
   0  18  -5   20.25    3.58
   0 -18   5   16.13    3.49
   2  18  -5   17.58    3.33
   2 -18   5   11.70    2.90
  -2 -18  -5   21.78    3.53
  -2  18   5   15.99    3.29
   2  18   5   22.31    3.74
  -2  18  -5   20.39    3.92
   2 -18  -5   15.64    3.44
  -2 -18   5   12.75    2.94
  -2  18  -5   15.13    3.07
  -1 -19  -5   37.34    4.36
   1  19  -5   43.95    5.07
   1 -19   5   37.02    4.66
  -1  19   5   46.96    5.67
   1 -19  -5   47.98    5.21
   1  19   5   54.30    5.39
  -1 -19   5   51.85    5.65
  -1  19  -5   37.89    4.81
  -1  19  -5   36.03    4.98
   0 -20   5   18.20    3.88
   0  20   5   16.81    3.26
   0  20  -5   17.06    3.45
   0 -20  -5   13.06    3.09
   2  20  -5    8.52    2.81
  -2  20   5   11.80    3.43
  -2 -20  -5   11.70    2.83
   2 -20   5    7.58    2.74
  -2  20  -5   10.48    2.87
   2  20   5    7.49    2.47
  -2  20  -5    8.37    3.12
  -2 -20   5    7.44    2.68
   2 -20  -5    5.13    2.47
   1 -21  -5   64.42    6.23
   0   0  -6  346.82    6.97
   0   0  -6  340.26    6.89
   0   0   6  346.91    7.20
  -2   0  -6  246.08    6.61
   2   0  -6  257.31    6.48
  -2   0  -6  239.65    5.17
  -2   0  -6  257.60    6.71
  -2   0   6  253.56    6.63
   2   0   6  252.05    6.21
  -2   0   6  246.47    5.99
  -4   0  -6  124.90    5.68
  -4   0   6  124.74    5.70
  -4   0   6  120.87    5.30
   4   0  -6  125.93    5.68
  -4   0  -6  133.24    5.32
   4   0   6  128.00    5.54
   6   0   6   58.28    6.57
  -6   0  -6   84.21    6.93
  -6   0   6   60.70    6.27
   6   0  -6   58.42    6.35
   1  -1   6   14.55    1.90
  -1  -1  -6   15.40    1.84
  -1   1   6   18.74    2.08
   1   1  -6   13.96    1.62
  -1   1   6   16.63    1.18
  -1  -1  -6   15.78    1.82
   1   1  -6   17.43    1.69
  -1   1  -6   13.09    1.60
   1   1   6   15.71    1.81
   1  -1  -6   18.31    1.98
   1  -1  -6   15.21    1.37
  -1  -1   6   15.19    1.90
  -1   1  -6   13.26    1.69
  -1  -1   6   15.20    1.35
  -3   1   6    9.75    1.86
  -3  -1  -6    7.03    1.67
  -3  -1  -6   10.44    1.64
  -3   1   6   12.15    2.03
   3   1  -6   10.95    1.95
  -3  -1   6    7.07    1.56
   3   1   6    7.10    1.63
  -3   1  -6    7.73    1.73
   3   1   6   10.66    1.61
   3  -1  -6    8.45    1.70
  -3   1  -6    7.72    1.41
  -3   1  -6    6.49    1.52
  -3  -1   6    8.14    1.69
  -5   1   6    3.11    1.71
   5  -1   6    7.04    2.98
  -5  -1  -6    1.24    1.36
   5   1  -6    1.49    1.54
  -5  -1  -6    2.68    1.59
  -5   1   6    3.20    1.58
  -5  -1   6    3.17    1.70
  -5   1  -6    1.93    1.72
  -5   1  -6    3.39    1.58
   5   1   6    5.19    1.78
   5  -1  -6    2.96    1.73
   0   2  -6    0.17    0.47
   0  -2   6    1.29    0.75
   0  -2  -6   -0.59    0.40
   0   2  -6    1.46    0.76
   0  -2  -6    0.36    0.53
   0   2   6    0.53    0.56
  -2  -2  -6    0.51    0.50
  -2   2   6    0.77    0.67
  -2  -2  -6   -0.31    0.60
   2   2  -6   -0.31    0.54
   2   2  -6    0.60    0.41
  -2   2   6   -0.72    0.42
   2  -2   6    0.24    0.74
   2  -2  -6   -0.45    0.51
  -2  -2   6    0.31    0.75
   2   2   6    0.09    0.50
  -2   2  -6   -0.56    0.52
  -2   2  -6    0.05    0.46
   2   2   6    0.04    0.60
  -2  -2   6    0.29    0.52
  -2   2  -6    0.72    0.71
  -4  -2  -6   -0.59    0.92
  -4   2   6   -0.90    0.78
  -4   2   6    0.29    1.04
  -4  -2  -6    0.26    0.97
   4   2  -6   -0.02    1.04
  -4  -2   6    0.17    1.01
  -4   2  -6   -0.61    0.90
   4  -2  -6   -0.43    0.84
   4   2   6    0.25    0.83
  -4  -2   6   -0.47    0.75
  -4   2  -6   -0.56    0.83
  -4   2  -6   -0.22    0.84
   6  -2   6    0.70    1.62
  -6   2   6   -0.79    1.84
  -6  -2  -6   -0.52    1.31
  -6  -2  -6    0.65    1.68
   6   2  -6   -0.91    1.56
  -6   2  -6   -0.05    1.60
  -6  -2   6    0.75    1.93
   6  -2  -6    0.48    1.90
   1  -3   6    0.87    0.73
  -1  -3  -6    1.97    0.86
  -1   3   6    1.69    0.54
  -1   3   6    1.48    0.83
   1   3  -6    0.30    0.55
   1   3  -6    1.57    0.65
  -1  -3  -6    1.20    0.46
  -1  -3   6    2.59    0.67
   1  -3  -6    0.17    0.58
   1   3   6    1.35    0.67
  -1   3  -6    1.28    0.83
  -1   3  -6    1.32    0.72
  -1  -3   6    1.74    0.83
   1   3   6    0.27    0.59
  -3  -3  -6    0.61    0.93
  -3  -3  -6    1.62    0.82
  -3   3   6    2.28    1.13
   3   3  -6    2.06    1.05
  -3   3   6    1.61    0.86
  -3   3  -6    0.20    0.66
   3   3   6    1.18    0.98
  -3   3  -6    0.92    0.96
   3  -3  -6    0.59    0.86
  -3  -3   6    0.53    0.99
  -3   3  -6    0.69    0.84
  -3   3  -6    0.31    0.74
  -3  -3   6    1.30    0.96
  -5   3   6   -1.07    1.23
   5   3  -6    0.50    1.34
  -5  -3  -6    0.88    1.25
  -5  -3  -6    1.68    1.61
  -5   3   6    1.95    1.33
  -5   3  -6   -0.20    1.40
   5  -3  -6    0.05    1.17
  -5   3  -6    1.38    1.40
  -5  -3   6    1.13    1.40
   5   3   6   -0.23    1.12
   0   4  -6  151.17    4.56
   0   4   6  139.56    4.22
   0   4   6  149.78    4.12
   0   4  -6  153.16    3.90
   0  -4  -6  150.67    3.47
   0  -4   6  150.78    4.93
   0  -4  -6  146.81    4.37
  -2  -4  -6  103.83    4.47
  -2  -4  -6  108.89    3.54
  -2   4   6  112.58    4.08
   2   4  -6  105.08    3.51
   2   4  -6  110.91    4.04
  -2   4   6  111.68    4.53
   2   4   6  101.61    3.01
  -2   4  -6  112.93    4.49
  -2  -4   6  108.83    3.88
   2  -4  -6  107.82    4.09
   2   4   6  102.38    4.20
  -2  -4   6  111.52    4.18
  -2   4  -6  113.56    3.88
  -2   4  -6  116.55    4.69
  -4  -4  -6   60.26    3.86
  -4  -4  -6   47.43    4.50
  -4   4   6   62.04    4.27
  -4   4   6   57.08    4.08
   4   4  -6   65.21    4.28
   4  -4  -6   54.55    3.98
  -4   4  -6   64.32    3.90
  -4   4  -6   59.76    3.89
  -4   4  -6   60.71    3.80
  -4  -4   6   62.30    3.64
  -4   4  -6   52.80    3.90
   4   4   6   59.67    4.07
  -4  -4   6   69.80    4.29
   6  -4   6   27.56    4.40
  -6  -4  -6   26.86    3.86
  -6  -4  -6   28.20    4.42
  -6   4   6   23.88    4.33
   6   4  -6   31.13    4.73
  -6   4  -6   24.40    3.98
  -6  -4   6   29.79    4.53
   6  -4  -6   34.40    5.00
  -1  -5  -6    1.14    0.51
   1  -5   6    0.40    0.81
   1   5  -6    0.81    0.58
   1   5  -6   -0.19    0.47
   1  -5   6   -0.07    0.46
  -1   5   6    0.59    0.63
  -1  -5  -6    1.29    0.80
  -1   5   6    0.78    0.51
   1  -5  -6    1.02    0.65
   1   5   6   -0.05    0.58
   1  -5  -6    0.59    0.59
  -1   5  -6   -0.04    0.72
  -1  -5   6    1.97    0.86
   1   5   6    0.30    0.51
  -1   5  -6    0.50    0.57
  -1  -5   6    0.15    0.48
   3   5  -6    0.86    0.77
  -3  -5  -6    0.46    0.71
  -3   5   6    0.28    0.72
  -3   5   6   -0.25    0.74
   3   5  -6    0.20    0.81
  -3  -5  -6    0.27    0.91
  -3  -5   6   -0.13    0.76
  -3   5  -6   -0.13    0.74
  -3   5  -6    0.48    0.93
  -3   5  -6    0.47    0.78
  -3  -5   6    0.21    0.82
  -3   5  -6    0.94    0.98
   3  -5  -6    0.69    0.84
   3   5   6    0.51    0.86
  -5  -5  -6    1.21    1.35
  -5   5   6   -0.06    1.51
   5   5  -6    0.73    1.40
  -5  -5  -6   -1.50    1.28
  -5   5   6    1.73    1.52
   5   5   6    0.14    1.15
   5  -5  -6   -0.01    1.40
  -5   5  -6    0.19    1.21
  -5  -5   6    0.50    1.36
   0  -6  -6    1.37    0.78
   0   6  -6    1.16    0.76
   0  -6  -6    1.15    0.63
   0  -6   6    2.30    1.18
   0   6   6    0.87    0.65
   0  -6   6    1.11    0.66
   0   6  -6    1.35    0.66
   0   6   6    0.94    0.64
   2  -6   6    1.71    0.84
  -2   6   6    2.52    1.09
  -2  -6  -6    1.27    0.71
   2   6  -6    1.64    0.77
  -2  -6  -6    0.44    0.88
   2   6  -6    0.34    0.67
  -2   6  -6    0.48    0.82
  -2  -6   6    1.62    0.85
  -2   6  -6    0.68    0.87
   2   6   6    1.96    0.99
  -2  -6   6    0.77    0.81
   2  -6  -6    1.47    0.85
  -2   6  -6    1.37    0.71
   2  -6  -6    0.94    0.95
  -4  -6  -6    2.01    1.18
  -4  -6  -6    1.47    1.21
  -4   6   6    1.62    1.20
  -4   6   6    1.75    1.29
   4   6  -6   -0.83    0.90
  -4  -6   6    0.66    1.05
   4  -6  -6    0.39    1.13
  -4   6  -6    3.34    1.65
  -4   6  -6    2.56    1.27
   4   6   6    0.26    1.10
  -4   6  -6    1.66    1.16
  -4   6  -6    0.68    0.98
   6   6  -6    2.27    2.09
  -6   6   6    0.09    1.71
  -6  -6  -6    0.45    1.66
  -6  -6  -6    1.65    2.09
  -6   6   6    2.16    2.22
   6  -6  -6    3.01    1.99
  -6   6  -6    4.46    2.52
  -6  -6   6    0.40    1.82
  -1   7   6   90.32    3.08
  -1  -7  -6   92.22    4.11
  -1   7   6   84.91    3.81
  -1  -7  -6   92.85    3.39
   1   7  -6   93.61    3.83
   1   7  -6   90.21    3.18
   1  -7   6   88.23    3.30
  -1   7  -6   86.19    2.85
  -1  -7   6   94.63    4.10
   1   7   6   92.23    3.90
  -1   7  -6   92.79    4.05
   1   7   6   91.83    3.11
   1  -7  -6   91.78    3.57
  -1  -7   6   92.35    3.44
   1  -7  -6   95.09    3.68
  -3  -7  -6   56.97    3.91
  -3  -7  -6   57.87    3.41
   3  -7   6   63.43    3.71
   3   7  -6   66.54    3.38
  -3   7   6   61.80    4.03
   3   7  -6   59.34    3.58
  -3  -7   6   57.96    3.66
  -3  -7   6   54.47    3.20
   3  -7  -6   59.10    3.59
  -3   7  -6   59.93    3.78
  -3   7  -6   63.18    4.26
   3   7   6   60.38    3.86
  -3   7  -6   52.52    3.05
  -5  -7  -6   39.27    4.65
  -5  -7  -6   29.09    3.72
   5   7  -6   37.77    4.55
  -5   7   6   38.96    5.05
  -5   7   6   28.40    4.26
   5   7   6   35.80    4.47
  -5   7  -6   31.46    4.05
   5  -7  -6   37.84    4.58
  -5  -7   6   37.17    4.88
  -5   7  -6   34.21    4.60
   0   8   6    1.76    0.84
   0  -8  -6    1.33    0.75
   0  -8  -6    1.76    0.83
   0   8  -6    1.36    0.56
   0   8  -6    2.05    0.96
   0   8   6    3.40    1.02
   0  -8   6    1.10    0.72
   0  -8   6    1.89    1.11
   2   8  -6    2.29    1.07
  -2  -8  -6    3.05    1.26
  -2  -8  -6    0.93    0.73
  -2   8   6    0.26    0.79
   2   8  -6    0.78    0.77
   2  -8   6    1.26    0.97
   2  -8  -6   -0.38    0.60
  -2  -8   6    0.93    0.91
   2  -8  -6    0.42    0.74
   2   8   6    1.69    1.07
  -2  -8   6    2.84    1.12
  -2   8  -6    0.35    0.90
  -2   8  -6    0.47    1.04
  -4  -8  -6   -0.14    1.15
  -4   8   6    2.43    1.47
   4  -8   6   -0.31    1.05
   4   8  -6    0.68    1.32
  -4  -8  -6    0.95    1.14
  -4   8  -6    0.70    1.19
   4   8   6    2.75    1.50
   4  -8  -6    1.66    1.26
  -4  -8   6    0.40    1.17
  -4   8  -6    2.23    1.60
  -1  -9  -6    3.03    1.17
  -1   9   6    3.14    0.91
  -1  -9  -6    1.20    0.84
   1   9  -6    1.87    0.93
   1  -9   6    1.95    1.00
   1   9  -6    2.39    0.84
  -1   9   6    1.23    0.92
  -1  -9   6    2.95    1.03
   1  -9  -6    1.75    0.90
  -1   9  -6    1.93    1.36
   1   9   6    1.39    0.74
  -1  -9   6    1.74    1.14
   1  -9  -6    2.15    1.04
  -1   9  -6    0.78    0.88
   1   9   6    2.52    1.08
  -3  -9  -6   -0.79    0.92
  -3  -9  -6    0.61    1.02
  -3   9   6    0.12    1.01
   3   9  -6    1.12    1.04
   3   9  -6    1.18    1.02
   3  -9   6   -0.37    0.92
  -3   9  -6    1.40    1.14
   3  -9  -6    1.95    1.40
  -3   9  -6    1.36    1.31
   3   9   6    0.09    1.00
  -3  -9   6    1.45    0.94
   3  -9  -6    0.67    0.96
   5  -9   6    0.74    1.55
  -5  -9  -6    0.61    1.72
   5   9  -6    2.23    1.83
  -5   9   6    1.51    1.72
  -5  -9  -6    0.86    1.28
   5   9   6    3.71    1.96
  -5  -9   6    1.10    1.61
  -5   9  -6    0.29    1.59
   5  -9  -6   -1.35    1.65
   5  -9  -6    2.38    1.63
   0  10   6    4.10    1.21
   0 -10  -6    4.28    1.19
   0  10   6    4.30    1.21
   0 -10   6    4.05    1.74
   0  10  -6    4.46    1.36
   0 -10  -6    2.96    1.08
   0 -10   6    3.76    1.17
  -2 -10  -6    1.38    0.83
  -2  10   6    3.90    1.39
   2  10  -6    2.71    1.08
   2 -10   6    2.54    1.10
   2  10  -6    2.90    1.30
  -2 -10  -6    5.28    1.55
  -2 -10   6    2.82    1.20
   2 -10  -6    1.46    1.03
  -2 -10   6    4.03    1.39
   2  10   6    3.58    1.29
  -2  10  -6    2.04    1.17
  -2  10  -6    4.53    1.78
   2 -10  -6    2.90    1.09
  -4  10   6    2.36    1.65
  -4 -10  -6    1.90    1.41
  -4 -10  -6    2.93    1.48
   4  10  -6    1.10    1.33
   4 -10   6    0.17    1.29
   4  10   6    2.39    1.53
   4 -10  -6    1.13    1.19
   4 -10  -6    1.96    1.75
  -4  10  -6    0.20    1.25
  -4 -10   6    1.55    1.46
  -4  10  -6    1.92    1.71
  -1  11   6  152.14    4.95
  -1 -11  -6  143.97    5.28
  -1  11   6  148.83    5.79
  -1 -11  -6  149.50    5.77
   1  11  -6  139.72    5.64
   1 -11   6  146.13    5.47
  -1 -11   6  140.75    5.34
   1 -11  -6  143.69    5.45
   1 -11  -6  149.61    5.00
  -1  11  -6  146.69    6.43
  -1 -11   6  139.12    5.78
  -1  11  -6  144.38    5.71
   1  11   6  147.33    5.65
  -3 -11  -6   97.24    5.01
   3  11  -6   96.83    4.60
  -3  11   6   97.36    5.68
   3 -11   6  106.86    5.36
  -3 -11  -6   99.95    5.45
   3  11  -6   94.30    4.94
  -3  11  -6  111.39    6.35
   3  11   6  100.75    5.47
  -3  11  -6   97.02    5.25
  -3 -11   6  105.74    5.39
   3 -11  -6  109.44    5.14
   3 -11  -6  103.72    5.67
  -5 -11  -6   65.19    6.12
  -5 -11  -6   60.10    5.74
   5 -11   6   48.25    5.23
  -5  11   6   53.38    6.26
   5  11  -6   58.79    5.90
  -5 -11   6   52.65    5.72
   5 -11  -6   72.13    7.52
   5  11   6   62.12    6.33
  -5  11  -6   67.23    7.19
   0 -12   6    8.08    1.87
   0  12   6    7.52    1.64
   0 -12  -6    8.43    1.73
   0 -12   6    7.42    2.08
   0  12  -6    3.19    1.23
   0 -12  -6    7.05    1.68
   0  12   6    4.08    1.31
  -2 -12  -6    7.31    1.93
  -2 -12  -6    6.57    1.61
   2  12  -6    5.25    1.68
   2 -12   6    3.56    1.50
  -2  12   6    5.77    1.78
  -2  12  -6    5.84    1.75
  -2 -12   6    4.34    1.63
   2  12   6    4.08    1.56
   2 -12  -6    5.73    1.77
  -2 -12   6    6.72    1.86
  -2  12  -6    3.73    1.76
  -4 -12  -6    4.26    1.87
   4 -12   6    3.89    1.70
  -4 -12  -6    4.11    1.89
   4  12  -6    4.36    1.72
  -4  12   6    1.45    1.55
   4 -12  -6    2.64    2.27
  -4 -12   6    2.29    1.66
  -4  12  -6    2.43    1.86
   4  12   6    5.12    2.04
  -1  13   6    0.89    0.94
   1 -13   6    0.25    0.98
  -1  13   6    3.74    1.42
   1  13  -6    2.51    1.26
  -1 -13  -6    2.16    1.21
  -1 -13  -6    1.99    1.21
   1 -13  -6    0.18    0.91
  -1  13  -6    1.55    1.20
  -1 -13   6    2.47    1.21
  -1 -13   6    2.51    1.46
  -1  13  -6   -0.07    1.17
   1  13   6    1.15    1.03
  -3 -13  -6    3.62    1.62
   3 -13   6    1.00    1.23
  -3 -13  -6   -0.06    0.99
  -3  13   6    0.06    1.27
   3  13  -6    1.26    1.25
  -3 -13   6   -0.16    0.92
  -3  13  -6    2.40    1.65
   3  13   6    0.71    1.25
  -3  13  -6    3.19    1.53
   3 -13  -6    3.17    1.77
   0  14   6    1.04    1.07
   0 -14   6    2.91    1.47
   0 -14   6    5.70    2.09
   0  14  -6    6.04    1.85
   0  14   6    2.40    1.20
   0 -14  -6    2.46    1.24
  -2 -14  -6    4.00    1.46
  -2 -14  -6    2.00    1.21
  -2  14   6    0.20    1.29
   2 -14   6    1.01    1.27
   2  14  -6    1.23    1.38
  -2  14  -6    2.00    1.53
  -2  14  -6    1.80    1.36
   2  14   6    0.96    1.13
  -2 -14   6    1.17    1.24
   2 -14  -6    2.55    1.57
   4 -14   6    3.35    2.01
   4  14  -6    1.06    1.41
  -4  14   6    2.09    2.09
  -4 -14  -6    1.21    1.58
  -4 -14  -6    0.14    1.54
   4 -14  -6    4.19    2.25
  -4  14  -6    1.49    2.00
   4  14   6    0.47    1.33
  -4 -14   6    1.55    1.68
   1 -15   6   47.46    4.70
  -1  15   6   58.04    4.37
   1  15  -6   61.63    4.50
  -1  15   6   56.03    3.70
  -1 -15  -6   54.85    4.05
  -1 -15   6   53.22    4.31
   1  15   6   55.62    4.20
  -1 -15   6   57.36    4.15
   1 -15  -6   56.17    5.01
  -1  15  -6   58.56    5.71
  -1  15  -6   50.88    4.91
   3  15  -6   45.78    4.94
  -3  15   6   41.74    5.00
   3 -15   6   42.90    4.90
  -3 -15  -6   44.60    4.76
  -3 -15  -6   43.96    4.52
  -3  15  -6   40.73    4.63
   3 -15  -6   40.18    4.89
   3  15   6   42.19    4.81
  -3 -15   6   36.09    4.36
  -3  15  -6   41.97    5.50
   0 -16   6    1.88    1.72
   0  16  -6    0.78    1.13
   0 -16   6    0.96    1.24
   0  16   6   -0.90    0.90
   0 -16  -6    1.82    1.37
   2 -16   6    0.09    1.23
  -2 -16  -6   -0.06    1.11
  -2  16   6   -0.64    1.29
   2  16  -6    0.96    1.34
   2  16   6    0.19    1.30
  -2 -16   6    0.11    1.02
  -2  16  -6   -0.16    1.42
   2 -16  -6    0.86    1.48
  -2  16  -6    1.84    1.46
  -4  16   6   -0.28    1.84
  -4 -16  -6    1.39    1.60
   4 -16   6    0.91    1.95
   4  16  -6    1.03    1.45
  -4  16  -6    1.72    2.28
   4  16   6    0.28    1.64
  -4 -16   6    0.63    1.68
   4 -16  -6    0.09    1.96
   1 -17   6    1.28    1.47
   1  17  -6    0.22    1.22
  -1  17   6    4.04    1.81
  -1 -17  -6   -0.55    1.20
  -1  17  -6    0.29    1.52
  -1 -17   6    1.84    1.43
  -1  17  -6    0.82    1.54
   1 -17  -6    0.84    1.49
   1  17   6    0.33    1.26
   3 -17   6    0.56    1.65
   3  17  -6    2.96    2.00
  -3 -17  -6    1.16    1.57
  -3  17   6    1.18    2.02
   3  17   6    2.94    1.94
  -3  17  -6    5.84    2.46
  -3 -17   6    3.83    1.98
  -3  17  -6    1.34    2.09
   3 -17  -6    1.23    2.01
   0  18  -6   27.41    3.98
   0 -18   6   25.54    3.81
   0 -18   6   26.30    4.23
   0  18   6   27.57    3.66
   0 -18  -6   25.18    3.65
  -2 -18  -6   21.19    3.29
   2 -18   6   16.91    3.30
  -2  18   6   27.32    4.32
   2  18  -6   15.85    3.07
   2  18   6   19.66    3.59
  -2  18  -6   24.57    4.02
  -2  18  -6   18.02    3.97
   2 -18  -6   21.15    3.65
  -2 -18   6   17.61    3.31
   1  19  -6    1.27    1.59
  -1 -19  -6    2.37    1.76
   1 -19   6    3.51    1.87
   1 -19   6    4.05    2.47
   1  19   6    0.29    1.34
  -1 -19   6   -0.51    1.25
  -1  19  -6    0.17    1.51
   1 -19  -6    0.04    1.46
   0 -20  -6    0.33    1.61
   0 -20   6   -1.12    1.39
   0  20  -6    0.89    1.57
   0  20   6    0.61    1.52
   0 -20   6    1.41    2.21
   0   0  -7   -0.16    0.46
   0   0  -7   -0.54    0.45
   0   0   7   -0.30    0.45
   2   0  -7   -0.59    0.50
   2   0   7    0.25    0.59
  -2   0   7   -0.05    0.42
  -2   0  -7    0.27    0.68
  -2   0   7   -0.60    0.50
  -2   0  -7    0.00    0.76
   2   0  -7    0.22    0.41
  -2   0  -7    0.96    0.49
  -4   0   7    1.30    1.14
  -4   0  -7   -0.37    0.82
   4   0   7   -1.10    0.86
  -4   0  -7   -0.01    0.96
  -4   0   7    0.46    1.01
   4   0  -7   -0.69    0.85
   6   0  -7    0.41    1.61
  -6   0   7   -0.02    1.93
  -6   0  -7   -0.41    1.53
   1   1  -7   54.35    2.45
   1   1  -7   57.03    2.76
  -1   1   7   53.57    2.01
  -1   1   7   57.92    3.02
  -1  -1  -7   53.96    2.86
  -1  -1  -7   53.96    2.88
   1  -1   7   52.15    2.92
   1  -1  -7   56.23    2.81
  -1  -1   7   56.49    2.02
  -1   1  -7   53.33    2.74
  -1  -1   7   54.73    2.99
  -1   1  -7   49.51    2.86
   1   1   7   52.96    2.68
   1  -1  -7   54.90    2.26
  -3   1   7   27.76    2.96
  -3  -1  -7   27.57    3.15
  -3   1   7   28.91    2.96
  -3  -1  -7   29.71    2.22
   3   1  -7   33.92    3.38
   3  -1   7   32.77    2.68
  -3   1  -7   28.86    3.10
   3   1   7   28.57    3.17
   3   1   7   29.21    2.25
  -3  -1   7   28.37    3.06
   3  -1  -7   34.72    3.47
  -3  -1   7   32.18    3.09
  -3   1  -7   34.02    2.38
  -3   1  -7   33.75    3.34
  -5   1   7   15.69    3.10
  -5  -1  -7   17.93    3.24
   5  -1   7   12.51    2.62
   5   1  -7   16.68    3.30
  -5  -1  -7   16.56    2.83
  -5   1   7   14.10    2.81
  -5  -1   7   12.68    2.84
   5  -1  -7    8.50    2.37
   5   1   7   12.64    2.65
  -5   1  -7   16.02    3.01
  -5   1  -7   20.66    3.16
   0  -2  -7  182.39    5.07
   0   2   7  173.07    5.03
   0   2  -7  179.07    4.77
   0   2  -7  178.89    5.10
   0  -2   7  176.30    5.45
   0  -2  -7  174.74    4.74
  -2  -2  -7  147.27    5.34
   2   2  -7  142.49    4.87
  -2   2   7  139.66    4.46
   2  -2   7  143.25    5.21
  -2   2   7  141.24    5.16
  -2  -2  -7  138.37    3.69
   2   2  -7  136.59    3.94
  -2  -2   7  141.80    5.02
  -2   2  -7  148.74    4.95
  -2   2  -7  137.96    3.68
   2   2   7  135.34    4.27
  -2  -2   7  142.92    4.40
  -2   2  -7  139.92    5.11
   2   2   7  140.83    5.21
   2  -2  -7  142.64    4.90
  -4   2   7   89.96    5.06
  -4  -2  -7   79.36    4.83
  -4  -2  -7   74.68    4.08
   4   2  -7   85.42    4.86
  -4   2   7   83.44    4.79
   4   2   7   82.17    4.76
  -4  -2   7   84.01    4.77
   4  -2  -7   89.34    5.01
  -4   2  -7   85.77    4.69
  -4   2  -7   77.88    4.22
  -4  -2   7   80.74    4.41
  -6  -2  -7   48.47    5.81
  -6   2   7   43.65    5.37
   6  -2   7   36.77    5.08
   6   2  -7   34.36    5.07
   6  -2  -7   37.11    5.41
  -6  -2   7   41.22    5.56
  -1  -3  -7    2.95    1.00
  -1   3   7    0.75    0.71
   1   3  -7    1.66    0.69
  -1   3   7    1.15    0.56
   1  -3   7   -0.14    0.63
   1   3  -7    2.12    0.79
   1   3   7    2.34    0.82
   1   3   7    0.67    0.67
  -1  -3   7    1.32    0.83
  -1   3  -7    2.56    0.89
  -1  -3   7    0.91    0.48
   1  -3  -7    2.76    0.77
   1  -3  -7    1.52    0.84
  -1   3  -7    1.93    0.95
  -3  -3  -7    1.67    1.20
  -3  -3  -7    0.58    0.68
  -3   3   7    0.69    0.80
   3   3  -7    2.05    1.14
   3  -3   7    0.70    1.03
  -3   3   7    0.00    0.80
  -3   3  -7    0.40    0.97
  -3   3  -7    1.37    0.79
  -3   3  -7    1.49    0.96
  -3  -3   7   -0.17    0.73
   3   3   7    1.54    0.99
   3  -3  -7    0.45    0.87
  -3  -3   7    0.43    0.82
  -5   3   7   -0.51    1.18
  -5  -3  -7    1.14    1.26
  -5  -3  -7    1.55    1.58
   5   3  -7    0.14    1.36
  -5   3   7   -0.43    1.12
  -5   3  -7   -0.02    1.23
  -5  -3   7    1.66    1.66
  -5   3  -7   -0.01    1.24
   5  -3  -7   -0.90    1.47
   5   3   7    1.18    1.46
   0  -4  -7   65.75    2.20
   0  -4  -7   68.38    3.12
   0  -4   7   70.43    3.63
   0   4  -7   67.26    3.20
   0   4   7   68.70    2.94
   0   4   7   66.77    3.05
   0   4  -7   66.59    2.70
  -2   4   7   47.96    3.17
   2   4  -7   51.64    2.57
   2  -4   7   51.51    2.49
   2  -4   7   50.92    3.46
  -2   4   7   51.65    2.82
   2   4  -7   52.54    2.98
  -2  -4  -7   57.75    3.48
  -2  -4  -7   47.30    2.32
   2  -4  -7   52.17    2.99
   2   4   7   47.24    3.04
   2   4   7   46.09    2.24
  -2   4  -7   54.66    3.28
  -2  -4   7   50.81    2.69
  -2   4  -7   47.04    2.75
  -2  -4   7   53.45    3.09
   4   4  -7   23.52    3.27
  -4  -4  -7   23.56    3.31
  -4   4   7   29.31    3.74
  -4   4   7   20.62    3.10
  -4  -4  -7   22.82    2.64
  -4   4  -7   25.93    3.29
   4   4   7   25.63    3.25
  -4  -4   7   24.30    3.06
  -4  -4   7   25.90    3.41
  -4   4  -7   19.54    2.63
  -4   4  -7   27.63    3.41
  -4   4  -7   27.86    3.49
   4  -4  -7   21.90    3.14
  -6  -4  -7    9.73    3.16
   6   4  -7    8.37    2.82
  -6   4   7    9.55    3.10
  -6  -4   7    8.76    2.75
   6  -4  -7   13.38    3.48
  -1   5   7  110.76    4.38
  -1   5   7  108.88    3.28
  -1  -5  -7  115.44    3.23
   1   5  -7  107.44    3.73
   1  -5   7  108.56    4.86
   1   5  -7  115.18    4.05
   1  -5  -7  111.49    3.60
   1  -5  -7  107.71    4.03
   1   5   7  117.80    4.33
  -1  -5   7  111.26    4.51
  -1   5  -7  114.08    4.49
  -1  -5   7  111.46    3.41
  -1   5  -7  118.12    3.78
   1   5   7  107.65    3.61
  -3   5   7   71.75    4.04
   3   5  -7   65.67    3.84
   3   5  -7   69.15    3.25
  -3  -5  -7   72.25    4.30
  -3   5   7   74.66    4.38
  -3  -5  -7   68.12    3.46
  -3  -5   7   74.50    3.96
   3   5   7   71.56    4.15
  -3   5  -7   76.94    4.43
   3  -5  -7   74.71    4.06
  -3  -5   7   75.23    3.88
  -3   5  -7   78.90    3.80
  -3   5  -7   72.60    4.20
  -5   5   7   35.26    4.29
  -5  -5  -7   35.65    3.93
  -5   5   7   33.32    4.42
  -5  -5  -7   40.40    4.95
   5   5  -7   37.92    4.60
   5   5   7   35.67    4.40
  -5   5  -7   39.77    4.44
  -5  -5   7   36.13    4.48
   5  -5  -7   35.57    4.55
   0  -6   7   83.14    2.89
   0  -6  -7   90.28    3.79
   0   6   7   91.94    3.53
   0  -6  -7   92.72    3.13
   0   6  -7   88.44    3.06
   0  -6   7   96.06    4.48
   0   6  -7   85.92    3.83
   0   6   7   93.30    3.69
   2  -6   7   71.14    3.18
   2   6  -7   72.28    3.48
  -2  -6  -7   74.16    4.11
  -2   6   7   68.53    3.83
  -2  -6  -7   70.58    3.11
   2   6  -7   71.68    3.33
   2   6   7   82.64    4.04
  -2   6  -7   72.23    3.93
   2  -6  -7   71.70    3.61
  -2   6  -7   70.53    4.16
   2  -6  -7   73.00    3.64
  -2   6  -7   74.57    3.16
  -2  -6   7   72.03    3.72
  -2  -6   7   76.44    3.52
  -4  -6  -7   50.33    3.58
   4   6  -7   47.27    4.43
  -4  -6  -7   50.23    4.73
  -4   6   7   36.62    3.93
  -4   6   7   46.23    4.72
  -4   6  -7   42.90    4.07
  -4   6  -7   49.42    3.73
  -4  -6   7   41.70    4.34
  -4   6  -7   44.80    4.00
  -4   6  -7   51.76    5.00
   4   6   7   31.63    3.82
   4  -6  -7   44.98    4.38
  -1   7   7   39.84    2.80
  -1  -7  -7   42.32    3.01
  -1   7   7   37.30    2.11
   1   7  -7   41.30    2.69
   1  -7   7   38.21    2.18
   1  -7   7   41.88    3.38
   1   7  -7   42.98    2.35
  -1  -7  -7   38.70    2.26
   1   7   7   35.08    2.11
  -1  -7   7   40.21    2.37
  -1   7  -7   36.30    2.06
   1  -7  -7   37.41    2.53
  -1  -7   7   40.71    3.05
   1   7   7   41.84    2.75
  -1   7  -7   33.06    3.17
   1  -7  -7   42.51    2.51
   3   7  -7   23.83    2.83
   3   7  -7   24.31    3.02
  -3  -7  -7   22.76    2.56
  -3  -7  -7   28.19    3.47
   3  -7   7   27.38    3.00
  -3   7   7   23.28    3.18
  -3  -7   7   33.78    3.63
  -3   7  -7   23.50    3.54
  -3  -7   7   24.22    3.01
  -3   7  -7   29.34    3.66
  -3   7  -7   21.50    2.85
   3  -7  -7   31.70    3.32
   3   7   7   22.29    3.09
  -5  -7  -7    8.76    2.36
  -5  -7  -7   13.81    3.04
   5   7  -7   12.23    2.82
  -5   7   7   17.19    3.42
  -5   7   7   11.21    2.87
   5   7   7   14.06    3.21
  -5  -7   7    6.58    2.21
  -5   7  -7   12.75    3.05
   5  -7  -7   12.77    2.98
   0   8  -7    3.79    1.14
   0   8  -7    4.45    0.97
   0  -8   7    5.08    1.10
   0  -8  -7    4.37    1.03
   0   8   7    2.86    0.92
   0  -8  -7    4.20    1.20
   0   8   7    4.21    1.16
   0  -8   7    4.39    1.54
  -2  -8  -7    5.83    1.66
  -2  -8  -7    2.00    0.91
   2   8  -7    3.01    1.16
  -2   8   7    3.34    1.28
   2  -8   7    5.03    1.38
   2   8  -7    2.76    1.05
  -2  -8   7    5.27    1.53
  -2   8  -7    2.82    1.44
   2  -8  -7    4.17    1.21
   2  -8  -7    4.87    1.42
  -2  -8   7    2.22    1.04
   2   8   7    4.04    1.36
  -2   8  -7    2.84    1.20
  -4  -8  -7    3.98    1.73
   4   8  -7    3.79    1.68
   4  -8   7    0.77    1.16
  -4   8   7    0.73    1.29
  -4  -8  -7    2.21    1.39
  -4  -8   7    3.68    1.58
  -4   8  -7    1.75    1.72
   4  -8  -7    1.63    1.43
   4   8   7    5.55    2.03
  -4   8  -7    3.74    1.64
   1   9  -7  143.54    4.30
  -1  -9  -7  152.85    4.96
   1  -9   7  147.46    4.89
  -1  -9  -7  143.13    5.65
   1  -9   7  152.47    6.53
  -1   9   7  148.40    4.56
   1   9  -7  144.91    5.43
  -1   9   7  150.96    5.65
   1   9   7  147.96    5.47
   1   9   7  142.36    4.43
   1  -9  -7  143.70    5.02
  -1   9  -7  151.92    5.72
  -1  -9   7  147.80    4.93
   1  -9  -7  142.22    5.00
  -1  -9   7  138.24    5.76
   3   9  -7  101.19    4.65
   3  -9   7   99.89    4.78
   3   9  -7  103.31    4.82
  -3   9   7   95.31    5.41
  -3  -9  -7  106.61    5.49
  -3  -9  -7   96.61    4.60
   3  -9  -7  101.53    4.84
   3  -9  -7  116.14    5.65
   3   9   7   96.61    5.30
  -3   9  -7  109.11    5.95
  -3   9  -7  111.69    5.48
  -3  -9   7   98.94    5.04
  -3  -9   7   96.11    4.60
   5   9  -7   61.61    6.35
  -5  -9  -7   53.20    5.55
  -5   9   7   52.39    5.64
  -5  -9  -7   54.75    4.95
  -5   9  -7   69.57    6.91
   5  -9  -7   55.05    6.48
   5   9   7   53.76    5.66
   5  -9  -7   44.95    4.88
  -5  -9   7   59.56    6.08
   0  10   7   46.03    2.97
   0 -10  -7   41.37    2.76
   0 -10   7   43.15    4.36
   0  10   7   40.40    2.86
   0  10  -7   44.19    3.21
   0 -10  -7   46.67    3.15
   0 -10   7   44.16    2.82
   2  10  -7   44.39    4.22
   2 -10   7   38.80    3.59
   2  10  -7   35.83    2.59
  -2 -10  -7   33.38    3.06
  -2  10   7   34.92    3.76
  -2 -10  -7   39.34    3.80
   2 -10  -7   31.96    3.05
  -2 -10   7   41.22    3.15
  -2  10  -7   41.86    4.35
  -2 -10   7   34.89    3.43
  -2  10  -7   32.01    3.94
   2 -10  -7   34.73    3.43
   2  10   7   37.01    3.74
  -4 -10  -7   24.18    3.64
   4  10  -7   23.44    3.62
  -4 -10  -7   20.55    2.91
   4 -10   7   20.83    3.20
  -4  10   7   17.28    3.37
   4 -10  -7   16.88    2.84
   4 -10  -7   21.01    3.72
   4  10   7   15.45    3.01
  -4  10  -7   17.13    3.42
  -4  10  -7   17.14    3.02
  -4 -10   7   17.61    2.88
  -1  11   7    0.65    0.72
   1 -11   7    0.87    0.96
  -1 -11  -7    1.88    1.00
  -1 -11  -7    1.34    1.23
  -1  11   7    1.59    1.02
   1 -11   7    1.13    1.26
   1  11  -7    0.02    0.90
  -1  11  -7    1.97    1.30
  -1 -11   7    0.88    0.93
   1  11   7    1.95    1.10
   1 -11  -7    0.44    0.83
   1 -11  -7    1.20    0.99
  -1 -11   7    1.77    1.24
   3 -11   7    1.05    1.16
   3  11  -7    2.35    1.36
  -3 -11  -7    1.04    1.53
  -3 -11  -7    1.90    1.20
  -3  11   7    1.23    1.20
   3  11  -7    0.98    0.98
   3 -11  -7    0.16    0.90
   3 -11  -7    2.47    1.58
  -3 -11   7    0.78    1.27
  -3  11  -7   -0.09    1.20
  -3  11  -7   -0.87    1.25
   3  11   7   -0.59    0.85
  -5  11   7   -1.12    1.55
   5  11  -7    0.73    1.65
  -5 -11  -7   -2.41    1.48
  -5 -11  -7    0.61    1.57
  -5 -11   7    0.85    1.69
   5 -11  -7   -0.39    1.72
   5  11   7    0.88    1.62
  -5  11  -7    1.37    1.84
   0 -12   7   16.17    3.16
   0 -12  -7   12.57    2.14
   0 -12   7   17.78    2.59
   0 -12  -7   12.84    2.16
   0  12  -7   15.75    2.60
   0  12   7   14.66    2.27
   0  12   7   11.68    2.01
  -2  12   7    7.65    1.94
   2 -12   7   11.72    2.23
   2  12  -7   13.94    2.58
  -2 -12  -7    9.76    2.24
  -2 -12  -7    8.43    1.84
   2  12   7   10.78    2.23
  -2  12  -7    8.39    2.19
   2 -12  -7   10.45    1.94
  -2 -12   7   11.83    2.47
   2 -12  -7   13.41    2.39
  -2  12  -7   10.13    2.48
  -2 -12   7   11.27    2.40
  -4 -12  -7    7.54    2.28
  -4 -12  -7    5.89    2.07
  -4  12   7    7.09    2.45
   4  12  -7    6.66    2.49
   4 -12   7    5.66    3.01
   4  12   7    9.20    2.55
  -4 -12   7    4.84    1.95
  -4  12  -7    6.28    2.59
   4 -12  -7    3.75    2.07
   1 -13   7   64.54    5.05
  -1  13   7   64.39    3.65
   1  13  -7   62.75    4.34
  -1  13   7   63.55    4.25
   1 -13   7   60.59    3.97
  -1 -13  -7   60.57    4.10
  -1 -13  -7   64.90    4.00
   1  13   7   66.31    4.29
   1 -13  -7   68.54    4.20
  -1  13  -7   65.93    4.48
  -1 -13   7   67.37    4.51
  -1 -13   7   66.91    4.08
  -3  13   7   52.39    5.57
  -3 -13  -7   50.21    4.59
   3 -13   7   48.63    4.81
  -3 -13  -7   52.26    4.98
   3  13  -7   54.42    5.03
   3 -13  -7   43.32    4.67
  -3  13  -7   45.57    5.35
   3  13   7   62.28    5.60
  -3  13  -7   48.45    4.84
  -3 -13   7   42.31    4.48
   0 -14  -7    0.82    0.87
   0 -14   7    1.07    1.44
   0 -14   7   -1.14    0.88
   0  14   7   -0.21    0.91
   0  14   7    0.79    0.94
   0  14  -7    0.54    0.99
   2 -14   7   -0.35    1.05
  -2  14   7   -0.05    1.20
  -2 -14  -7    1.89    1.30
   2  14  -7    0.34    1.25
  -2 -14  -7   -0.05    1.02
  -2  14  -7    0.12    1.45
  -2  14  -7    0.54    1.24
  -2 -14   7    0.22    1.18
   2  14   7    0.62    1.22
   2 -14  -7   -0.43    1.17
  -4  14   7    0.99    1.87
  -4 -14  -7    1.02    1.51
  -4 -14  -7    0.11    1.56
   4  14   7    2.54    1.75
  -4  14  -7   -0.45    1.64
  -4 -14   7   -0.34    1.43
   4 -14  -7    1.39    1.80
   1 -15   7   17.87    3.42
   1  15  -7   16.09    2.84
  -1  15   7   14.39    2.56
   1 -15   7   22.22    3.43
  -1 -15  -7   18.30    2.87
   1 -15  -7   19.10    3.01
  -1 -15   7   18.61    3.27
   1  15   7   22.05    3.23
  -1  15  -7   19.60    3.23
  -1 -15   7   15.62    3.12
   3  15  -7    7.76    2.30
   3 -15   7   14.43    3.20
  -3 -15  -7    9.72    2.29
  -3  15   7   13.03    3.16
  -3 -15  -7    9.47    2.61
   3 -15  -7    7.45    2.51
   3  15   7   11.30    2.62
  -3  15  -7   10.61    2.79
  -3 -15   7   12.71    2.74
  -3  15  -7    7.23    2.62
   0  16   7   51.68    4.67
   0 -16   7   49.39    5.29
   0 -16  -7   48.83    4.68
   0 -16   7   42.34    4.50
   0  16  -7   56.02    5.28
  -2 -16  -7   47.72    4.66
  -2  16   7   49.77    5.38
   2 -16   7   55.51    5.87
   2  16  -7   49.59    5.11
   2 -16  -7   39.53    4.48
  -2  16  -7   50.49    5.27
   2  16   7   53.39    5.29
  -2 -16   7   54.42    5.44
  -2  16  -7   48.18    5.78
   1  17  -7   33.84    4.36
  -1 -17  -7   32.35    4.04
   1 -17   7   25.48    3.84
  -1  17   7   29.17    4.09
   1 -17   7   28.67    4.60
  -1 -17   7   35.00    4.38
   1  17   7   36.31    4.40
  -1  17  -7   34.42    4.42
   1 -17  -7   28.83    3.79
  -1 -17   7   17.66    3.39
  -3  17   7   14.29    3.68
  -3 -17  -7   19.22    3.30
   3  17  -7   24.86    3.98
   3  17   7   17.04    3.51
   3 -17  -7   20.94    3.95
  -3  17  -7   17.88    4.18
  -3  17  -7   20.10    3.94
  -3 -17   7   23.44    3.75
   0 -18   7    2.52    1.92
   0  18   7    3.78    1.65
   0 -18  -7    4.64    1.88
   0  18  -7    0.02    1.24
   0 -18   7    4.43    2.36
   2 -18   7    0.40    1.54
  -2 -18  -7    2.96    1.67
   2  18  -7    3.97    1.94
  -2  18   7    1.82    2.09
   2  18   7    3.12    1.98
   2 -18  -7    1.17    1.87
  -2 -18   7    3.94    1.94
  -2  18  -7    0.30    1.99
  -2  18  -7    3.80    1.98
   1 -19   7    0.26    1.69
   1  19  -7    2.30    1.92
   1 -19   7    0.28    2.09
  -1 -19  -7    0.81    1.62
  -1  19  -7    4.55    2.18
   1 -19  -7    5.94    2.47
  -1 -19   7   -0.37    1.50
   1  19   7    0.85    1.56
   0 -20   7   38.57    4.97
   0  20   7   54.41    5.71
   0 -20   7   63.71    6.31
   0 -20  -7   62.21    6.28
   0  20  -7   54.66    5.90
   0   0  -8   10.67    1.58
   0   0  -8    8.66    1.50
   0   0   8   10.73    1.78
   2   0  -8   12.71    1.46
  -2   0   8    8.20    1.41
  -2   0   8   10.28    2.01
   2   0  -8   10.54    1.86
   2   0   8    8.99    1.83
  -2   0  -8    7.31    1.64
  -2   0  -8    9.60    1.89
  -4   0   8    6.37    1.87
  -4   0  -8    7.00    2.03
   4   0   8    6.35    1.95
   4   0  -8    4.21    1.70
  -4   0   8    3.48    1.67
   6   0  -8    0.31    1.95
  -6   0   8    2.35    2.12
  -6   0  -8    3.88    2.59
  -1  -1  -8  114.42    4.38
  -1   1   8  110.34    4.41
   1   1  -8  114.50    3.86
  -1  -1  -8  111.98    4.36
   1  -1   8  110.67    4.50
   1   1  -8  112.32    4.14
  -1   1   8  110.92    2.94
  -1   1  -8  106.50    4.10
  -1   1  -8  111.52    4.46
  -1  -1   8  113.38    4.50
   1  -1  -8  109.83    4.13
   1   1   8  108.74    4.09
   1  -1  -8  108.66    3.51
  -3   1   8   74.37    3.96
  -3  -1  -8   75.26    3.27
   3   1  -8   86.34    4.41
  -3   1   8   74.59    4.22
   3  -1   8   77.90    4.05
  -3  -1  -8   79.99    4.28
  -3  -1   8   70.19    4.05
  -3   1  -8   74.58    3.43
  -3   1  -8   66.00    3.89
   3   1   8   75.26    4.33
  -3   1  -8   83.37    4.45
   3  -1  -8   73.36    4.09
  -3  -1   8   73.78    3.88
   3   1   8   66.73    3.60
  -5   1   8   62.38    5.82
   5   1  -8   46.39    5.12
   5  -1   8   46.20    4.94
  -5   1   8   47.52    5.25
  -5  -1  -8   44.82    5.18
  -5  -1   8   46.90    5.30
  -5  -1   8   50.95    5.55
   5   1   8   40.71    4.64
   5  -1  -8   41.56    5.01
  -5   1  -8   46.44    4.94
   0  -2  -8   53.77    2.73
   0  -2  -8   52.46    2.84
   0  -2   8   59.21    3.31
   0   2  -8   54.00    2.75
   0   2  -8   49.83    2.84
   0   2   8   57.48    3.00
  -2   2   8   40.30    2.42
  -2  -2  -8   42.77    3.16
   2  -2   8   39.57    2.98
  -2   2   8   44.21    3.04
  -2  -2  -8   40.82    1.96
   2   2  -8   37.99    2.67
   2   2  -8   42.79    2.31
  -2   2  -8   37.95    3.32
   2  -2  -8   40.79    2.78
  -2   2  -8   41.51    3.71
  -2  -2   8   42.86    2.49
   2   2   8   44.22    2.58
  -2  -2   8   40.29    2.89
  -4   2   8   22.26    3.13
  -4  -2  -8   15.76    2.89
  -4   2   8   17.35    2.88
   4   2  -8   21.01    3.23
  -4  -2   8   18.05    2.87
  -4  -2   8   19.90    2.91
   4   2   8   14.14    2.63
   4  -2  -8   23.30    3.31
  -4   2  -8   18.05    2.78
  -4   2  -8   18.36    2.90
  -6   2   8    5.56    2.54
   6   2  -8    5.10    2.48
  -6  -2  -8    6.51    2.50
  -6  -2   8   11.33    3.08
  -6   2  -8    4.14    2.24
   6  -2  -8    7.87    2.90
   1   3  -8  148.62    4.77
  -1   3   8  144.73    5.15
   1   3  -8  147.41    4.73
  -1   3   8  140.25    3.97
  -1  -3  -8  144.87    5.15
   1  -3   8  144.02    5.41
  -1  -3   8  132.68    3.52
   1  -3  -8  140.48    4.78
  -1   3  -8  141.51    5.21
   1   3   8  146.75    5.10
  -1   3  -8  143.44    4.64
  -1  -3   8  143.36    5.15
   1   3   8  149.11    4.68
   1  -3  -8  139.01    3.73
   3  -3   8   91.13    4.76
  -3   3   8   91.58    4.42
   3   3  -8   96.26    4.67
  -3   3   8   87.71    4.74
  -3  -3  -8   89.70    3.73
  -3  -3  -8   93.86    4.79
  -3   3  -8   89.11    4.63
  -3  -3   8   84.22    4.20
   3  -3  -8   94.75    4.65
  -3   3  -8   89.77    4.27
  -3   3  -8   85.06    4.29
   3   3   8   88.40    4.71
  -3  -3   8   98.21    4.66
   5  -3   8   46.20    4.69
  -5  -3  -8   57.16    5.74
  -5   3   8   44.83    4.82
   5   3  -8   50.67    5.37
  -5   3   8   51.92    5.43
   5  -3  -8   52.06    5.55
  -5  -3   8   46.48    5.09
   5   3   8   42.41    4.80
  -5   3  -8   48.09    4.92
   0   4   8   81.69    3.42
   0  -4   8   84.50    4.19
   0   4  -8   80.16    3.73
   0   4   8   78.90    3.54
   0  -4  -8   80.26    3.59
   0   4  -8   78.34    3.20
   2   4  -8   59.98    3.35
  -2  -4  -8   62.10    2.60
  -2   4   8   58.69    3.06
   2  -4   8   60.50    2.65
   2   4  -8   62.39    3.05
   2  -4   8   60.13    3.88
  -2   4   8   71.01    3.93
  -2  -4  -8   58.69    3.75
  -2   4  -8   59.13    3.19
  -2  -4   8   61.26    3.02
   2   4   8   63.33    2.85
   2  -4  -8   58.19    3.39
  -2   4  -8   61.47    3.75
  -2  -4   8   62.66    3.59
   2   4   8   63.18    3.71
  -4   4   8   31.46    3.66
  -4  -4  -8   32.68    4.02
   4  -4   8   34.39    4.20
  -4   4   8   32.18    3.94
   4   4  -8   35.69    4.01
   4  -4  -8   32.47    3.87
  -4   4  -8   39.21    4.06
  -4  -4   8   34.82    3.93
  -4  -4   8   29.37    3.49
   4   4   8   30.53    3.71
  -4   4  -8   35.56    3.83
  -1  -5  -8  159.08    5.65
   1   5  -8  154.44    4.83
  -1  -5  -8  154.26    3.83
   1   5  -8  157.50    5.16
  -1   5   8  150.38    4.20
   1  -5   8  155.51    6.10
  -1   5   8  154.87    5.48
  -1  -5   8  161.87    5.73
   1   5   8  160.72    4.79
   1   5   8  162.33    5.40
  -1  -5   8  158.15    4.23
   1  -5  -8  160.75    5.27
   1  -5  -8  150.30    4.29
  -1   5  -8  160.77    5.75
  -1   5  -8  164.59    4.85
  -3   5   8  113.65    5.44
  -3   5   8  106.17    4.95
  -3  -5  -8  104.85    4.19
   3   5  -8  100.82    4.88
  -3  -5  -8  111.26    5.31
   3  -5   8   96.52    5.25
  -3  -5   8  108.27    4.85
  -3   5  -8  105.84    4.50
   3  -5  -8  110.41    5.07
  -3   5  -8  109.68    5.26
   3   5   8   94.92    5.04
  -3  -5   8  107.56    4.76
  -5   5   8   46.72    4.84
  -5  -5  -8   57.38    5.71
  -5   5   8   43.29    5.02
   5   5  -8   53.08    5.74
  -5  -5   8   54.77    5.62
   5  -5  -8   61.32    6.02
   5   5   8   52.00    5.50
   0   6  -8   99.62    3.51
   0  -6  -8   99.01    3.23
   0   6   8   99.04    3.82
   0  -6   8   99.71    4.78
   0  -6   8   89.42    2.92
   0   6  -8   87.88    4.12
   0  -6  -8  100.43    4.23
   0   6   8   96.68    3.98
  -2  -6  -8   78.28    3.19
   2   6  -8   79.69    3.78
  -2   6   8   85.96    4.47
   2  -6   8   70.50    3.19
   2  -6   8   70.13    4.47
  -2  -6  -8   83.53    4.52
   2   6  -8   77.03    3.63
   2   6   8   80.26    4.25
  -2   6  -8   72.09    4.16
   2  -6  -8   77.54    3.78
  -2   6  -8   71.48    3.37
  -2  -6   8   71.06    3.47
   2  -6  -8   84.56    4.10
  -2  -6   8   79.30    4.11
  -4  -6  -8   44.65    4.73
   4   6  -8   57.21    5.37
  -4  -6  -8   51.34    3.72
  -4   6   8   40.92    4.52
  -4   6   8   46.99    4.54
   4  -6  -8   45.04    4.49
  -4   6  -8   44.50    4.43
  -4  -6   8   43.46    4.57
   4   6   8   39.27    4.29
  -4   6  -8   50.99    5.01
  -1   7   8   40.60    2.27
   1   7  -8   38.68    2.75
  -1   7   8   40.26    2.94
  -1  -7  -8   37.63    2.21
  -1  -7  -8   41.44    3.73
   1  -7   8   35.28    3.98
   1  -7   8   35.65    2.13
   1   7  -8   38.35    2.41
   1   7   8   38.25    2.87
  -1   7  -8   42.64    2.40
   1  -7  -8   35.94    2.66
  -1  -7   8   40.53    3.15
  -1   7  -8   34.86    3.50
   1   7   8   35.38    2.30
   1  -7  -8   40.21    2.43
  -1  -7   8   36.87    2.30
   3   7  -8   25.65    3.28
  -3   7   8   30.94    3.73
  -3  -7  -8   29.62    2.93
  -3  -7  -8   34.05    3.91
   3   7  -8   22.26    2.70
  -3   7  -8   28.24    3.79
  -3   7  -8   26.12    3.40
  -3  -7   8   23.20    2.94
   3  -7  -8   31.28    3.76
   3   7   8   16.48    2.61
   3  -7  -8   29.04    3.30
  -3  -7   8   29.19    3.60
  -5   7   8   13.55    3.14
  -5  -7  -8   15.30    3.20
  -5   7   8   14.49    3.15
   5   7  -8   19.06    3.42
  -5  -7   8   10.46    2.68
   5  -7  -8   17.27    3.34
   5   7   8   16.35    3.29
   0  -8  -8  101.37    4.37
   0   8   8   96.33    4.18
   0   8  -8   96.32    3.34
   0  -8   8   99.44    5.15
   0   8   8   97.83    4.09
   0  -8   8   94.40    3.58
   0  -8  -8   99.34    3.72
   0   8  -8   99.50    4.58
  -2  -8  -8   81.13    3.67
  -2   8   8   94.12    4.94
   2   8  -8   85.44    3.96
   2  -8   8   81.92    5.10
  -2  -8  -8   82.92    4.69
   2  -8   8   78.82    3.66
   2   8  -8   80.41    4.03
   2  -8  -8   89.33    4.26
  -2   8  -8   87.97    4.77
   2   8   8   80.58    4.45
   2  -8  -8   84.07    4.15
  -2  -8   8   82.71    4.31
  -2  -8   8   86.24    4.13
  -4   8   8   39.15    4.37
  -4  -8  -8   55.38    5.32
   4   8  -8   57.74    4.27
  -4  -8  -8   53.99    3.88
   4   8   8   54.12    5.19
   4  -8  -8   57.15    5.08
  -4   8  -8   57.47    5.10
  -4   8  -8   40.69    4.80
   4  -8  -8   49.99    5.22
  -4  -8   8   58.18    4.35
   1  -9   8   20.37    3.16
   1  -9   8   30.71    2.91
  -1   9   8   25.70    2.37
  -1  -9  -8   28.52    2.61
   1   9  -8   26.18    2.61
   1   9  -8   23.44    2.84
  -1   9   8   29.70    3.26
  -1  -9  -8   22.32    2.95
  -1  -9   8   29.26    2.92
  -1   9  -8   30.87    3.42
   1  -9  -8   23.38    2.57
   1  -9  -8   27.29    2.79
   1   9   8   28.78    3.01
   1   9   8   27.59    2.13
  -1  -9   8   29.91    3.73
  -3   9   8   18.52    3.00
   3   9  -8   16.11    2.62
  -3  -9  -8   18.48    2.96
  -3  -9  -8   18.20    2.41
   3   9  -8   19.72    3.00
   3  -9  -8   15.86    2.57
   3  -9  -8   20.73    3.08
   3   9   8   17.99    2.94
  -3  -9   8   11.84    2.27
  -3  -9   8   16.83    2.75
  -3   9  -8   15.92    3.09
  -3   9  -8   15.01    2.74
  -5  -9  -8    8.05    3.03
  -5   9   8    6.92    2.47
   5   9  -8    8.09    2.71
   5  -9  -8    6.40    2.81
  -5  -9   8    4.75    2.27
  -5   9  -8    9.82    2.91
   5  -9  -8    7.12    2.26
   5   9   8    3.90    2.27
   0  10  -8   66.22    4.00
   0 -10   8   61.87    4.45
   0  10   8   61.50    3.52
   0 -10   8   55.07    3.18
   0 -10  -8   62.80    3.38
   0  10   8   64.54    3.54
   0 -10  -8   64.94    3.84
   2 -10   8   50.90    3.38
  -2  10   8   57.39    4.13
   2 -10   8   53.05    5.40
   2  10  -8   50.03    3.11
   2  10  -8   56.74    3.73
  -2 -10  -8   57.86    4.25
  -2 -10  -8   51.99    3.26
  -2  10  -8   56.52    4.10
  -2 -10   8   57.12    3.62
   2 -10  -8   53.15    3.52
   2 -10  -8   49.92    3.56
   2  10   8   54.64    3.96
  -2 -10   8   53.74    3.73
  -4 -10  -8   43.85    4.46
  -4 -10  -8   36.54    4.37
   4  10  -8   33.98    4.06
  -4  10   8   28.68    3.94
   4 -10  -8   31.95    4.21
   4  10   8   35.96    4.50
  -4  10  -8   30.27    3.96
  -4  10  -8   34.45    4.92
   4 -10  -8   39.12    4.24
  -4 -10   8   34.49    4.24
   1  11  -8    8.24    1.91
  -1  11   8   10.88    1.77
   1 -11   8    8.89    1.89
  -1 -11  -8   11.86    1.94
  -1 -11  -8   11.74    2.25
   1 -11   8   15.16    3.03
  -1  11   8   14.51    2.41
   1 -11  -8    8.60    1.77
   1  11   8    8.37    1.87
  -1 -11   8   12.25    2.14
  -1  11  -8   11.05    2.36
   1 -11  -8   10.41    1.95
  -1 -11   8   11.91    2.55
   3  11  -8    5.50    1.82
  -3 -11  -8    9.22    2.29
  -3  11   8    8.63    2.32
  -3 -11  -8    4.85    1.50
   3  11  -8    8.05    1.97
  -3 -11   8    9.47    2.26
  -3  11  -8    9.62    2.67
   3 -11  -8    7.20    2.16
   3  11   8    9.55    2.44
   3 -11  -8    8.80    1.95
  -3  11  -8    7.71    2.22
   5  11  -8    5.86    2.30
  -5 -11  -8    6.34    2.56
  -5  11   8    6.52    2.74
   5 -11  -8    7.31    2.85
   5  11   8    2.98    1.96
  -5 -11   8    5.68    2.31
  -5  11  -8    0.45    2.13
   0 -12  -8   81.01    4.15
   0 -12   8   72.78    3.95
   0 -12   8   83.12    5.29
   0  12   8   83.41    4.36
   0  12   8   79.58    4.17
   0  12  -8   82.09    4.77
   0 -12  -8   77.67    4.43
  -2 -12  -8   69.41    4.65
   2 -12   8   82.92    8.29
  -2  12   8   68.72    4.76
  -2 -12  -8   73.13    4.16
   2  12  -8   72.28    4.58
  -2  12  -8   67.00    4.70
   2  12   8   68.55    4.61
   2 -12  -8   69.22    4.08
  -2 -12   8   71.67    4.36
  -2 -12   8   69.15    4.49
   2 -12  -8   70.67    4.34
  -4 -12  -8   44.46    4.96
  -4 -12  -8   63.44    7.85
  -4  12   8   46.71    5.49
  -4  12  -8   50.79    6.09
  -4 -12   8   51.89    5.44
  -4  12  -8   45.74    4.93
   4  12   8   50.93    5.69
   4 -12  -8   41.32    5.02
   1 -13   8   15.34    2.49
  -1  13   8   20.47    3.51
  -1 -13  -8   24.47    3.27
  -1  13   8   21.13    3.02
   1 -13   8   26.60    3.88
  -1 -13  -8   23.31    2.93
   1  13  -8   17.17    2.77
   1 -13  -8   24.24    2.91
  -1 -13   8   27.17    4.07
  -1  13  -8   19.48    3.32
  -1 -13   8   27.53    3.43
   1  13   8   26.50    3.37
   1 -13  -8   18.53    2.73
   3  13  -8   18.68    3.39
  -3 -13  -8   15.97    3.18
  -3  13   8   13.78    2.99
  -3 -13  -8   14.52    2.57
  -3  13  -8    7.78    2.42
   3  13   8   10.20    2.55
  -3  13  -8   10.57    2.84
  -3 -13   8   10.47    2.64
   3 -13  -8   11.28    2.65
   0 -14   8   49.54    5.17
   0  14  -8   48.90    4.89
   0 -14   8   51.19    3.81
   0  14   8   52.27    3.83
   0 -14  -8   54.69    3.84
  -2 -14  -8   43.05    4.43
  -2 -14  -8   47.57    4.36
   2  14  -8   38.86    4.32
  -2  14   8   38.04    4.52
  -2 -14   8   52.57    5.08
  -2  14  -8   36.37    4.47
   2 -14  -8   41.46    4.33
   2  14   8   56.89    5.23
  -4  14   8   30.09    4.92
  -4 -14  -8   36.05    4.89
   4  14   8   30.18    4.54
  -4 -14   8   31.88    4.61
   4 -14  -8   29.74    4.55
  -4  14  -8   38.23    5.69
  -1 -15  -8   47.92    4.52
   1 -15   8   35.22    4.30
   1  15  -8   39.82    4.48
  -1  15   8   40.96    4.35
   1 -15   8   39.34    5.06
  -1  15  -8   37.06    4.39
  -1 -15   8   43.17    4.60
  -1 -15   8   44.38    5.18
   1  15   8   39.15    4.37
   1 -15  -8   37.29    4.02
  -3  15   8   28.24    4.49
  -3 -15  -8   26.40    3.59
  -3 -15  -8   29.35    4.22
   3  15  -8   25.95    3.97
  -3 -15   8   23.64    3.71
  -3  15  -8   33.21    5.02
   3 -15  -8   29.36    4.42
   3  15   8   30.74    4.33
  -3  15  -8   27.17    4.13
   0 -16  -8   84.77    5.14
   0 -16   8   82.11    5.87
   0  16  -8   84.25    5.62
   0 -16   8   78.37    5.09
   0  16   8   84.76    5.09
   2 -16   8   61.64    6.64
  -2 -16  -8   68.18    4.69
  -2  16   8   75.28    5.65
   2  16  -8   74.55    5.40
   2  16   8   77.54    5.51
  -2  16  -8   75.14    5.69
   2 -16  -8   68.39    5.16
  -2 -16   8   74.04    5.24
   1  17  -8   27.31    4.09
  -1  17   8   26.94    3.93
   1 -17   8   18.92    3.71
  -1 -17  -8   22.81    3.51
  -1  17  -8   19.81    3.59
  -1 -17   8   14.94    2.92
   1  17   8   20.46    3.41
  -1 -17   8   18.45    3.47
   1 -17  -8   23.36    3.74
  -3  17   8   19.18    4.09
   3  17  -8   15.98    3.55
  -3 -17  -8   12.36    2.70
  -3  17  -8    8.96    2.65
   3  17   8   14.17    3.28
  -3  17  -8   13.03    3.55
  -3 -17   8   12.44    3.11
   3 -17  -8   13.15    3.12
   0  18   8   11.07    2.49
   0 -18   8    9.66    2.74
   0 -18  -8    9.56    2.43
   0  18  -8    6.50    2.33
   0 -18   8    3.06    2.10
   2 -18   8    4.98    2.53
   2  18  -8    8.60    2.77
  -2  18   8    8.04    2.88
  -2 -18  -8    7.48    2.08
   2 -18  -8    5.90    2.31
  -2  18  -8    4.66    2.31
  -2 -18   8    3.72    2.40
   2  18   8    9.93    2.89
  -1 -19  -8   26.77    3.93
   1  19  -8   30.77    4.47
   1 -19   8   22.42    4.43
   1  19   8   34.79    4.69
   1 -19  -8   20.32    3.42
  -1  19  -8   26.91    4.41
  -1 -19   8   25.84    4.31
   0   0   9    0.93    0.78
   0   0  -9    0.97    0.77
   0   0  -9   -0.70    0.45
   2   0   9   -0.21    0.79
  -2   0  -9    0.70    0.96
  -2   0   9   -0.41    0.57
  -2   0   9    0.07    0.85
   2   0  -9    0.07    0.77
   2   0  -9    0.25    0.60
  -2   0  -9    0.08    0.87
   4   0  -9    0.85    1.10
  -4   0  -9    0.81    1.19
  -4   0   9    0.15    1.07
   4   0   9    0.34    1.22
  -4   0   9   -0.70    0.93
  -1  -1  -9    2.30    1.03
  -1  -1  -9    4.43    1.27
   1   1  -9    3.50    0.99
   1  -1   9    4.93    1.37
  -1   1   9    2.02    1.11
   1   1  -9    6.15    1.41
  -1  -1   9    4.45    1.39
   1   1   9    4.51    1.29
  -1   1  -9    2.40    1.03
  -1   1  -9    3.69    1.22
   1  -1  -9    3.90    0.98
   1  -1  -9    3.92    1.09
   3  -1   9    3.07    1.31
  -3   1   9    2.43    1.22
  -3  -1  -9    1.36    0.97
   3   1  -9    2.58    1.26
  -3   1   9    2.71    1.23
   3   1   9    1.44    1.31
  -3   1  -9    2.31    1.25
   3  -1  -9    3.09    1.29
  -3  -1   9    2.29    1.13
  -3   1  -9    1.30    1.18
  -3  -1   9    4.09    1.51
  -5  -1  -9    3.28    1.85
   5   1  -9    2.25    1.78
  -5   1   9    1.29    1.73
   5  -1   9    0.05    1.43
  -5   1   9    1.23    1.40
  -5  -1   9    1.69    1.76
  -5   1  -9   -0.81    1.36
  -5  -1   9    2.88    1.72
   5   1   9    2.18    1.54
   5  -1  -9    3.11    1.96
   0  -2  -9   12.83    1.83
   0  -2   9   21.49    2.77
   0   2   9   17.93    2.42
   0   2  -9   18.33    2.37
   0  -2  -9   17.50    2.15
   0   2  -9   20.93    2.33
   2  -2   9   13.12    2.27
   2   2  -9   17.08    2.02
   2   2  -9   20.58    2.73
  -2  -2  -9   12.72    2.23
  -2   2   9   13.17    2.29
  -2   2   9   15.91    1.90
   2   2   9   12.39    1.99
  -2   2  -9   13.55    2.15
  -2  -2   9   16.08    2.49
  -2  -2   9   15.42    1.89
   2  -2  -9   14.35    2.23
  -2   2  -9   12.95    2.22
  -4   2   9    9.59    2.24
  -4  -2  -9    8.75    2.29
  -4   2   9    9.59    2.19
   4   2  -9    8.90    2.27
   4  -2  -9   12.59    2.65
  -4  -2   9    9.20    2.33
  -4   2  -9    8.78    2.15
   4   2   9    9.94    2.46
  -4   2  -9    6.25    1.97
  -4  -2   9    5.73    1.90
   1   3  -9   33.45    2.39
  -1   3   9   32.59    3.25
  -1  -3  -9   36.67    3.31
   1  -3   9   40.98    4.18
   1   3  -9   29.20    2.89
   1  -3  -9   30.45    2.83
  -1   3  -9   25.59    2.52
  -1  -3   9   28.74    3.03
   1   3   9   29.08    2.30
   1  -3  -9   30.27    1.73
  -1   3  -9   27.19    2.90
   1   3   9   25.47    2.85
  -3   3   9   22.08    2.65
  -3  -3  -9   18.03    2.83
  -3   3   9   21.46    3.01
   3  -3   9   21.74    3.15
   3   3  -9   26.05    3.36
  -3  -3   9   19.97    2.75
  -3   3  -9   24.28    3.19
  -3  -3   9   23.98    3.37
   3   3   9   17.84    2.83
  -3   3  -9   21.44    2.82
   3  -3  -9   23.86    3.12
  -5   3   9   10.68    2.72
   5   3  -9   13.82    3.22
   5  -3   9   10.16    2.46
  -5   3   9   13.28    3.06
  -5  -3  -9    8.19    2.35
  -5  -3   9   12.90    3.01
  -5   3  -9   11.29    2.61
   5  -3  -9    8.42    2.54
   5   3   9   13.04    2.87
   0  -4   9   68.54    4.04
   0   4  -9   68.61    3.21
   0   4  -9   65.40    3.63
   0  -4  -9   65.93    3.47
   0   4   9   65.64    3.44
   0   4   9   64.22    3.25
  -2   4   9   53.29    3.59
   2  -4   9   56.14    3.91
  -2  -4  -9   48.11    4.21
   2   4  -9   52.68    3.28
   2   4  -9   52.02    3.01
  -2  -4   9   52.02    2.84
  -2   4  -9   57.79    3.81
  -2   4  -9   48.98    3.15
   2   4   9   54.69    3.68
   2  -4  -9   50.26    3.36
  -2  -4   9   51.95    3.51
   2   4   9   52.74    2.86
  -4  -4  -9   29.54    3.84
   4   4  -9   31.20    3.88
   4  -4   9   32.46    4.09
  -4   4   9   26.03    3.75
  -4   4   9   29.75    3.62
  -4   4  -9   24.89    3.21
   4  -4  -9   29.32    3.78
  -4   4  -9   27.13    3.51
  -4  -4   9   25.70    3.43
  -4  -4   9   29.67    3.85
   4   4   9   29.48    3.78
   1   5  -9    0.04    0.64
  -1  -5  -9    0.52    0.84
  -1   5   9   -0.17    0.61
   1   5  -9   -0.04    0.77
   1  -5   9    1.19    1.14
  -1   5   9    1.11    0.64
  -1  -5   9    0.11    0.46
  -1  -5   9   -0.11    0.78
   1   5   9   -0.30    0.72
   1   5   9   -0.19    0.60
   1  -5  -9   -0.26    0.64
  -1   5  -9    0.60    0.95
   1  -5  -9    1.27    0.70
  -1   5  -9    0.47    0.74
  -3  -5  -9   -0.76    0.77
   3   5  -9    0.58    1.02
  -3   5   9    0.74    1.04
  -3   5   9    0.54    1.10
   3  -5   9    0.92    1.14
  -3  -5   9    0.49    0.95
  -3   5  -9    0.45    0.87
   3  -5  -9    0.09    0.86
  -3  -5   9   -1.04    0.66
  -3   5  -9    1.29    1.19
   3   5   9    0.21    0.90
  -5   5   9   -0.48    1.24
  -5  -5  -9    0.95    1.59
  -5   5   9    1.39    1.61
   5   5  -9   -1.82    1.22
   5   5   9    0.85    1.59
  -5  -5   9   -1.19    1.36
   5  -5  -9    2.00    1.81
   0  -6   9   -0.91    0.71
   0   6   9    0.76    0.71
   0   6  -9    1.06    0.82
   0  -6  -9    0.33    0.88
   0   6   9    0.21    0.68
   0  -6  -9    0.46    0.53
   0   6  -9    0.52    0.91
  -2  -6  -9    3.14    1.52
   2   6  -9    0.75    0.94
  -2   6   9    0.46    0.86
   2  -6   9   -0.12    0.96
   2   6  -9    0.39    0.74
   2  -6  -9    1.57    0.98
  -2  -6   9    0.14    0.88
   2   6   9   -0.90    0.77
  -2   6  -9    0.44    0.81
   2  -6  -9    1.04    0.91
  -2  -6   9    0.11    0.69
  -2   6  -9    1.25    1.08
   4   6  -9   -0.68    1.13
  -4   6   9    0.91    1.26
  -4  -6  -9   -0.69    1.18
   4  -6   9   -0.77    1.22
  -4   6   9    0.01    1.13
  -4   6  -9    0.40    1.22
   4  -6  -9   -0.43    1.22
  -4  -6   9    0.29    1.02
  -4  -6   9    0.26    1.33
   4   6   9   -0.40    1.11
  -1   7   9   56.52    3.63
  -1  -7  -9   54.29    3.71
  -1   7   9   52.43    2.75
   1   7  -9   50.95    3.34
   1   7  -9   57.02    3.04
   1  -7   9   52.16    4.07
  -1  -7  -9   55.47    2.61
  -1  -7   9   49.10    3.65
   1  -7  -9   55.41    2.83
   1  -7  -9   54.25    3.42
  -1   7  -9   56.57    3.72
   1   7   9   51.86    2.95
  -1  -7   9   54.02    2.70
   1   7   9   53.44    3.43
  -1   7  -9   53.84    2.92
  -3   7   9   35.26    4.08
   3   7  -9   37.94    4.09
  -3  -7  -9   33.10    3.86
   3  -7   9   38.08    4.52
   3  -7  -9   38.18    4.01
   3   7   9   36.50    4.04
  -3  -7   9   34.51    3.91
  -3   7  -9   39.91    4.34
  -3  -7   9   39.36    4.07
   3  -7  -9   41.77    4.29
  -5   7   9   12.39    3.02
   5   7  -9   15.04    3.61
  -5  -7  -9   15.49    3.20
  -5   7   9   18.02    3.89
   5  -7  -9   18.51    3.51
   5   7   9   15.13    3.37
  -5  -7   9   14.86    3.37
   0   8  -9   19.41    2.82
   0   8  -9   26.56    2.48
   0   8   9   20.39    2.35
   0  -8   9   21.20    3.26
   0  -8  -9   25.33    2.74
   0   8   9   20.37    2.52
   0  -8  -9   18.94    1.96
   2   8  -9   14.46    2.38
  -2  -8  -9   19.88    3.07
   2   8  -9   21.22    2.79
   2  -8   9   22.53    3.57
  -2   8   9   16.22    2.66
  -2  -8   9   16.15    2.67
   2   8   9   24.04    3.03
   2  -8  -9   15.80    2.38
  -2  -8   9   17.49    2.45
  -2   8  -9   15.77    2.73
   2  -8  -9   15.56    2.26
  -4   8   9    9.18    2.46
   4   8  -9   15.32    2.99
   4  -8   9   10.53    2.88
  -4  -8  -9   20.00    3.42
   4  -8  -9   11.64    2.54
   4  -8  -9    8.85    2.54
   4   8   9   12.25    2.71
  -4  -8   9    9.94    2.56
  -4   8  -9   11.67    2.70
   1   9  -9   21.39    2.86
  -1  -9  -9   24.56    3.21
   1  -9   9   20.29    3.22
  -1  -9  -9   29.76    2.61
  -1   9   9   18.08    2.09
   1   9  -9   21.64    2.49
  -1   9   9   23.42    2.93
  -1  -9   9   33.24    4.27
  -1  -9   9   24.96    2.75
   1   9   9   19.85    2.71
   1  -9  -9   21.34    2.62
  -1   9  -9   22.16    3.06
   1   9   9   23.54    2.45
   1  -9  -9   23.60    2.46
  -3   9   9   14.59    2.87
   3   9  -9   16.78    2.66
   3  -9   9   14.51    3.14
   3   9  -9   11.48    2.26
  -3  -9  -9   13.34    2.78
   3  -9  -9   15.08    2.51
   3   9   9   18.75    3.12
  -3   9  -9   14.17    2.75
   3  -9  -9   16.32    2.68
  -3  -9   9   19.78    3.36
  -3  -9   9   15.47    2.72
  -5  -9  -9    7.14    2.57
   5   9  -9    9.02    2.93
   5  -9   9    4.46    2.49
  -5   9   9   11.05    2.82
   5  -9  -9    6.89    2.54
   5   9   9    4.56    2.31
   5  -9  -9    6.95    2.91
  -5  -9   9    9.51    2.62
   0 -10   9    2.73    1.66
   0  10   9    0.27    0.77
   0  10  -9    2.35    1.34
   0 -10  -9    1.34    0.83
   0  10   9    0.08    0.83
   0 -10  -9    2.68    1.22
   2 -10   9   -0.51    1.15
   2  10  -9    0.05    0.93
  -2 -10  -9    0.33    1.27
  -2 -10  -9    1.11    0.94
   2  10  -9    0.43    0.97
  -2  10   9    1.23    1.26
  -2  10  -9    1.94    1.42
   2 -10  -9    2.66    1.42
   2  10   9    2.05    1.27
   2 -10  -9    0.73    1.11
  -2 -10   9    1.29    1.08
  -2 -10   9    1.86    1.26
  -4  10   9   -0.27    1.36
   4  10  -9    1.84    1.50
  -4 -10  -9    0.06    1.51
   4 -10  -9   -0.14    1.29
  -4 -10   9    0.77    1.52
  -4  10  -9    1.45    1.66
   4  10   9    0.09    1.43
   4 -10  -9    0.32    1.40
  -1 -11  -9    2.61    1.65
  -1  11   9   -1.07    0.72
  -1 -11  -9    0.40    0.89
   1 -11   9    2.36    1.45
  -1  11   9    0.13    0.91
   1  11  -9    1.11    1.08
  -1  11  -9    0.09    1.07
   1  11   9   -0.63    0.88
   1 -11  -9    0.32    0.91
  -1 -11   9    1.31    1.12
  -1 -11   9   -0.26    1.01
   1 -11  -9    0.10    1.00
   3 -11   9    0.42    1.68
   3  11  -9    0.08    1.15
  -3 -11  -9    0.99    1.57
  -3  11   9    2.00    1.48
  -3  11  -9   -0.24    1.31
  -3 -11   9   -0.86    1.06
   3  11   9   -0.38    1.20
   3 -11  -9   -0.65    1.12
   3 -11  -9   -1.35    0.97
   0  12   9    4.30    1.48
   0  12  -9    5.15    1.86
   0 -12   9    5.16    2.01
   0  12   9    6.71    1.69
   0 -12  -9    7.16    1.88
   0 -12  -9    5.92    1.46
   2 -12   9    4.78    2.22
  -2 -12  -9    1.94    1.63
   2  12  -9    4.25    1.66
  -2 -12  -9    6.54    1.73
  -2  12   9    4.83    1.77
   2 -12  -9    4.78    1.56
   2 -12  -9    4.66    1.75
   2  12   9   10.03    2.40
  -2  12  -9    3.81    1.89
  -2 -12   9    4.78    1.88
  -2 -12   9    4.34    1.59
  -4  12   9    3.91    1.97
  -4 -12  -9    0.68    1.67
  -4 -12   9    3.48    1.69
  -4  12  -9    7.61    2.59
   4  12   9    3.27    1.95
   4 -12  -9    6.22    2.52
  -1  13   9    4.54    1.65
  -1 -13  -9    7.00    2.00
   1 -13   9    1.14    1.75
  -1 -13  -9    1.82    1.33
   1  13  -9    2.52    1.41
  -1 -13   9    2.14    1.70
   1 -13  -9    2.83    1.38
   1 -13  -9    3.32    1.46
  -1 -13   9    2.82    1.40
  -1  13  -9    1.27    1.44
   1  13   9    6.69    1.89
  -3  13   9    4.78    2.08
   3  13  -9    2.48    1.58
  -3 -13  -9    1.37    1.61
   3 -13   9    2.01    1.95
   3  13   9    1.72    1.60
  -3 -13   9    4.32    1.87
  -3  13  -9    2.97    2.00
   3 -13  -9    2.09    1.48
   0 -14  -9   20.19    2.81
   0  14   9   15.83    2.62
   0 -14   9   20.48    3.63
   0 -14  -9   18.73    3.03
   0  14  -9   15.12    2.88
  -2 -14  -9   18.65    2.83
  -2  14   9   17.55    3.13
  -2 -14  -9   14.73    2.98
   2  14  -9    8.03    2.29
   2 -14   9   11.99    3.15
  -2  14  -9   22.72    3.65
  -2 -14   9   11.53    2.61
   2  14   9   17.85    3.22
  -2 -14   9   13.89    3.10
   2 -14  -9   14.41    2.63
  -4  14   9   10.19    3.05
  -4 -14  -9   16.36    3.69
  -4 -14   9   10.12    2.85
   4  14   9   10.97    3.03
  -4  14  -9   11.49    4.70
   4 -14  -9   13.32    3.29
   1  15  -9   17.13    3.17
  -1 -15  -9   11.79    2.48
   1 -15   9   13.65    3.26
  -1  15   9    9.75    2.43
  -1 -15   9   23.85    4.06
  -1  15  -9   10.94    2.79
   1  15   9   12.59    2.59
   1 -15  -9   18.34    3.07
  -3 -15  -9   10.92    2.79
   3 -15   9   12.82    3.53
  -3  15   9    8.81    2.83
   3  15  -9   10.93    2.70
  -3 -15   9    9.22    2.76
   3  15   9    9.71    2.65
  -3  15  -9    8.73    2.55
   3 -15  -9   11.42    2.82
   0 -16  -9    4.50    1.92
   0 -16   9    2.11    2.03
   0  16   9    1.28    1.36
   0  16  -9    1.97    1.59
   2  16  -9    1.90    1.44
  -2 -16  -9    1.34    2.22
  -2  16   9   -0.06    1.47
   2 -16   9    2.14    2.32
  -2  16  -9    3.44    2.02
  -2 -16   9    2.09    1.60
   2  16   9    0.80    1.54
   2 -16  -9    0.17    1.53
  -1  17   9   -0.14    1.94
  -1 -17  -9   -0.10    1.37
   1  17  -9    1.22    1.53
   1 -17   9   -0.16    1.53
  -1  17  -9   -0.31    1.53
  -1 -17   9    1.24    1.93
   1  17   9    0.02    1.34
   1 -17  -9    0.28    1.53
   0  18  -9   18.45    3.47
   0 -18  -9   10.64    2.67
   0 -18   9   13.51    3.54
   0  18   9   11.53    2.75
  -2  18   9   10.86    3.30
   2 -18   9    8.31    3.16
   2  18  -9   15.46    3.49
   2 -18  -9   13.25    3.10
   2  18   9    8.19    2.58
  -2  18  -9   11.33    3.09
   1  19  -9    6.01    2.47
  -1 -19  -9    4.41    2.09
   1 -19   9    8.27    2.93
  -1  19  -9    5.53    2.69
   1  19   9    6.69    2.35
   1 -19  -9    9.11    2.55
   0   0 -10  475.85   10.33
   0   0  10  469.87   10.81
   0   0 -10  460.24   10.20
   2   0 -10  380.20    9.67
  -2   0 -10  392.04   10.18
  -2   0  10  373.96   10.01
  -2   0  10  376.00    8.41
   2   0  10  379.54    9.78
   4   0 -10  233.38    8.62
  -4   0  10  223.18    8.49
  -4   0 -10  210.06    8.03
   4   0  10  236.25    8.77
  -4   0  10  222.99    8.12
   1  -1  10    0.84    0.94
  -1   1  10    1.81    1.14
   1   1 -10    0.95    0.80
  -1  -1 -10    2.41    1.24
   1   1 -10    0.24    0.70
  -1  -1 -10    1.42    1.01
  -1   1 -10    3.18    1.23
   1  -1 -10    1.57    0.75
  -1   1 -10    0.95    0.96
   1   1  10    0.46    0.79
   1  -1 -10    1.92    1.06
  -1  -1  10    1.73    1.05
  -3   1  10    1.82    1.07
  -3  -1 -10    2.17    1.30
   3  -1  10    0.57    0.96
   3   1 -10    1.60    1.21
  -3   1  10    0.50    0.91
   3   1  10   -0.92    1.01
  -3  -1  10    1.66    1.07
  -3   1 -10    3.88    1.47
  -3  -1  10    0.83    1.18
  -3   1 -10    0.36    1.03
   3  -1 -10   -0.37    0.81
  -5  -1 -10    2.82    1.63
   5   1 -10    2.82    1.89
  -5   1  10   -1.14    1.33
   5  -1  10    0.15    1.18
  -5   1  10    0.39    1.38
  -5  -1  10    2.39    1.69
  -5  -1  10    3.54    2.19
  -5   1 -10   -0.61    1.14
   5  -1 -10    2.87    1.82
   5   1  10   -0.69    1.22
   0   2 -10    0.19    0.79
   0  -2  10    0.46    0.91
   0   2  10    1.25    0.95
   0  -2 -10    1.49    0.96
   0  -2 -10    0.19    0.68
   0   2 -10    0.88    0.85
  -2  -2 -10    0.78    1.05
   2  -2  10    0.26    0.89
  -2   2  10    0.05    0.85
   2   2 -10    2.25    1.09
  -2   2  10    0.34    0.66
   2   2 -10    0.59    0.70
  -2  -2  10    0.17    0.83
  -2   2 -10    0.83    1.04
   2   2  10    0.95    0.81
  -2   2 -10    0.84    1.00
   2  -2 -10    0.92    0.98
  -4  -2 -10   -0.01    1.27
  -4   2  10    0.13    1.01
   4   2 -10    0.09    1.14
  -4   2  10    0.96    1.25
   4  -2 -10    2.57    1.54
  -4   2 -10    0.52    1.18
  -4   2 -10    1.12    1.48
   4   2  10    0.57    1.33
  -4  -2  10    0.54    1.16
  -4  -2  10    0.64    1.12
   1   3 -10   17.38    2.31
  -1  -3 -10   19.88    2.75
  -1   3  10   20.30    2.74
   1  -3  10   25.66    3.41
   1   3 -10   20.79    2.55
  -1  -3  10   17.03    2.50
  -1   3 -10   17.73    2.61
   1  -3 -10   18.69    2.60
  -1   3 -10   16.12    2.33
   1   3  10   15.84    2.31
   1   3  10   19.42    2.57
  -3   3  10   10.45    2.26
  -3   3  10   15.18    2.40
  -3  -3 -10   15.96    2.74
   3  -3  10   22.08    3.35
   3   3 -10   11.99    2.33
  -3   3 -10   11.18    2.24
  -3   3 -10   13.90    2.44
  -3  -3  10   14.31    2.61
  -3  -3  10   14.85    2.32
   3   3  10   15.07    2.77
   3  -3 -10   15.58    2.63
  -5  -3 -10   13.17    2.98
  -5   3  10    9.24    2.78
   5   3 -10    9.24    2.69
  -5   3  10    3.36    2.00
   5  -3  10    8.80    2.51
  -5   3 -10   11.31    2.74
   5  -3 -10   11.65    2.98
   5   3  10   11.75    2.92
  -5  -3  10    6.89    2.41
   0  -4 -10  219.46    6.86
   0   4 -10  230.03    7.16
   0   4  10  225.27    6.59
   0  -4  10  238.42    7.88
   0   4 -10  219.22    6.31
   0   4  10  223.54    6.85
   2   4 -10  182.11    5.92
  -2  -4 -10  167.35    6.75
  -2   4  10  182.64    6.94
   2  -4  10  185.29    7.19
   2   4 -10  178.00    6.26
   2   4  10  182.68    5.74
   2  -4 -10  174.32    6.31
  -2   4 -10  177.65    6.21
  -2   4 -10  199.10    7.19
   2   4  10  173.95    6.77
  -2  -4  10  177.59    6.73
   2  -4 -10  186.76    5.61
  -4   4  10  113.01    5.85
  -4  -4 -10  101.66    5.96
   4   4 -10  110.41    6.11
   4  -4  10  104.33    6.25
  -4   4  10  116.86    6.36
  -4  -4  10  110.39    5.75
   4  -4 -10  121.54    6.27
  -4   4 -10  108.60    6.05
   4   4  10  118.89    6.39
  -4  -4  10  105.25    5.58
  -4   4 -10  111.10    5.49
   1   5 -10    4.40    1.36
  -1   5  10    2.86    0.94
   1  -5  10    5.48    1.77
  -1  -5 -10    4.61    1.60
   1   5 -10    3.37    1.19
  -1   5  10    4.83    1.50
  -1  -5  10    4.53    1.69
  -1   5 -10    5.66    1.73
   1  -5 -10    5.77    1.56
   1   5  10    3.78    1.31
  -1   5 -10    5.14    1.47
   1   5  10    5.66    1.39
  -3   5  10    1.10    1.18
   3  -5  10    2.35    1.55
   3   5 -10    3.04    1.44
  -3  -5 -10    3.82    1.59
  -3   5 -10    2.76    1.62
  -3  -5  10    2.87    1.29
  -3   5 -10    2.91    1.28
  -3  -5  10    0.11    1.05
   3  -5 -10    2.36    1.30
   3   5  10    1.49    1.31
  -5   5  10    0.63    1.46
   5   5 -10    0.66    1.73
  -5  -5 -10    0.60    1.44
  -5   5  10    0.99    1.79
   5  -5 -10   -0.52    1.40
  -5  -5  10    5.47    2.37
   5   5  10   -0.28    1.48
   0   6 -10    5.48    1.53
   0  -6  10    2.42    1.39
   0   6  10    4.45    1.30
   0  -6 -10    3.89    1.36
   0   6 -10    5.55    1.39
   0   6  10    5.12    1.50
  -2   6  10    1.05    1.11
  -2  -6 -10    1.14    1.21
   2   6 -10    0.67    1.05
   2  -6  10    2.25    1.53
   2   6 -10    3.19    1.37
  -2  -6  10    4.53    1.84
   2   6  10    3.16    1.39
   2  -6 -10    2.49    1.17
  -2   6 -10    0.15    1.08
   2  -6 -10   -0.47    0.74
  -2   6 -10    3.68    1.29
  -4  -6 -10    0.87    1.47
  -4   6  10    0.58    1.41
   4  -6  10   -0.03    1.47
  -4   6  10   -1.60    1.16
   4   6 -10    1.99    1.45
  -4  -6  10    2.19    1.44
   4   6  10   -0.44    1.25
  -4   6 -10    1.90    1.45
  -4  -6  10    1.88    1.43
   4  -6 -10    0.97    1.44
   1   7 -10  152.91    5.29
  -1  -7 -10  162.65    6.54
   1  -7  10  169.93    7.23
   1   7 -10  161.80    6.11
  -1   7  10  167.52    6.48
  -1   7  10  161.20    5.06
   1   7  10  157.23    5.45
   1  -7 -10  164.68    5.02
  -1  -7  10  169.46    6.88
  -1   7 -10  163.85    6.57
   1   7  10  156.08    6.00
  -1   7 -10  162.49    5.37
   1  -7 -10  165.42    6.12
   3  -7  10  111.96    6.26
   3   7 -10  112.06    5.50
  -3  -7 -10  118.08    6.16
  -3   7  10  119.46    6.29
  -3   7 -10  117.99    6.15
  -3  -7  10  115.65    5.66
   3  -7 -10  105.68    5.32
   3   7  10  118.19    6.17
  -3  -7  10  110.08    5.15
   3  -7 -10  107.05    5.52
  -5   7  10   72.12    5.85
   5   7 -10   63.81    6.40
  -5  -7 -10   72.90    6.59
   5  -7 -10   68.65    6.64
  -5  -7  10   73.44    7.11
   5   7  10   57.56    6.41
   0  -8  10   27.74    3.86
   0   8  10   23.36    2.91
   0   8  10   21.31    2.61
   0   8 -10   23.70    3.15
   0   8 -10   27.35    2.71
   0  -8 -10   22.93    2.82
   2   8 -10   20.18    2.85
  -2  -8 -10   21.76    3.19
   2   8 -10   16.08    2.50
   2  -8  10   17.42    3.21
  -2   8  10   17.40    2.81
   2  -8 -10   19.20    2.53
   2  -8 -10   18.79    2.70
   2   8  10   23.89    3.31
  -2   8 -10   16.06    2.80
  -2  -8  10   21.11    3.29
   4   8 -10   13.74    2.88
  -4  -8 -10   15.29    3.22
  -4   8  10    9.73    2.55
   4  -8  10   11.48    3.09
  -4   8 -10   11.18    2.75
   4   8  10   14.41    3.07
  -4  -8  10    7.17    2.31
   4  -8 -10   11.56    2.57
   4  -8 -10   11.61    2.74
  -1  -9 -10    7.14    2.15
  -1   9  10    6.78    1.82
   1  -9  10    9.43    2.51
   1   9 -10    7.89    1.67
  -1   9  10    3.87    1.28
   1   9 -10    6.88    1.93
   1  -9 -10    5.60    1.45
  -1  -9  10    8.40    2.19
  -1   9 -10    4.69    1.76
   1   9  10    5.30    1.65
   1  -9 -10   13.68    2.27
   3  -9  10    2.47    1.97
  -3   9  10    3.56    1.75
  -3  -9 -10    3.27    1.71
   3   9 -10    5.71    2.00
  -3  -9  10    2.78    1.48
   3  -9 -10    3.20    1.59
   3  -9 -10    3.50    1.61
   3   9  10    6.67    2.12
  -3  -9  10    3.93    1.81
  -3   9 -10    1.50    1.48
   0  10  10    3.40    1.31
   0  10 -10    0.42    1.07
   0 -10 -10    0.01    1.14
   0  10  10    1.48    1.16
   0 -10  10    1.70    1.52
  -2  10  10    1.79    1.34
  -2 -10 -10   -0.72    1.16
   2  10 -10   -0.45    0.99
   2 -10  10    0.69    1.42
   2 -10 -10    0.71    0.96
  -2 -10  10   -0.57    1.08
   2  10  10    1.98    1.34
  -2  10 -10   -0.07    1.13
   2 -10 -10    0.07    1.00
  -4 -10 -10    0.34    1.72
  -4  10  10   -0.04    1.37
   4  10 -10    0.29    1.42
   4 -10  10    1.24    1.99
  -4  10 -10    2.51    1.72
   4  10  10   -0.07    1.43
   4 -10 -10    1.67    1.62
   4 -10 -10    0.96    1.64
  -4 -10  10    1.60    1.50
   1  11 -10  241.01    8.47
  -1  11  10  253.94    8.63
   1 -11  10  237.10    9.48
  -1 -11 -10  255.32    8.87
   1 -11 -10  236.40    7.99
  -1 -11  10  253.19    9.42
   1 -11 -10  252.41    7.46
   1  11  10  256.12    8.47
  -1  11 -10  245.88    8.87
   3  11 -10  176.97    7.51
  -3 -11 -10  185.61    8.15
   3 -11  10  180.45    8.80
  -3  11  10  171.02    8.29
   3 -11 -10  173.96    7.16
   3  11  10  181.40    8.13
   3 -11 -10  194.58    7.70
   0  12  10    2.66    1.24
   0  12  10    1.69    1.11
   0 -12 -10    2.29    1.48
   0  12 -10    0.43    1.14
   0 -12  10    1.99    1.69
   2  12 -10    2.15    1.55
  -2 -12 -10    2.04    1.66
  -2  12  10   -1.02    1.31
   2 -12  10    0.56    1.62
   2 -12 -10    0.05    1.15
  -2  12 -10    2.78    1.85
   2  12  10    0.65    1.27
   2 -12 -10   -0.40    1.02
  -2 -12  10   -0.01    1.23
   4 -12  10   -1.10    1.75
  -4 -12 -10   -0.89    1.72
  -4  12  10    0.02    1.44
  -4  12 -10    0.44    1.80
   4  12  10   -0.61    1.38
   4 -12 -10    0.49    1.77
   1  13 -10    0.46    1.26
   1 -13  10    1.93    1.56
  -1  13  10    2.15    1.42
  -1 -13 -10    1.16    1.47
   1 -13 -10    2.33    1.35
  -1  13 -10    3.64    1.82
  -1 -13  10   -0.02    1.37
   1  13  10    1.16    1.26
   1 -13 -10    0.35    1.11
   3  13 -10    2.46    1.73
  -3  13  10   -0.40    1.41
  -3 -13 -10    0.12    1.56
   3 -13  10    2.03    2.03
   3  13  10    1.71    1.53
   3 -13 -10    1.75    1.61
  -3  13 -10    0.85    1.60
   0 -14  10   13.16    2.98
   0  14  10   16.67    2.81
   0  14 -10   13.44    2.81
   0 -14 -10    7.40    2.24
   2 -14  10    8.11    2.83
  -2 -14 -10    8.34    2.49
   2  14 -10    7.17    2.17
  -2  14  10    8.13    2.30
   2  14  10   17.32    3.25
   2 -14 -10    9.97    2.32
  -2 -14  10    7.43    2.43
  -2  14 -10   11.86    2.72
   1 -15  10  105.77    6.84
  -1  15  10   95.10    5.78
  -1 -15 -10   98.08    6.12
   1  15 -10  103.46    6.18
  -1  15 -10   97.66    6.33
   1  15  10  105.38    6.07
   1 -15 -10  106.22    5.63
  -1 -15  10   91.46    6.45
   3  15 -10   81.88    5.70
  -3  15  10   65.41    6.96
  -3 -15 -10   85.97    6.19
   3 -15  10   82.11    8.20
   3  15  10   80.00    6.07
   3 -15 -10   78.62    5.71
   0  16  10    1.29    1.43
   0 -16  10    2.83    2.06
   0  16 -10    3.36    2.03
   2  16 -10   -1.92    1.26
  -2  16  10    1.14    1.73
   2 -16  10   -1.40    1.57
  -2  16 -10   -0.36    1.71
   2 -16 -10    0.62    1.49
   2  16  10    2.56    1.96
   1 -17  10   -0.26    1.60
   1  17 -10   -0.07    1.35
  -1 -17  10   -1.18    1.75
  -1  17 -10    0.75    1.70
   1  17  10    0.86    1.39
   1 -17 -10    0.06    1.56
   0 -18  10   67.37    7.15
   0  18 -10   58.01    6.26
   0   0 -11   -0.38    0.63
   0   0 -11    0.09    0.78
   0   0  11    0.98    1.03
   2   0 -11    0.00    0.93
  -2   0 -11    3.07    1.49
   2   0  11    1.13    1.05
  -2   0 -11   -0.24    0.94
  -2   0  11   -0.10    0.90
   4   0  11    0.58    1.21
  -4   0 -11    0.10    1.17
   4   0 -11   -0.51    1.28
  -4   0  11    0.05    0.92
  -1   1  11   49.11    3.61
   1   1 -11   54.99    3.23
  -1  -1 -11   59.92    3.81
   1   1 -11   56.51    3.49
  -1  -1 -11   52.31    3.63
   1  -1  11   61.68    3.96
  -1  -1  11   54.78    3.79
  -1   1 -11   51.18    3.61
  -1   1 -11   57.22    3.64
   1  -1 -11   53.98    3.45
   1   1  11   55.91    3.64
   1  -1 -11   55.90    3.04
  -3  -1 -11   35.05    3.94
   3   1 -11   46.33    4.41
  -3   1  11   48.81    5.10
   3  -1  11   38.65    4.27
   3  -1 -11   39.82    4.36
   3   1  11   37.07    4.25
  -3   1 -11   43.70    4.43
  -3  -1  11   40.64    4.51
  -3   1 -11   36.64    4.14
  -5  -1 -11   17.24    3.41
   5  -1  11   22.08    3.89
   5   1 -11   25.15    4.21
  -5   1  11   19.52    3.66
   5   1  11   13.66    3.10
  -5   1 -11   11.40    2.75
  -5  -1  11   20.10    3.43
   5  -1 -11   23.07    4.17
   0  -2  11    9.22    2.11
   0  -2 -11    3.12    1.13
   0   2 -11    3.52    1.29
   0  -2 -11    3.13    1.26
   0   2  11    3.79    1.48
   0   2 -11    4.37    1.36
   2   2 -11    3.44    1.49
  -2  -2 -11    3.32    1.56
  -2   2  11    1.67    1.25
   2  -2  11    4.31    1.79
  -2  -2  11    3.07    1.49
   2  -2 -11    2.62    1.38
   2   2  11    3.84    1.29
  -2   2 -11    4.89    1.66
  -2   2 -11    2.85    1.41
  -4  -2 -11    2.21    1.58
   4   2 -11    5.05    1.86
  -4   2  11    3.33    1.77
  -4   2 -11    1.73    1.49
  -4   2 -11    3.00    1.82
   4  -2 -11   -0.08    1.43
  -4  -2  11   -0.23    1.09
   4   2  11    2.78    1.72
  -1   3  11   87.17    3.80
   1  -3  11   90.67    5.14
   1   3 -11   88.00    4.24
  -1   3  11   88.16    4.71
   1   3 -11   89.64    4.34
  -1  -3 -11   84.50    4.63
  -1  -3  11   88.25    4.86
  -1   3 -11   86.21    4.76
   1   3  11   87.01    4.34
  -1   3 -11   84.96    4.30
   1  -3 -11   86.67    4.44
   1   3  11   88.49    4.70
  -3  -3 -11   61.00    4.54
  -3   3  11   71.03    4.80
   3   3 -11   57.50    4.19
   3  -3  11   60.47    4.40
   3  -3 -11   61.35    4.37
  -3  -3  11   60.00    4.28
  -3   3 -11   58.18    4.44
   3   3  11   59.57    4.54
  -3   3 -11   55.72    3.97
  -5   3  11   44.11    6.55
  -5  -3 -11   33.53    4.58
   5   3 -11   32.08    4.72
   5  -3  11   31.36    4.34
  -5   3  11   29.53    4.49
   5  -3 -11   36.06    4.96
   5   3  11   31.90    4.50
  -5   3 -11   32.44    4.37
   0   4 -11   21.25    2.94
   0  -4 -11   22.81    2.79
   0   4  11   24.36    3.03
   0  -4  11   20.09    3.05
   0   4 -11   24.64    2.73
   0   4  11   20.36    2.47
   2   4 -11   23.81    2.97
  -2  -4 -11   18.19    2.78
  -2   4  11   17.91    2.97
   2   4 -11   18.28    2.67
   2  -4  11   24.19    3.52
  -2  -4  11   23.15    3.60
  -2   4 -11   17.57    2.84
   2   4  11   21.20    3.13
  -2   4 -11   25.39    3.09
   2  -4 -11   19.95    2.92
   2   4  11   19.47    2.90
  -4  -4 -11   15.61    2.99
  -4   4  11   14.28    3.05
  -4   4  11   11.53    3.54
   4   4 -11   10.86    2.61
  -4   4 -11   15.71    2.99
   4   4  11    7.91    2.45
  -4  -4  11   18.35    3.53
  -4   4 -11   13.37    3.01
   4  -4 -11   14.78    3.01
   1   5 -11    8.82    1.94
   1  -5  11    5.97    1.91
  -1   5  11    4.48    1.49
   1   5 -11    3.74    1.42
  -1   5  11    4.46    1.13
  -1  -5 -11    2.82    1.34
   1   5  11    4.79    1.52
  -1   5 -11    7.65    2.08
   1   5  11    1.53    1.13
   1  -5 -11    6.60    1.71
  -1  -5  11    8.59    2.33
  -1   5 -11    4.45    1.51
  -3   5  11    2.89    1.56
   3  -5  11    3.46    1.73
   3   5 -11    2.21    1.39
  -3  -5 -11    5.11    1.80
  -3   5 -11    6.68    2.08
   3   5  11    5.35    1.94
  -3  -5  11    3.80    1.67
   3  -5 -11    2.05    1.59
  -3   5 -11    2.17    1.31
  -5   5  11    2.40    2.13
  -5  -5 -11    2.58    1.95
   5   5 -11    3.24    2.19
  -5   5  11    5.18    2.42
   5  -5 -11    2.97    2.20
   5   5  11    3.79    2.00
   0  -6 -11    7.47    1.79
   0   6  11   11.40    2.18
   0   6 -11   11.15    2.22
   0  -6  11   12.26    2.69
   0   6 -11   11.77    2.00
   0   6  11   10.56    1.90
  -2  -6 -11   10.44    2.42
   2   6 -11   11.05    2.20
   2  -6  11   11.42    2.71
  -2   6  11    7.01    1.98
   2   6 -11    5.63    1.72
   2   6  11    3.77    1.56
  -2   6 -11    8.10    1.85
  -2   6 -11   11.81    2.65
  -2  -6  11    9.67    2.53
   2  -6 -11    7.92    1.88
   4   6 -11    5.67    2.06
   4  -6  11    6.53    2.32
  -4  -6 -11    7.10    2.24
  -4   6  11    7.22    2.48
   4   6  11    4.63    2.14
  -4   6 -11    7.62    2.42
   4  -6 -11    4.68    2.08
  -4  -6  11    5.39    1.96
   1  -7  11   19.83    3.33
  -1   7  11   22.75    2.62
  -1   7  11   26.19    3.38
  -1  -7 -11   20.56    3.05
   1   7 -11   23.10    2.71
   1   7 -11   24.57    3.40
  -1   7 -11   16.56    2.44
   1   7  11   23.15    2.81
   1   7  11   14.65    2.40
  -1  -7  11   20.75    3.32
   1  -7 -11   18.94    2.70
  -1   7 -11   23.55    3.37
  -3   7  11   20.39    3.53
   3   7 -11   16.54    2.74
  -3  -7 -11   10.18    2.44
   3  -7  11   15.47    3.24
   3   7  11   14.26    2.87
  -3   7 -11   14.91    3.12
   3  -7 -11   20.17    2.98
  -3  -7  11   15.03    2.96
   5   7 -11    8.37    2.74
   5  -7 -11    9.21    4.29
   5  -7 -11   13.38    3.33
   0   8  11   73.46    4.31
   0  -8  11   82.46    5.48
   0   8 -11   75.02    3.93
   0  -8 -11   77.80    4.54
   0   8  11   74.41    4.03
   0   8 -11   68.32    4.52
  -2   8  11   61.35    4.52
  -2  -8 -11   58.32    5.29
   2   8 -11   64.34    3.97
   2   8 -11   63.16    4.14
   2  -8  11   72.81    5.28
   2   8  11   68.88    4.74
   2  -8 -11   67.03    4.36
  -2   8 -11   64.33    4.77
  -2  -8  11   63.09    4.56
  -4  -8 -11   38.99    4.86
   4  -8  11   40.56    5.38
   4   8 -11   35.15    4.37
  -4   8  11   39.26    5.19
   4  -8 -11   49.30    5.25
   4  -8 -11   45.38    6.27
   4   8  11   36.87    4.81
  -4   8 -11   35.41    4.50
   1   9 -11    1.90    1.42
  -1  -9 -11    2.28    1.51
  -1   9  11    1.19    1.09
   1  -9  11    1.84    1.64
  -1  -9  11    1.27    1.60
  -1   9 -11    3.41    1.71
   1  -9 -11    4.39    1.61
   1   9  11    3.88    1.60
  -3   9  11    0.93    1.44
   3  -9  11   -0.18    1.29
   3   9 -11    2.88    1.65
  -3  -9 -11   -0.87    1.29
   3  -9 -11    0.27    1.40
  -3  -9  11    1.13    1.36
  -3   9 -11    0.92    1.59
   3   9  11    2.88    1.81
   0 -10 -11   53.15    4.61
   0  10  11   56.93    3.75
   0 -10  11   54.43    5.89
   0  10 -11   57.03    5.47
   0  10  11   55.03    3.78
   2 -10  11   46.93    5.42
  -2 -10 -11   45.18    4.74
   2  10 -11   49.36    4.78
  -2  10  11   49.51    5.04
  -2  10 -11   39.29    4.59
   2  10  11   44.98    4.73
   2 -10 -11   44.31    4.36
  -2 -10  11   51.78    5.54
   4 -10  11   22.11    4.33
  -4  10  11   22.83    4.19
  -4 -10 -11   29.79    4.36
   4  10 -11   25.90    3.85
  -4  10 -11   29.08    4.19
   4  10  11   13.78    3.23
   4 -10 -11   27.21    3.82
   4 -10 -11   23.34    5.96
  -1 -11 -11    0.75    1.46
   1 -11  11    2.53    1.78
  -1  11  11    1.68    1.34
   1  11 -11    0.91    1.26
   1  11  11    1.83    1.48
  -1  11 -11    1.12    1.34
   1 -11 -11    0.07    1.18
  -1 -11  11    1.75    1.57
  -3  11  11    0.23    1.37
   3 -11  11   -1.33    1.32
  -3 -11 -11   -0.05    1.38
   3  11  11   -0.26    1.28
  -3  11 -11    0.21    1.54
   3 -11 -11    3.23    1.86
   0  12  11   29.61    3.52
   0  12 -11   26.74    3.75
   0 -12  11   25.21    4.39
   0  12  11   22.13    3.01
   0 -12 -11   22.97    3.27
   2 -12  11   21.72    3.96
  -2 -12 -11   25.11    3.75
   2  12 -11   28.17    3.98
  -2  12  11   19.41    3.41
   2 -12 -11   19.27    3.05
  -2 -12  11   25.19    4.05
  -2  12 -11   21.82    3.61
   2  12  11   20.34    3.40
  -4 -12 -11    9.17    3.04
  -4  12  11   18.15    3.95
   4 -12  11    6.85    2.90
  -4  12 -11   17.87    3.77
   4  12  11   13.31    3.38
   1  13 -11    0.38    1.24
   1 -13  11   -0.78    1.53
  -1 -13 -11    0.85    1.48
  -1  13  11    1.07    1.40
   1 -13 -11    2.53    1.72
  -1  13 -11    1.55    1.60
   1  13  11    1.54    1.42
  -1 -13  11    2.71    1.85
  -3  13  11   -1.45    1.36
  -3 -13 -11   -0.64    1.48
   3 -13  11   -0.87    1.80
   3  13  11    3.36    2.05
  -3  13 -11    0.17    1.77
   0 -14 -11   42.25    4.71
   0 -14  11   32.77    4.68
   0  14  11   35.80    4.06
   0  14 -11   35.18    4.53
  -2 -14 -11   28.30    3.94
  -2  14  11   30.40    4.32
   2 -14  11   42.13    5.66
   2  14 -11   35.00    4.39
  -2  14 -11   26.37    4.14
   2  14  11   29.61    4.24
  -2 -14  11   27.15    4.07
  -1 -15 -11    9.74    2.60
   1  15 -11   14.94    3.22
  -1  15  11    7.96    2.30
   1 -15  11    2.56    2.02
  -1  15 -11   12.16    2.98
  -1 -15  11    5.98    2.52
   1  15  11   15.75    3.06
   0  16 -11    3.28    2.04
   0 -16  11    0.16    1.87
   2  16 -11    1.29    1.94
   2 -16  11    0.85    1.89
  -2  16  11   -1.48    1.48
   2  16  11   -1.19    1.49
  -2  16 -11    0.73    1.78
   1 -17  11    7.09    2.74
   1  17 -11    8.48    2.74
  -1  17 -11    4.79    2.38
  -1 -17  11    7.90    3.12
   1  17  11    4.57    2.09
   0   0 -12    4.84    1.53
   0   0  12    2.74    1.37
   0   0 -12    1.68    1.07
   2   0  12    4.85    1.72
  -2   0 -12    5.22    1.93
   2   0 -12    1.22    1.05
  -2   0  12    3.36    1.67
  -2   0 -12    1.33    1.50
  -4   0  12    0.97    1.28
  -4   0 -12    2.59    1.54
   4   0 -12   -0.04    1.24
   4   0  12    1.86    1.61
   1  -1  12  100.37    5.25
   1   1 -12  102.41    4.88
  -1  -1 -12  103.90    5.22
  -1  -1 -12   96.75    5.03
   1   1 -12   99.76    4.51
  -1   1  12  108.69    5.39
  -1  -1  12  115.41    5.62
  -1   1 -12  108.90    5.24
   1   1  12  109.91    5.30
   1  -1 -12  104.04    4.44
  -1   1 -12  103.65    5.09
   1  -1 -12   98.72    4.89
  -3  -1 -12   74.34    4.99
   3  -1  12   75.67    5.01
  -3   1  12   76.13    5.09
   3   1 -12   71.96    4.81
   3   1  12   75.40    5.24
   3  -1 -12   73.07    4.86
  -3   1 -12   61.64    4.56
  -3   1 -12   76.42    5.18
  -3  -1  12   69.92    4.90
   5  -1  12   45.86    5.47
  -5   1  12   39.21    4.96
   5   1 -12   48.02    5.79
  -5  -1 -12   32.74    4.63
   5  -1 -12   54.21    6.21
  -5  -1  12   31.30    4.61
   5   1  12   33.20    4.66
  -5   1 -12   44.13    5.25
   0  -2 -12    0.73    0.97
   0   2 -12    0.67    1.00
   0   2  12    0.56    1.03
   0   2 -12    0.13    0.70
   0  -2 -12    1.46    1.21
   0  -2  12   -0.44    0.87
   2   2 -12    1.34    1.16
  -2   2  12    1.62    1.23
   2  -2  12    1.73    1.27
  -2  -2 -12    1.15    1.40
   2   2  12    1.41    1.29
  -2   2 -12    0.56    1.18
   2  -2 -12    3.19    1.42
  -2  -2  12    1.87    1.46
   2   2  12   -0.83    0.92
  -2   2 -12    2.28    1.34
  -4  -2 -12    0.55    1.20
   4   2 -12    0.80    1.41
  -4   2  12   -0.40    1.19
   4   2  12    1.72    1.50
  -4   2 -12    1.13    1.51
  -4  -2  12    1.01    1.35
   4  -2 -12   -0.44    1.24
  -1   3  12   18.00    2.90
   1  -3  12   15.30    3.02
  -1   3  12   18.46    2.29
  -1  -3 -12   20.11    2.97
   1   3 -12   18.27    2.61
   1   3 -12   13.27    2.24
   1   3  12   15.33    2.64
   1   3  12   23.87    3.16
  -1   3 -12   19.32    2.92
  -1   3 -12   13.94    2.41
  -1  -3  12   12.97    2.53
   1  -3 -12   15.67    2.50
   3  -3  12   16.06    3.30
  -3   3  12   11.39    2.90
  -3  -3 -12   13.06    2.69
   3   3 -12   17.94    2.95
  -3   3 -12   14.36    2.84
   3  -3 -12   14.84    2.89
  -3  -3  12    7.54    2.20
   3   3  12    7.81    2.31
  -3   3 -12   16.39    2.72
  -5  -3 -12    8.89    2.77
  -5   3  12    6.19    2.43
   5   3 -12    9.91    3.06
   5  -3  12    8.62    2.64
  -5   3 -12    8.04    2.80
   5  -3 -12   15.14    3.50
   5   3  12    5.82    2.37
   0   4 -12    1.20    0.95
   0  -4 -12    0.48    1.17
   0   4  12   -0.33    0.83
   0   4 -12    2.87    1.26
   0  -4  12    1.29    1.20
   0   4  12    0.90    0.94
   2   4 -12    0.65    1.12
  -2   4  12   -0.03    1.00
   2  -4  12    0.76    1.27
  -2  -4 -12    1.56    1.49
  -2  -4  12    0.66    1.05
  -2   4 -12    0.06    0.99
   2  -4 -12    0.13    1.08
   2   4  12    0.24    1.19
  -2   4 -12   -2.08    0.85
  -4  -4 -12    1.65    1.46
   4   4 -12   -0.09    1.35
  -4   4  12   -0.55    1.06
  -4  -4  12    1.63    1.61
  -4   4 -12    1.44    1.54
   4   4  12    0.17    1.25
  -4   4 -12    0.75    1.54
   4  -4 -12    1.12    1.47
  -1   5  12   25.11    3.39
  -1   5  12   34.32    3.14
   1   5 -12   29.84    3.29
   1  -5  12   39.73    4.80
   1   5 -12   39.50    4.07
  -1  -5 -12   29.68    3.54
  -1   5 -12   32.69    3.77
  -1  -5  12   37.67    4.64
  -1   5 -12   41.29    3.96
   1   5  12   40.60    4.06
   1   5  12   41.95    4.14
   1  -5 -12   34.87    3.52
   3   5 -12   22.27    3.35
  -3  -5 -12   21.84    3.63
  -3   5  12   20.60    3.35
   3  -5  12   22.90    3.94
  -3   5 -12   27.59    3.84
   3  -5 -12   26.78    3.53
   3   5  12   21.80    3.52
  -3   5 -12   25.62    3.35
  -3  -5  12   31.27    4.28
   0   6 -12   40.53    4.35
   0   6  12   44.76    3.28
   0  -6 -12   50.52    3.76
   0   6  12   53.21    3.78
   0   6 -12   45.69    3.15
   0  -6  12   39.75    4.68
  -2   6  12   39.96    4.59
   2   6 -12   30.43    3.53
   2   6 -12   38.19    3.92
   2  -6  12   30.88    4.48
  -2  -6 -12   40.57    4.50
  -2   6 -12   34.99    4.25
   2  -6 -12   34.26    3.77
  -2   6 -12   37.22    3.88
  -2  -6  12   43.74    4.78
   2   6  12   34.86    4.10
   4   6 -12   21.42    3.78
  -4  -6 -12   25.92    3.85
   4  -6  12   24.44    4.01
  -4   6  12   24.60    4.31
  -4  -6  12   24.92    4.01
   4  -6 -12   18.07    3.43
   4   6  12   22.45    4.04
  -4   6 -12   26.97    3.98
   1  -7  12    6.18    2.28
  -1   7  12    3.23    1.58
   1   7 -12    4.70    1.69
   1   7 -12    3.59    1.38
  -1  -7 -12    1.43    1.22
   1   7  12    4.74    1.60
  -1  -7  12    1.90    1.38
   1   7  12    3.22    1.46
   1  -7 -12    1.33    1.22
  -1   7 -12    5.45    1.82
  -1   7 -12    1.10    2.73
   3   7 -12    4.13    1.76
  -3  -7 -12   -0.17    1.26
   3  -7  12    2.61    1.69
  -3   7  12    0.61    1.19
   3  -7 -12    2.50    1.59
   3   7  12    3.63    1.88
  -3  -7  12    2.02    1.81
  -3   7 -12    3.34    1.78
   0   8  12   27.22    3.12
   0   8 -12   25.24    3.48
   0  -8  12   28.53    4.35
   0  -8 -12   28.44    3.43
   0   8  12   27.89    3.48
  -2  -8 -12   24.09    3.56
   2   8 -12   27.95    3.45
  -2   8  12   21.79    3.51
   2  -8  12   22.56    3.88
   2   8 -12   26.97    3.58
  -2  -8  12   22.11    3.81
  -2   8 -12   21.87    3.57
   2   8  12   24.43    3.56
   2  -8 -12   31.37    3.66
   4  -8  12    8.84    2.94
  -4   8  12   16.97    3.78
  -4  -8 -12   20.66    3.66
   4   8 -12   18.36    3.32
   4   8  12   14.30    3.26
  -4   8 -12   14.62    3.04
   4  -8 -12   17.92    3.35
  -1  -9 -12   -0.75    1.31
   1   9 -12    3.09    1.75
  -1   9  12    1.72    1.37
   1  -9  12    3.67    1.91
  -1   9 -12    0.66    1.32
   1   9  12    4.82    1.73
  -1  -9  12    1.68    1.52
   1  -9 -12    3.18    1.56
  -3   9  12    0.72    1.47
   3  -9  12    0.26    1.74
  -3  -9 -12    2.49    1.74
   3   9 -12    0.79    1.26
  -3  -9  12    2.83    1.68
   3   9  12    1.83    1.63
   3  -9 -12    0.60    1.23
  -3   9 -12    4.42    2.40
   0 -10 -12   45.52    4.53
   0  10  12   47.96    4.33
   0  10 -12   55.78    5.66
   0  10  12   49.49    3.82
   0 -10  12   41.07    5.12
   2 -10  12   40.74    5.42
  -2 -10 -12   30.47    4.09
   2  10 -12   43.85    4.67
  -2  10  12   35.40    4.40
   2 -10 -12   40.08    4.27
   2  10  12   38.55    4.45
  -2 -10  12   43.29    5.34
  -2  10 -12   40.31    4.84
   4  10 -12   28.71    5.32
  -4 -10 -12   37.83    5.04
  -4  10  12   29.48    4.92
   4 -10  12   29.02    4.79
   4  10  12   26.05    4.43
  -4  10 -12   31.24    4.45
   4 -10 -12   23.07    3.77
  -1  11  12    1.21    1.45
   1 -11  12    3.13    1.96
  -1 -11 -12    2.06    1.75
   1  11 -12    1.50    1.57
  -1  11 -12    5.49    2.20
  -1 -11  12    1.88    1.85
   1 -11 -12    0.88    1.32
   1  11  12    4.06    1.78
  -3 -11 -12    2.45    1.89
   3 -11  12    1.85    1.89
  -3  11  12    3.05    1.91
  -3  11 -12   -0.01    1.60
   3 -11 -12    1.82    1.66
   3  11  12    1.66    1.79
  -3 -11  12    3.11    2.19
   0  12 -12   74.55    5.43
   0 -12  12   62.63    6.89
   0 -12 -12   77.45    5.24
   0  12  12   72.26    4.58
   2 -12  12   66.95    7.07
  -2 -12 -12   64.86    5.90
  -2  12  12   52.66    5.51
   2  12 -12   67.57    6.29
   2  12  12   60.99    5.87
  -2 -12  12   60.92    6.53
   2 -12 -12   51.41    4.66
  -2  12 -12   58.61    5.95
   1  13 -12    0.30    1.32
  -1 -13 -12   -0.43    1.52
   1 -13  12   -0.31    1.49
  -1  13  12    0.73    1.27
  -1 -13  12    3.91    2.12
  -1  13 -12    1.07    1.72
   1 -13 -12    2.55    1.73
   1  13  12    1.32    1.48
  -3 -13 -12    1.54    1.94
  -3  13  12    0.68    1.77
   3 -13  12    1.18    1.91
   3  13  12    1.57    1.84
  -3  13 -12    1.64    2.07
   0  14 -12    1.74    1.73
   0 -14 -12    5.43    2.07
   0 -14  12    3.87    2.53
   2  14 -12    3.79    2.05
  -2  14  12    4.02    2.08
  -2 -14 -12    5.34    2.26
   2 -14  12    0.67    1.93
  -2 -14  12    4.31    2.09
  -2  14 -12    5.44    2.43
   2  14  12    6.60    2.34
  -1 -15 -12   -1.45    1.44
   1 -15  12   -0.51    1.71
   1  15 -12    0.18    1.57
  -1  15  12    1.59    1.79
  -1 -15  12   -0.52    1.60
  -1  15 -12    2.87    2.00
   1  15  12    1.59    1.67
   0 -16  12    9.32    3.27
   0  16 -12   20.58    4.14
   0   0 -13   -0.12    0.98
   0   0 -13    1.43    1.04
   0   0  13    0.56    0.99
   2   0  13    0.12    0.95
  -2   0 -13    0.43    1.25
  -2   0 -13   -0.33    1.06
   2   0 -13    0.70    0.97
  -2   0  13   -0.26    1.01
   4   0  13   -0.86    1.29
   4   0 -13   -0.24    1.31
  -4   0  13   -0.04    1.34
  -4   0 -13    0.21    1.34
   1   1 -13   43.64    3.25
  -1  -1 -13   43.90    4.30
  -1   1  13   45.01    4.66
   1  -1  13   47.51    4.96
  -1  -1 -13   41.56    4.14
   1   1 -13   45.93    4.46
   1  -1 -13   45.41    4.22
  -1  -1  13   43.36    4.77
   1   1  13   49.99    5.16
  -1   1 -13   45.06    4.49
  -1   1 -13   40.12    4.00
   1  -1 -13   44.50    3.13
  -3   1  13   28.32    4.10
  -3  -1 -13   33.86    4.33
   3   1 -13   40.04    4.70
   3  -1 -13   31.55    4.08
  -3  -1  13   27.51    4.02
  -3   1 -13   34.76    4.39
   3   1  13   28.81    3.96
  -3   1 -13   28.77    4.02
   0   2 -13  110.32    5.39
   0  -2 -13  110.15    5.54
   0  -2 -13  111.18    5.13
   0   2  13  101.67    5.45
   0  -2  13  109.04    5.86
   0   2 -13  116.78    5.30
  -2   2  13   92.78    5.54
   2  -2  13   89.32    5.60
   2   2 -13   87.24    4.98
  -2  -2  13   87.66    5.31
   2   2  13   92.88    5.61
   2   2  13   90.87    5.03
   2  -2 -13   99.17    5.36
  -2   2 -13   83.13    5.16
  -2   2 -13   98.70    5.62
   4   2 -13   72.88    6.50
  -4  -2 -13   47.92    5.26
  -4   2  13   67.64    5.52
  -4  -2  13   60.19    6.08
   4  -2 -13   68.87    6.53
   4   2  13   64.47    6.56
  -4   2 -13   53.68    5.36
  -1   3  13    0.65    0.97
  -1   3  13    1.37    1.24
  -1  -3 -13    0.21    1.11
   1  -3  13    1.06    1.36
   1   3 -13    1.50    1.25
   1   3 -13    0.90    1.06
   1   3  13    1.39    1.23
  -1   3 -13    1.05    1.20
  -1  -3  13    0.80    1.24
   1  -3 -13    2.63    1.51
  -1   3 -13    2.18    1.56
   1   3  13    0.83    1.06
   3   3 -13    1.33    1.30
   3  -3  13    0.83    1.33
  -3   3  13    0.95    1.58
  -3  -3 -13   -0.11    1.31
  -3  -3  13    1.09    1.19
   3  -3 -13    0.13    1.21
  -3   3 -13   -0.15    1.03
   3   3  13    1.02    1.38
  -3   3 -13   -0.60    1.51
   0  -4 -13   10.32    2.26
   0   4  13    3.72    1.71
   0   4 -13   10.03    2.20
   0  -4  13   11.67    2.72
   0   4  13    7.29    1.79
   0   4 -13   11.02    2.16
   2   4 -13   10.67    2.34
  -2  -4 -13    9.50    2.43
  -2   4  13    8.98    2.49
   2  -4  13    7.47    2.48
   2  -4 -13    9.65    2.35
  -2  -4  13    2.39    1.39
  -2   4 -13    6.43    2.21
   2   4  13    9.96    2.38
  -2   4 -13    3.08    1.46
   4   4 -13    5.46    2.34
  -4   4  13    4.97    2.16
  -4  -4 -13    1.62    1.72
   4  -4 -13    4.70    2.29
  -4  -4  13    4.84    2.13
  -4   4 -13    3.60    2.16
   4   4  13    3.89    2.18
   1   5 -13  156.76    6.20
  -1  -5 -13  140.43    6.76
  -1   5  13  150.02    6.80
   1  -5  13  139.75    7.38
   1   5 -13  155.98    6.57
   1  -5 -13  153.40    6.63
   1   5  13  152.63    6.28
  -1  -5  13  145.72    7.07
  -1   5 -13  147.87    6.18
  -1   5 -13  149.23    6.88
   1   5  13  147.59    6.56
   3   5 -13  110.09    6.07
   3  -5  13  109.92    6.73
  -3   5  13  103.18    6.42
   3   5  13  114.60    6.64
  -3  -5  13  100.53    5.98
   3  -5 -13  117.90    6.34
   0   6  13  133.52    5.70
   0   6 -13  138.09    5.67
   0   6  13  139.38    6.29
   0  -6  13  134.75    7.03
   0   6 -13  132.98    6.40
   0  -6 -13  141.37    6.41
  -2   6  13  119.31    6.46
  -2  -6 -13  115.25    6.57
   2  -6  13  119.37    6.91
   2   6 -13  119.98    5.67
   2   6  13  122.38    6.43
  -2  -6  13  106.01    6.15
   2  -6 -13  117.92    6.07
  -2   6 -13  106.84    6.24
  -4   6  13   74.09    6.03
  -4  -6 -13   76.82    6.70
   4   6 -13   71.92    6.48
   4   6  13   66.76    6.68
  -4  -6  13   68.49    5.37
   4  -6 -13   77.17    6.72
  -1  -7 -13    3.44    1.67
   1   7 -13    2.92    1.34
   1   7 -13    6.09    2.10
   1  -7  13    1.41    1.83
  -1   7  13    3.73    1.85
   1   7  13    1.96    1.38
   1  -7 -13    1.60    1.34
  -1  -7  13    2.83    1.84
   1   7  13    2.51    1.41
  -1   7 -13    1.88    1.58
  -3   7  13    1.78    1.52
   3  -7  13   -0.27    1.35
  -3  -7 -13    3.36    2.09
   3   7 -13    3.12    1.64
   3   7  13    1.77    1.58
  -3   7 -13    2.38    2.02
   3  -7 -13    1.66    1.54
  -3  -7  13    2.35    1.88
   0   8 -13    9.44    2.57
   0   8  13    6.49    1.87
   0  -8  13    5.39    2.13
   0   8  13    2.50    1.33
   0  -8 -13    9.09    2.21
   2  -8  13    5.87    2.32
  -2   8  13    4.28    1.95
  -2  -8 -13    7.02    2.38
   2   8 -13    4.36    1.62
   2   8 -13    4.97    1.99
  -2   8 -13    2.97    1.78
   2   8  13    4.53    2.05
   2  -8 -13    4.63    1.96
  -2  -8  13    4.28    1.95
   4  -8  13    7.77    2.85
   4   8 -13    1.72    1.72
  -4   8  13    3.66    2.27
  -4  -8 -13    5.16    2.33
   4  -8 -13    2.48    1.93
  -4   8 -13    4.04    2.13
   4   8  13    2.05    2.07
   1   9 -13   68.30    4.90
  -1  -9 -13   76.52    5.44
  -1   9  13   80.77    5.35
   1  -9  13   88.57    6.37
  -1  -9  13   86.22    5.90
   1  -9 -13   78.17    5.10
   1   9  13   89.70    5.29
  -1   9 -13   84.07    5.62
  -3   9  13   60.97    6.46
   3  -9  13   71.41    5.77
   3   9 -13   56.54    5.27
  -3  -9 -13   64.47    5.99
   3  -9 -13   68.47    5.99
  -3   9 -13   61.79    6.19
  -3  -9  13   56.40    5.98
   3   9  13   66.71    6.51
   0 -10 -13   24.19    3.47
   0  10 -13   28.90    4.02
   0  10  13   27.73    3.51
   0 -10  13   26.23    4.73
   0  10  13   25.94    3.55
  -2  10  13   20.22    3.75
   2  10 -13   22.61    3.69
   2 -10  13   35.83    5.24
  -2 -10 -13   25.45    3.92
   2  10  13   22.00    3.57
  -2 -10  13   19.96    3.91
   2 -10 -13   22.95    3.37
  -2  10 -13   20.94    3.75
   1 -11  13    0.69    1.72
  -1  11  13   -0.66    1.14
   1  11 -13    0.77    1.46
  -1 -11 -13   -0.84    1.40
  -1  11 -13   -0.02    1.37
   1 -11 -13    0.93    1.22
   1  11  13    1.24    1.43
  -1 -11  13    1.73    1.83
  -3  11  13    1.44    1.91
   3 -11  13   -0.31    1.82
  -3 -11 -13    0.50    1.93
   3 -11 -13   -1.57    1.40
   3  11  13   -0.18    1.60
  -3  11 -13    0.52    1.75
  -3 -11  13    0.50    1.49
   0 -12 -13   32.82    4.25
   0 -12  13   19.70    3.99
   0  12  13   29.15    4.94
   0  12 -13   26.73    4.17
   2 -12  13   23.86    4.41
   2  12 -13   24.44    4.08
  -2  12  13   20.40    3.73
  -2 -12 -13   24.96    4.16
  -2  12 -13   18.77    3.71
  -2 -12  13   25.31    4.60
   2 -12 -13   22.19    3.40
   2  12  13   25.00    4.08
   1  13 -13   75.45    6.98
   1 -13  13   67.28    7.17
  -1 -13 -13   80.04    5.99
  -1  13  13   74.57    5.55
   1  13  13   74.40    5.24
  -1  13 -13   72.33    6.83
  -1 -13  13   77.37    6.25
   1 -13 -13   73.77    6.22
   0 -14  13    2.49    2.32
   0 -14 -13    3.05    1.87
   0  14 -13    2.39    2.03
  -2 -14 -13    2.35    2.10
   2  14 -13    0.93    1.72
  -2  14  13    2.74    2.12
   2 -14  13   -0.12    2.04
   2  14  13   -0.64    1.54
  -2 -14  13    1.31    1.99
  -2  14 -13   -0.13    1.68
  -1 -15 -13    5.82    2.69
   1 -15  13   15.13    3.78
   1  15 -13    7.38    2.65
   1  15  13    8.57    2.51
  -1 -15  13   10.62    3.36
  -1  15 -13    7.52    2.85
   0   0  14   19.78    3.41
   0   0 -14   20.55    2.94
   0   0 -14   22.70    3.32
  -2   0 -14   12.00    2.81
   2   0  14   23.95    3.78
   2   0 -14   26.04    3.75
  -2   0 -14   12.14    2.63
  -2   0  14   20.20    3.33
  -4   0  14   14.08    3.51
   4   0  14    9.20    2.67
  -4   0 -14   11.68    2.96
   4   0 -14    9.66    2.91
   1   1 -14   27.43    3.31
  -1   1  14   29.48    4.12
   1   1 -14   24.30    3.24
  -1  -1 -14   26.23    3.68
  -1  -1 -14   18.72    3.03
   1  -1  14   22.39    3.59
   1   1  14   24.51    3.79
  -1   1 -14   25.87    3.53
  -1   1 -14   23.95    3.35
   1  -1 -14   23.74    3.30
   1  -1 -14   24.13    2.95
  -1  -1  14   19.98    3.39
  -3   1  14   18.84    3.47
  -3  -1 -14   20.93    3.56
   3   1 -14   14.69    2.89
   3   1  14   19.07    3.43
  -3   1 -14   17.02    3.39
   3  -1 -14   22.00    3.59
  -3   1 -14   19.63    3.39
  -3  -1  14   26.02    4.52
   0   2 -14    0.21    1.06
   0  -2 -14   -0.40    1.02
   0   2  14   -0.04    1.12
   0  -2  14    1.44    1.56
   0  -2 -14    0.55    0.98
   0   2 -14    2.18    1.46
   2   2 -14    1.58    1.43
  -2   2  14    1.77    1.69
   2  -2  14    2.23    1.61
  -2  -2 -14   -0.98    1.16
  -2   2 -14    0.65    1.28
   2   2  14    1.27    1.23
  -2  -2  14    3.23    1.65
   2   2  14    1.66    1.46
  -2   2 -14    0.59    1.57
   2  -2 -14    2.60    1.59
   4   2 -14   -1.41    1.50
  -4   2  14    1.35    1.69
   4  -2  14   -0.64    1.38
  -4  -2 -14   -0.58    1.31
  -4   2 -14    1.93    1.73
   4   2  14   -0.48    1.36
   4  -2 -14    0.17    1.79
  -4  -2  14    0.70    1.26
   1   3 -14    2.19    1.38
   1   3 -14    2.53    1.41
  -1   3  14    3.31    1.66
   1  -3  14    3.01    1.74
  -1  -3 -14    4.81    1.99
   1   3  14    1.31    1.37
   1   3  14    8.11    2.19
  -1   3 -14    2.26    1.54
   1  -3 -14    2.11    1.26
  -1   3 -14    0.62    1.32
  -1  -3  14    3.95    2.02
   3   3 -14    2.72    1.67
   3  -3  14    0.76    1.58
  -3   3  14   -0.02    1.42
  -3  -3 -14    4.28    1.96
  -3   3 -14    1.51    1.45
   3  -3 -14    2.56    1.76
  -3  -3  14    4.88    2.35
  -3   3 -14    1.90    1.87
   3   3  14    1.66    1.50
   0   4  14    5.78    1.77
   0   4 -14    5.55    1.95
   0   4  14    8.46    2.31
   0  -4  14    7.31    2.30
   0   4 -14   11.71    2.53
   0  -4 -14    9.33    2.20
  -2   4  14    5.63    2.04
   2  -4  14    6.53    2.46
   2   4 -14    3.58    1.61
  -2  -4 -14    8.66    2.39
   2   4  14    6.94    2.30
  -2   4 -14    2.37    1.75
  -2  -4  14    4.50    1.71
  -2   4 -14    4.10    1.82
   2  -4 -14    4.23    1.78
   4   4 -14    4.15    2.11
  -4   4  14    4.43    2.04
  -4  -4 -14    5.21    2.25
   4  -4 -14    6.01    2.38
  -4  -4  14    2.83    1.79
  -4   4 -14    2.59    2.26
   4   4  14    4.71    2.40
   1  -5  14    9.51    2.83
   1   5 -14   16.04    2.92
  -1   5  14   13.73    3.04
  -1  -5 -14   10.51    2.64
   1   5 -14   10.93    2.55
  -1   5 -14    9.13    2.60
   1   5  14   13.18    2.71
   1   5  14   13.93    2.75
   1  -5 -14   12.27    2.59
  -1   5 -14   17.75    3.00
  -1  -5  14   15.60    3.56
  -3  -5 -14    9.57    2.64
  -3   5  14    5.87    2.02
   3  -5  14    7.72    2.94
   3   5 -14   11.37    2.78
   3  -5 -14    6.89    2.22
  -3   5 -14   13.51    2.97
  -3  -5  14    7.78    2.52
   3   5  14   12.56    2.86
   0   6 -14   11.38    2.55
   0  -6 -14   11.42    2.58
   0   6  14   15.62    2.67
   0  -6  14   10.71    3.20
   0   6  14   11.40    2.66
   0   6 -14    9.18    2.17
   2   6 -14   12.17    2.48
   2  -6  14   12.04    3.25
  -2  -6 -14   11.56    2.87
  -2   6  14   12.75    3.04
  -2  -6  14   11.55    2.81
  -2   6 -14    7.69    2.42
   2  -6 -14    9.79    2.55
   2   6  14   10.87    2.76
   4   6 -14    9.62    2.79
  -4   6  14    7.39    2.57
  -4  -6 -14    3.37    2.03
  -4  -6  14    6.18    2.40
   4  -6 -14    5.58    2.43
   4   6  14    4.14    2.43
  -4   6 -14    5.57    2.51
   1   7 -14    2.66    1.50
   1   7 -14    3.98    1.72
  -1   7  14    5.31    2.20
   1  -7  14    4.43    2.22
  -1  -7 -14    4.93    1.99
  -1  -7  14    2.45    1.73
   1   7  14    1.99    1.42
   1  -7 -14    3.70    1.73
  -1   7 -14    4.45    2.03
   3  -7  14    5.86    2.83
  -3   7  14    4.25    1.95
   3   7 -14    3.06    2.01
  -3  -7 -14    2.98    2.21
  -3   7 -14    4.75    2.34
  -3  -7  14    3.83    2.00
   3   7  14    7.26    2.48
   3  -7 -14    6.24    2.05
   0  -8 -14    3.71    2.04
   0   8  14    3.85    1.81
   0   8 -14    3.37    1.88
   0   8  14    3.97    1.67
   0  -8  14    1.91    1.51
   2  -8  14    3.30    2.07
  -2   8  14    5.35    2.25
  -2  -8 -14    4.82    2.20
   2   8 -14    3.52    1.67
  -2  -8  14    3.30    1.96
   2  -8 -14    1.41    1.52
  -2   8 -14    2.08    1.89
   2   8  14    2.34    1.64
  -1  -9 -14   -0.26    1.55
   1   9 -14   -2.18    1.08
  -1   9  14   -1.13    1.05
   1  -9  14   -1.23    1.33
   1  -9 -14   -0.42    1.39
  -1  -9  14   -1.12    1.25
   1   9  14    0.14    1.29
  -1   9 -14   -0.94    1.42
  -3  -9 -14    2.24    2.16
   3  -9  14    1.37    2.04
  -3   9  14    1.52    1.94
  -3  -9  14    0.71    1.34
   3   9  14    0.10    1.53
  -3   9 -14   -0.75    1.56
   3  -9 -14    0.93    1.56
   0  10  14    9.80    2.49
   0 -10 -14   12.25    2.81
   0  10 -14   17.47    3.52
   0 -10  14   11.00    3.18
   0  10  14   14.70    2.93
  -2  10  14   10.68    2.68
   2  10 -14    9.54    2.64
  -2 -10 -14    8.08    2.67
   2 -10  14   10.84    3.41
   2 -10 -14    7.04    2.34
  -2  10 -14    9.42    2.72
  -2 -10  14    9.59    2.98
   2  10  14   14.88    3.25
  -1 -11 -14   10.21    2.97
   1 -11  14   10.87    3.24
   1  11 -14   15.02    3.18
  -1  11  14   14.03    3.14
   1  11  14   12.63    2.88
  -1  11 -14   10.47    2.96
  -1 -11  14   12.33    3.46
   1 -11 -14   12.44    2.60
   3 -11  14    6.86    2.89
   0  12 -14   17.07    3.47
   0 -12  14   12.10    3.21
   0 -12 -14   16.45    3.36
  -2 -12 -14   12.07    3.17
  -2  12  14   16.87    3.46
   2  12 -14   20.62    4.16
   2 -12  14   12.80    3.63
  -2  12 -14   10.53    3.07
   2  12  14   12.12    3.08
   2 -12 -14    7.07    2.29
  -2 -12  14   13.76    3.60
   1 -13  14    1.65    1.99
  -1  13  14    2.17    1.82
  -1 -13 -14    3.42    2.29
   1  13 -14    2.53    1.86
  -1 -13  14    1.76    2.21
  -1  13 -14    2.26    2.02
   1 -13 -14   -0.54    1.56
   1  13  14    2.32    1.79
   0 -14  14   -0.20    1.57
   0  14 -14   -0.94    1.44
   0 -14 -14    1.09    2.22
   0   0 -15    0.11    1.25
   0   0  15    0.42    1.26
   0   0 -15    1.15    1.36
  -2   0 -15    1.98    1.52
   2   0 -15   -0.51    1.02
  -2   0  15   -0.10    1.11
   2   0  15    1.92    1.55
  -2   0 -15   -0.28    1.45
  -4   0  15    0.13    1.55
  -4   0 -15    1.70    1.67
   4   0 -15    0.15    1.55
   4   0  15    0.79    1.68
   1   1 -15   61.47    5.53
  -1  -1 -15   59.21    5.57
  -1  -1 -15   55.85    5.39
  -1   1  15   64.99    4.94
   1  -1  15   63.89    6.41
   1   1 -15   60.59    4.21
  -1   1 -15   51.30    5.33
   1  -1 -15   63.22    4.62
  -1   1 -15   53.18    5.40
  -1  -1  15   72.49    5.30
   1   1  15   64.83    4.96
  -3   1  15   53.08    6.23
   3   1 -15   44.82    5.08
   3  -1 -15   57.84    6.07
  -3   1 -15   43.83    5.28
  -3   1 -15   45.10    5.38
  -3  -1  15   44.98    5.62
   3   1  15   33.44    4.46
   0   2  15    8.59    2.44
   0  -2 -15    8.65    2.27
   0   2 -15    8.71    2.36
   0  -2  15   12.27    3.15
   0   2 -15   10.39    2.41
  -2   2  15   12.30    3.05
  -2  -2 -15   13.42    3.03
   2  -2  15   11.46    3.11
   2   2 -15    9.50    2.37
  -2  -2  15    8.53    2.73
   2  -2 -15    5.91    2.13
  -2   2 -15    8.64    2.34
  -2   2 -15    8.17    2.61
   2   2  15   15.25    3.28
   4  -2  15    2.36    2.06
  -4   2  15    3.30    2.08
   4   2 -15    6.46    2.62
   4   2  15   10.72    3.24
  -4  -2  15   10.48    3.45
   4  -2 -15    6.48    2.58
   1   3 -15   50.64    4.68
   1   3 -15   61.30    4.45
  -1  -3 -15   58.55    5.72
   1  -3  15   60.71    6.47
  -1   3  15   58.71    4.76
   1   3  15   67.24    4.90
  -1   3 -15   67.58    6.12
  -1  -3  15   55.39    6.28
  -1   3 -15   59.65    5.63
   1   3  15   62.99    4.78
   1  -3 -15   64.74    4.79
   3   3 -15   58.80    6.01
  -3  -3 -15   45.79    5.19
  -3   3  15   39.67    5.20
   3  -3  15   47.19    6.15
  -3   3 -15   43.33    5.23
  -3   3 -15   44.06    5.13
  -3  -3  15   61.04    6.51
   3  -3 -15   51.96    5.69
   3   3  15   48.25    5.43
   0   4  15   34.42    4.57
   0   4  15   31.92    3.83
   0   4 -15   32.61    3.98
   0  -4 -15   28.43    3.88
   0  -4  15   30.38    4.50
   0   4 -15   34.39    4.39
  -2  -4 -15   23.71    4.01
  -2   4  15   24.03    3.93
   2  -4  15   26.13    4.55
   2   4 -15   21.70    3.29
   2   4  15   19.50    3.53
   2  -4 -15   31.28    4.16
  -2   4 -15   26.97    4.07
  -2   4 -15   29.90    4.27
  -2  -4  15   26.79    4.19
   1   5 -15   41.16    4.57
   1   5 -15   30.61    3.93
  -1   5  15   29.25    4.23
  -1  -5 -15   28.02    3.99
   1  -5  15   23.26    4.08
   1  -5 -15   26.25    3.61
  -1  -5  15   31.87    4.58
   1   5  15   37.98    4.45
  -1   5 -15   32.43    4.46
  -1   5 -15   26.55    3.66
   1   5  15   35.58    4.45
  -3   5  15   24.61    4.42
   3   5 -15   27.49    4.17
  -3  -5 -15   16.05    3.34
   3  -5  15   27.38    4.92
  -3  -5  15   16.01    3.39
   3   5  15   17.98    3.49
   3  -5 -15   25.84    4.04
  -3   5 -15   21.56    3.83
   0  -6  15   31.21    4.61
   0   6  15   45.72    4.58
   0   6  15   52.82    5.71
   0   6 -15   43.91    4.26
   0   6 -15   41.51    4.76
   0  -6 -15   42.06    4.73
   2  -6  15   41.98    5.91
  -2  -6 -15   36.84    4.88
  -2   6  15   35.43    4.95
   2   6 -15   35.20    4.33
   2   6  15   42.01    5.08
   2  -6 -15   36.32    4.47
  -2  -6  15   38.44    5.33
  -1   7  15   31.72    4.57
   1   7 -15   34.25    4.48
   1   7 -15   35.53    4.08
  -1  -7 -15   32.32    4.30
   1  -7  15   26.10    4.64
   1   7  15   32.80    4.25
  -1  -7  15   34.57    5.42
  -1   7 -15   37.93    4.85
   1  -7 -15   36.98    4.40
  -3  -7 -15   20.58    3.90
  -3   7  15   19.37    3.75
   3   7 -15   20.67    3.56
   3  -7  15   35.98    5.67
   3   7  15   28.21    4.58
  -3  -7  15   32.33    5.33
   3  -7 -15   30.15    4.46
  -3   7 -15   25.17    4.12
   0   8 -15   49.00    5.59
   0  -8  15   25.26    4.20
   0   8  15   45.23    5.22
   0   8  15   34.39    4.22
   0  -8 -15   34.07    4.44
  -2  -8 -15   41.09    5.04
  -2   8  15   35.80    4.89
   2  -8  15   35.78    5.65
  -2   8 -15   35.88    4.91
   2  -8 -15   40.23    4.71
  -2  -8  15   29.49    4.59
   2   8  15   45.17    5.41
   1   9 -15    6.66    2.51
   1  -9  15    3.44    2.17
  -1  -9 -15    6.51    2.36
  -1   9  15    3.71    1.98
   1   9  15    3.07    1.69
   1  -9 -15    5.22    2.07
  -1  -9  15    3.76    2.04
  -1   9 -15    4.60    2.20
   3  -9  15    5.43    2.84
  -3  -9  15    2.92    2.08
   0 -10 -15   49.05    5.32
   0  10 -15   57.00    6.28
   0 -10  15   46.16    6.51
  -2 -10 -15   51.21    5.96
  -2  10  15   34.13    4.75
   2 -10  15   40.38    5.75
   2 -10 -15   48.48    5.25
  -2 -10  15   40.76    5.72
   2  10  15   42.70    5.23
  -2  10 -15   39.32    5.28
  -1 -11 -15    0.69    1.69
   1 -11  15    0.20    1.62
  -1  11  15    1.41    1.78
   1  11 -15    0.03    1.62
  -1  11 -15   -1.06    1.49
  -1 -11  15    1.23    1.81
   1 -11 -15   -0.30    1.30
   1  11  15    4.54    2.06
   0  12 -15   34.87    4.96
   0 -12  15   28.12    4.88
   0 -12 -15   40.77    5.07
   0   0  16  164.33    8.12
   0   0 -16  166.85    7.47
   0   0 -16  168.93    7.31
  -2   0  16  129.82    7.39
  -2   0 -16  135.92    7.55
  -2   0 -16  152.20    7.73
   2   0  16  143.61    7.61
   2   0 -16  160.03    7.50
  -1   1  16   -1.23    1.16
  -1  -1 -16    0.82    1.57
  -1  -1 -16    0.24    1.30
   1  -1  16   -0.19    1.36
   1   1 -16   -1.69    1.05
   1   1  16    0.81    1.48
  -1  -1  16   -0.23    1.50
  -1   1 -16   -0.48    1.26
  -1   1 -16    1.31    1.56
   1  -1 -16   -1.13    1.17
   3   1 -16    0.87    1.51
  -3  -1 -16   -0.76    1.40
  -3   1  16    1.60    1.80
  -3  -1  16   -0.96    1.51
   3  -1 -16    1.62    1.44
   3   1  16   -1.66    1.28
  -3   1 -16   -0.57    1.48
   0   2 -16    2.41    1.42
   0   2 -16    1.64    1.24
   0   2  16    1.94    1.62
   0  -2  16    1.87    1.73
   0   2  16    0.76    1.29
   0  -2 -16    0.44    1.16
   2   2 -16   -2.36    0.94
  -2   2  16   -0.24    1.29
   2  -2  16   -0.13    1.43
  -2  -2 -16    0.76    1.51
  -2   2 -16   -2.10    1.42
   2   2  16    2.26    1.89
   2  -2 -16   -0.92    1.32
  -2  -2  16   -0.66    1.13
  -2   2 -16   -0.62    1.33
   1  -3  16    1.11    1.52
  -1  -3 -16    0.06    1.59
  -1   3  16    1.28    1.74
   1   3 -16    0.61    1.39
  -1   3 -16    0.96    1.63
   1  -3 -16    0.91    1.20
   1   3  16    2.03    1.70
  -1   3 -16    0.49    1.45
  -1  -3  16    1.76    1.51
   1   3  16    1.19    1.54
  -3  -3 -16    0.94    1.85
   3   3 -16    2.22    1.96
  -3   3  16   -1.85    1.29
   3   3  16    2.78    1.83
  -3  -3  16    3.16    2.02
  -3   3 -16   -0.99    1.75
   3  -3 -16    2.06    1.72
  -3   3 -16    0.17    1.70
   0  -4  16   57.43    6.80
   0   4  16   39.91    5.00
   0   4 -16   64.11    4.59
   0   4  16   53.73    5.07
   0   4 -16   52.67    5.58
   0  -4 -16   49.78    5.17
  -2   4  16   50.31    5.89
   2   4 -16   44.07    5.00
  -2  -4 -16   50.50    5.81
   2  -4  16   55.91    6.78
  -2  -4  16   44.65    5.86
   2   4  16   51.77    5.81
   2  -4 -16   46.86    5.07
  -2   4 -16   41.08    5.05
  -2   4 -16   42.06    5.18
   1   5 -16    1.97    1.86
   1   5 -16   -0.30    1.15
  -1  -5 -16    1.68    1.66
  -1   5  16    0.33    1.37
   1  -5  16   -0.35    1.34
  -1   5 -16   -1.24    1.38
   1   5  16    1.15    1.51
   1   5  16    0.33    1.50
  -1   5 -16    1.02    1.60
  -1  -5  16   -0.40    1.26
   1  -5 -16    0.85    1.39
  -3   5  16   -0.66    1.40
  -3  -5 -16    0.76    1.65
   3   5 -16    0.11    1.40
   3  -5  16    1.72    2.07
  -3  -5  16    0.51    1.74
  -3   5 -16   -2.05    1.78
   3  -5 -16   -0.28    1.78
   3   5  16   -1.26    1.58
   0   6  16   -0.16    1.24
   0   6 -16   -1.03    1.47
   0  -6  16    0.14    1.34
   0  -6 -16   -1.59    1.32
   0   6 -16   -0.07    1.19
   0   6  16    0.35    1.30
  -2   6  16    0.83    1.60
   2  -6  16   -1.13    1.49
   2   6 -16   -0.66    1.24
  -2  -6 -16    1.10    1.73
   2  -6 -16   -0.98    1.47
   2   6  16    0.94    1.85
  -2   6 -16    0.75    1.56
  -2  -6  16    0.25    1.44
  -1   7  16   40.30    5.27
  -1  -7 -16   40.83    5.05
   1   7 -16   47.20    5.36
   1  -7  16   50.18    6.85
  -1   7 -16   57.35    6.21
   1  -7 -16   53.91    5.76
  -1  -7  16   50.88    6.80
   1   7  16   58.37    5.72
   0   8  16    1.41    1.89
   0  -8 -16    4.52    2.15
   0  -8  16    2.85    2.43
   0   8 -16    2.39    1.85
  -2   8  16    1.23    1.92
   2  -8  16    1.49    2.27
  -2  -8 -16    4.21    2.49
   2  -8 -16    1.06    1.82
  -2  -8  16    1.97    1.90
  -2   8 -16   -1.47    1.40
   2   8  16    0.44    1.88
  -1  -9 -16    0.85    1.93
   1  -9  16   -0.31    1.85
  -1   9  16    0.38    1.64
   1   9 -16   -0.06    1.31
   1   9  16    1.50    1.64
   1  -9 -16    1.02    1.44
  -1   9 -16    1.67    2.03
  -1  -9  16   -0.51    1.61
   0 -10 -16    1.63    2.05
   0  10 -16   -0.36    1.67
   0 -10  16   -0.44    1.57
  -1  11  16  111.61    7.07
  -1 -11 -16  109.83    7.53
   1  11 -16  103.16    6.87
   1 -11  16   83.73    9.09
  -1  11 -16   98.63    6.99
  -1 -11  16   94.41    7.33
   1 -11 -16  102.97    6.80
   1  11  16   97.65    6.50
   0   0  17    1.31    1.82
   0   0 -17   -0.78    1.34
   0   0 -17    0.67    1.46
  -2   0 -17    0.04    1.56
   2   0 -17   -0.92    1.40
   2   0  17    1.22    2.01
  -2   0  17    0.70    1.68
   1   1 -17    6.68    2.22
  -1  -1 -17    0.57    1.79
  -1   1  17    3.64    2.29
   1  -1  17    4.10    2.38
  -1   1 -17    5.99    2.12
   1  -1 -17    3.10    1.88
   1   1  17    3.32    1.96
  -1   1 -17    3.10    1.99
  -1  -1  17    3.48    2.18
   0   2  17   31.23    4.73
   0  -2  17   30.44    4.74
   0   2  17   38.56    4.54
   0  -2 -17   31.01    4.54
   0   2 -17   33.03    4.44
   0   2 -17   33.71    4.27
   2  -2  17   33.06    5.20
  -2   2  17   24.52    4.48
  -2  -2 -17   31.89    4.81
   2   2 -17   27.74    4.23
  -2  -2  17   26.87    5.01
   2  -2 -17   33.38    4.52
   2   2  17   38.94    5.25
  -2   2 -17   28.88    4.42
  -2   2 -17   40.69    5.22
   1  -3  17    0.67    1.75
   1   3 -17    2.35    1.58
  -1  -3 -17    5.18    2.28
  -1   3  17    0.20    1.55
  -1  -3  17    0.98    1.66
   1   3  17    1.66    1.81
  -1   3 -17    3.09    1.93
   1  -3 -17   -0.32    1.35
  -1   3 -17    0.12    1.54
   1   3  17    2.06    1.74
   0  -4  17   21.41    4.66
   0   4 -17   19.02    3.29
   0   4  17   18.68    3.65
   0  -4 -17   11.09    2.83
   0   4  17   11.08    3.80
   0   4 -17   17.91    3.54
   2  -4  17   12.88    3.61
  -2   4  17   16.20    3.76
  -2  -4 -17   12.55    3.41
   2   4 -17   16.20    3.11
   2   4  17   13.79    3.31
  -2   4 -17   10.74    3.12
   2  -4 -17   13.03    3.09
  -2  -4  17   15.91    3.56
  -1  -5 -17   22.12    3.90
   1   5 -17   13.64    2.96
   1  -5  17   17.27    3.97
  -1   5  17   15.25    3.58
  -1   5 -17   15.62    3.34
   1  -5 -17   11.31    3.04
   1   5  17   16.71    3.47
  -1  -5  17    8.11    2.71
   0  -6 -17    9.31    2.88
   0   6  17    8.29    2.68
   0   6 -17   14.04    3.51
   0  -6  17    7.49    2.70
  -2   6  17   15.23    3.70
   2   6 -17    6.49    2.38
   2  -6  17   13.89    3.75
  -2  -6 -17   10.17    3.14
   2  -6 -17    5.82    2.61
   2   6  17   11.01    3.19
  -2   6 -17   11.60    3.29
  -2  -6  17   10.06    3.41
   1  -7  17    7.29    2.77
   1   7 -17   16.37    3.60
  -1   7  17    7.66    2.80
  -1  -7 -17   10.48    2.94
  -1   7 -17   14.29    3.42
   1  -7 -17    6.27    2.54
   1   7  17   12.44    2.95
  -1  -7  17    7.57    2.68
   0  -8 -17    0.61    1.98
   0   8  17   -0.15    1.76
   0  -8  17    0.57    1.92
   0   8 -17    3.78    2.38
   1  -9  17   31.98    5.26
   0   0 -18   10.36    2.71
   0   0  18    8.70    2.95
   0   0 -18    8.58    2.60
  -2   0  18    8.84    2.97
  -1   1  18   51.87    6.79
   1  -1  18   50.80    6.46
   1   1 -18   49.99    5.60
  -1  -1 -18   42.33    5.30
  -1  -1  18   50.46    6.16
  -1   1 -18   47.61    5.64
   1  -1 -18   53.34    5.86
  -1   1 -18   40.28    5.28
   1   1  18   56.23    6.06
   1   1  18   48.29    6.15
   0  -2 -18    4.62    2.28
   0  -2  18    5.07    2.70
   0   2  18    2.73    2.05
   0   2 -18    6.61    2.48
   0   2 -18    6.97    2.60
   1   3 -18   36.21    4.54
   1  -3  18   21.29    4.48
  -1  -3 -18   37.18    5.20
  -1   3  18   34.30    5.28
  -1   3 -18   30.92    4.32
  -1  -3  18   33.92    5.34
  -1   3 -18   35.68    4.99
   1   3  18   32.95    4.58
   1   3  18   36.89    5.36
   1  -3 -18   32.63    4.84
   0  -4  18   13.82    3.57
   0   4 -18   22.11    3.79
   0   4  18   19.62    4.10
   0   4 -18   13.39    3.30
   0  -4 -18   16.76    3.56
  -1   5  18   40.61    5.79
  -1  -5 -18   34.45    5.15
   1  -5  18   43.29    6.56
   1   5 -18   36.86    4.58
  -1  -5  18   24.95    4.73
  -1   5 -18   38.70    5.24
   1   5  18   32.31    4.54
   1  -5 -18   35.09    4.89
   0  -6  18   32.98    5.95
   0   6 -18   26.33    4.57
   0   6  18   30.74    4.92
   0  -6 -18   28.18    4.65
   0   0   0    0.00    0.00
;
_shelx_hkl_checksum              27346
loop_
_space_group_symop_operation_xyz
'x, y, z'
'-x, -y, z+1/2'
'-x, y, -z+1/2'
'x, -y, -z'
'x+1/2, y+1/2, z'
'-x+1/2, -y+1/2, z+1/2'
'-x+1/2, y+1/2, -z+1/2'
'x+1/2, -y+1/2, -z'
'-x, -y, -z'
'x, y, -z-1/2'
'x, -y, z-1/2'
'-x, y, z'
'-x+1/2, -y+1/2, -z'
'x+1/2, y+1/2, -z-1/2'
'x+1/2, -y+1/2, z-1/2'
'-x+1/2, y+1/2, z'
loop_
_atom_site_label
_atom_site_type_symbol
_atom_site_fract_x
_atom_site_fract_y
_atom_site_fract_z
_atom_site_U_iso_or_equiv
_atom_site_adp_type
_atom_site_occupancy
_atom_site_site_symmetry_order
_atom_site_calc_flag
_atom_site_refinement_flags_posn
_atom_site_refinement_flags_adp
_atom_site_refinement_flags_occupancy
K1 K 0.0000 0.82448(11) 0.2500 0.0149(3) Uani 1 4 d S T P
Mg1 Mg 0.0000 0.17988(10) 0.05548(12) 0.0081(3) Uani 1 2 d S T P
Mg2 Mg 0.0000 0.53551(10) 0.12766(12) 0.0083(3) Uani 1 2 d S T P
Sb1 Sb 0.0000 0.36512(2) 0.05436(2) 0.00625(9) Uani 1 2 d S T P
Sb2 Sb 0.0000 0.08984(3) 0.2500 0.00655(11) Uani 1 4 d S T P
loop_
_atom_site_aniso_label
_atom_site_aniso_U_11
_atom_site_aniso_U_22
_atom_site_aniso_U_33
_atom_site_aniso_U_23
_atom_site_aniso_U_13
_atom_site_aniso_U_12
K1 0.0103(7) 0.0252(8) 0.0093(7) 0.000 0.000 0.000
Mg1 0.0081(7) 0.0080(7) 0.0083(8) 0.0010(6) 0.000 0.000
Mg2 0.0106(8) 0.0080(8) 0.0063(8) -0.0009(6) 0.000 0.000
Sb1 0.00664(15) 0.00623(15) 0.00589(15) -0.00020(11) 0.000 0.000
Sb2 0.0062(2) 0.0084(2) 0.0050(2) 0.000 0.000 0.000
loop_
_atom_type_symbol
_atom_type_description
_atom_type_scat_dispersion_real
_atom_type_scat_dispersion_imag
_atom_type_scat_source
Mg Mg 0.0486 0.0363 'International Tables Vol C Tables 4.2.6.8 and 6.1.1.4'
K K 0.2009 0.2494 'International Tables Vol C Tables 4.2.6.8 and 6.1.1.4'
Sb Sb -0.5866 1.5461 'International Tables Vol C Tables 4.2.6.8 and 6.1.1.4'
loop_
_geom_angle_atom_site_label_1
_geom_angle_atom_site_label_2
_geom_angle_atom_site_label_3
_geom_angle
_geom_angle_site_symmetry_1
_geom_angle_site_symmetry_3
Sb1 K1 Sb1 159.60(5) 14_556 5_455
Sb1 K1 Sb1 82.705(15) 14_556 14_456
Sb1 K1 Sb1 93.684(16) 5_455 14_456
Sb1 K1 Sb1 93.684(16) 14_556 5
Sb1 K1 Sb1 82.705(15) 5_455 5
Sb1 K1 Sb1 159.60(5) 14_456 5
Sb1 K1 Mg1 43.413(9) 14_556 2_565
Sb1 K1 Mg1 137.082(13) 5_455 2_565
Sb1 K1 Mg1 43.413(9) 14_456 2_565
Sb1 K1 Mg1 137.082(13) 5 2_565
Sb1 K1 Mg1 137.082(13) 14_556 9_565
Sb1 K1 Mg1 43.413(9) 5_455 9_565
Sb1 K1 Mg1 137.082(13) 14_456 9_565
Sb1 K1 Mg1 43.413(9) 5 9_565
Mg1 K1 Mg1 178.09(6) 2_565 9_565
Sb1 K1 Sb2 79.80(3) 14_556 1_565
Sb1 K1 Sb2 79.80(3) 5_455 1_565
Sb1 K1 Sb2 79.80(3) 14_456 1_565
Sb1 K1 Sb2 79.80(3) 5 1_565
Mg1 K1 Sb2 90.96(3) 2_565 1_565
Mg1 K1 Sb2 90.96(3) 9_565 1_565
Sb1 K1 Mg1 157.49(5) 14_556 5_455
Sb1 K1 Mg1 42.91(2) 5_455 5_455
Sb1 K1 Mg1 100.08(2) 14_456 5_455
Sb1 K1 Mg1 90.93(2) 5 5_455
Mg1 K1 Mg1 127.80(3) 2_565 5_455
Mg1 K1 Mg1 50.88(3) 9_565 5_455
Sb2 K1 Mg1 122.71(3) 1_565 5_455
Sb1 K1 Mg1 90.93(2) 14_556 14_456
Sb1 K1 Mg1 100.08(2) 5_455 14_456
Sb1 K1 Mg1 42.91(2) 14_456 14_456
Sb1 K1 Mg1 157.49(5) 5 14_456
Mg1 K1 Mg1 50.88(3) 2_565 14_456
Mg1 K1 Mg1 127.80(3) 9_565 14_456
Sb2 K1 Mg1 122.71(3) 1_565 14_456
Mg1 K1 Mg1 76.93(5) 5_455 14_456
Sb1 K1 Mg1 42.91(2) 14_556 14_556
Sb1 K1 Mg1 157.49(5) 5_455 14_556
Sb1 K1 Mg1 90.93(2) 14_456 14_556
Sb1 K1 Mg1 100.08(2) 5 14_556
Mg1 K1 Mg1 50.88(3) 2_565 14_556
Mg1 K1 Mg1 127.80(3) 9_565 14_556
Sb2 K1 Mg1 122.71(3) 1_565 14_556
Mg1 K1 Mg1 114.58(6) 5_455 14_556
Mg1 K1 Mg1 69.03(3) 14_456 14_556
Sb1 K1 Mg1 100.08(2) 14_556 5
Sb1 K1 Mg1 90.93(2) 5_455 5
Sb1 K1 Mg1 157.49(5) 14_456 5
Sb1 K1 Mg1 42.91(2) 5 5
Mg1 K1 Mg1 127.80(3) 2_565 5
Mg1 K1 Mg1 50.88(3) 9_565 5
Sb2 K1 Mg1 122.71(3) 1_565 5
Mg1 K1 Mg1 69.03(3) 5_455 5
Mg1 K1 Mg1 114.58(6) 14_456 5
Mg1 K1 Mg1 76.93(5) 14_556 5
Sb1 K1 Mg2 40.22(2) 14_556 14_556
Sb1 K1 Mg2 119.79(4) 5_455 14_556
Sb1 K1 Mg2 87.23(3) 14_456 14_556
Sb1 K1 Mg2 77.39(3) 5 14_556
Mg1 K1 Mg2 68.84(3) 2_565 14_556
Mg1 K1 Mg2 112.72(4) 9_565 14_556
Sb2 K1 Mg2 41.12(2) 1_565 14_556
Mg1 K1 Mg2 161.12(4) 5_455 14_556
Mg1 K1 Mg2 118.77(3) 14_456 14_556
Mg1 K1 Mg2 82.42(3) 14_556 14_556
Mg1 K1 Mg2 109.44(2) 5 14_556
Sb1 Mg1 Sb1 111.00(6) 13_455 13
Sb1 Mg1 Sb1 104.00(4) 13_455 .
Sb1 Mg1 Sb1 104.00(4) 13 .
Sb1 Mg1 Sb2 109.45(4) 13_455 .
Sb1 Mg1 Sb2 109.45(4) 13 .
Sb1 Mg1 Sb2 118.71(6) . .
Sb1 Mg1 Mg2 53.87(3) 13_455 5_445
Sb1 Mg1 Mg2 123.72(6) 13 5_445
Sb1 Mg1 Mg2 131.52(4) . 5_445
Sb2 Mg1 Mg2 55.70(3) . 5_445
Sb1 Mg1 Mg2 123.72(6) 13_455 5_545
Sb1 Mg1 Mg2 53.87(3) 13 5_545
Sb1 Mg1 Mg2 131.52(4) . 5_545
Sb2 Mg1 Mg2 55.70(3) . 5_545
Mg2 Mg1 Mg2 87.99(5) 5_445 5_545
Sb1 Mg1 Mg1 119.16(7) 13_455 13
Sb1 Mg1 Mg1 52.25(3) 13 13
Sb1 Mg1 Mg1 51.75(4) . 13
Sb2 Mg1 Mg1 131.37(5) . 13
Mg2 Mg1 Mg1 171.71(8) 5_445 13
Mg2 Mg1 Mg1 93.61(3) 5_545 13
Sb1 Mg1 Mg1 52.25(3) 13_455 13_455
Sb1 Mg1 Mg1 119.16(7) 13 13_455
Sb1 Mg1 Mg1 51.75(4) . 13_455
Sb2 Mg1 Mg1 131.37(5) . 13_455
Mg2 Mg1 Mg1 93.61(3) 5_445 13_455
Mg2 Mg1 Mg1 171.71(8) 5_545 13_455
Mg1 Mg1 Mg1 83.67(7) 13 13_455
Sb1 Mg1 K1 59.01(3) 13_455 9_565
Sb1 Mg1 K1 59.01(3) 13 9_565
Sb1 Mg1 K1 90.66(4) . 9_565
Sb2 Mg1 K1 150.63(5) . 9_565
Mg2 Mg1 K1 105.78(5) 5_445 9_565
Mg2 Mg1 K1 105.78(5) 5_545 9_565
Mg1 Mg1 K1 65.96(5) 13 9_565
Mg1 Mg1 K1 65.96(5) 13_455 9_565
Sb1 Mg1 K1 156.48(5) 13_455 5_545
Sb1 Mg1 K1 89.026(19) 13 5_545
Sb1 Mg1 K1 57.51(3) . 5_545
Sb2 Mg1 K1 73.14(3) . 5_545
Mg2 Mg1 K1 125.10(5) 5_445 5_545
Mg2 Mg1 K1 77.75(4) 5_545 5_545
Mg1 Mg1 K1 63.16(4) 13 5_545
Mg1 Mg1 K1 107.72(7) 13_455 5_545
K1 Mg1 K1 129.12(3) 9_565 5_545
Sb1 Mg1 K1 89.026(19) 13_455 5_445
Sb1 Mg1 K1 156.48(5) 13 5_445
Sb1 Mg1 K1 57.51(3) . 5_445
Sb2 Mg1 K1 73.14(3) . 5_445
Mg2 Mg1 K1 77.75(4) 5_445 5_445
Mg2 Mg1 K1 125.10(5) 5_545 5_445
Mg1 Mg1 K1 107.72(7) 13 5_445
Mg1 Mg1 K1 63.16(4) 13_455 5_445
K1 Mg1 K1 129.12(3) 9_565 5_445
K1 Mg1 K1 69.03(3) 5_545 5_445
Sb1 Mg2 Sb1 102.34(5) . 9_565
Sb1 Mg2 Sb2 116.98(4) . 5
Sb1 Mg2 Sb2 107.89(4) 9_565 5
Sb1 Mg2 Sb2 116.98(4) . 5_455
Sb1 Mg2 Sb2 107.89(4) 9_565 5_455
Sb2 Mg2 Sb2 104.24(5) 5 5_455
Sb1 Mg2 Mg2 110.21(3) . 10_556
Sb1 Mg2 Mg2 147.46(3) 9_565 10_556
Sb2 Mg2 Mg2 56.98(3) 5 10_556
Sb2 Mg2 Mg2 56.98(3) 5_455 10_556
Sb1 Mg2 Mg1 121.53(4) . 5
Sb1 Mg2 Mg1 53.54(3) 9_565 5
Sb2 Mg2 Mg1 54.47(3) 5 5
Sb2 Mg2 Mg1 121.02(6) 5_455 5
Mg2 Mg2 Mg1 106.44(4) 10_556 5
Sb1 Mg2 Mg1 121.53(4) . 5_455
Sb1 Mg2 Mg1 53.54(3) 9_565 5_455
Sb2 Mg2 Mg1 121.02(6) 5 5_455
Sb2 Mg2 Mg1 54.47(3) 5_455 5_455
Mg2 Mg2 Mg1 106.44(4) 10_556 5_455
Mg1 Mg2 Mg1 87.99(5) 5 5_455
Sb1 Mg2 Mg2 51.79(4) . 9_565
Sb1 Mg2 Mg2 50.55(4) 9_565 9_565
Sb2 Mg2 Mg2 127.28(3) 5 9_565
Sb2 Mg2 Mg2 127.28(3) 5_455 9_565
Mg2 Mg2 Mg2 161.99(5) 10_556 9_565
Mg1 Mg2 Mg2 86.30(5) 5 9_565
Mg1 Mg2 Mg2 86.30(5) 5_455 9_565
Sb1 Mg2 K1 54.70(3) . 5_445
Sb1 Mg2 K1 136.07(3) 9_565 5_445
Sb2 Mg2 K1 115.89(5) 5 5_445
Sb2 Mg2 K1 65.31(3) 5_455 5_445
Mg2 Mg2 K1 68.06(2) 10_556 5_445
Mg1 Mg2 K1 168.49(4) 5 5_445
Mg1 Mg2 K1 103.18(3) 5_455 5_445
Mg2 Mg2 K1 97.04(5) 9_565 5_445
Sb1 Mg2 K1 54.70(3) . 5_545
Sb1 Mg2 K1 136.07(3) 9_565 5_545
Sb2 Mg2 K1 65.31(3) 5 5_545
Sb2 Mg2 K1 115.89(5) 5_455 5_545
Mg2 Mg2 K1 68.06(2) 10_556 5_545
Mg1 Mg2 K1 103.18(3) 5 5_545
Mg1 Mg2 K1 168.49(4) 5_455 5_545
Mg2 Mg2 K1 97.04(5) 9_565 5_545
K1 Mg2 K1 65.53(3) 5_445 5_545
Mg2 Sb1 Mg1 113.95(3) . 13_455
Mg2 Sb1 Mg1 113.95(3) . 13
Mg1 Sb1 Mg1 111.00(6) 13_455 13
Mg2 Sb1 Mg2 77.66(5) . 9_565
Mg1 Sb1 Mg2 72.60(4) 13_455 9_565
Mg1 Sb1 Mg2 72.60(4) 13 9_565
Mg2 Sb1 Mg1 159.50(5) . .
Mg1 Sb1 Mg1 76.00(4) 13_455 .
Mg1 Sb1 Mg1 76.00(4) 13 .
Mg2 Sb1 Mg1 122.84(5) 9_565 .
Mg2 Sb1 K1 85.08(4) . 5_545
Mg1 Sb1 K1 150.91(4) 13_455 5_545
Mg1 Sb1 K1 77.58(3) 13 5_545
Mg2 Sb1 K1 135.25(2) 9_565 5_545
Mg1 Sb1 K1 79.58(4) . 5_545
Mg2 Sb1 K1 85.08(4) . 5_445
Mg1 Sb1 K1 77.58(3) 13_455 5_445
Mg1 Sb1 K1 150.91(4) 13 5_445
Mg2 Sb1 K1 135.25(2) 9_565 5_445
Mg1 Sb1 K1 79.58(4) . 5_445
K1 Sb1 K1 82.705(14) 5_545 5_445
Mg1 Sb2 Mg1 123.18(6) 10_556 .
Mg1 Sb2 Mg2 127.87(3) 10_556 5_445
Mg1 Sb2 Mg2 69.84(3) . 5_445
Mg1 Sb2 Mg2 69.84(3) 10_556 14_546
Mg1 Sb2 Mg2 127.87(3) . 14_546
Mg2 Sb2 Mg2 147.13(6) 5_445 14_546
Mg1 Sb2 Mg2 69.84(3) 10_556 14_446
Mg1 Sb2 Mg2 127.87(3) . 14_446
Mg2 Sb2 Mg2 66.04(5) 5_445 14_446
Mg2 Sb2 Mg2 104.24(5) 14_546 14_446
Mg1 Sb2 Mg2 127.87(3) 10_556 5_545
Mg1 Sb2 Mg2 69.84(3) . 5_545
Mg2 Sb2 Mg2 104.24(5) 5_445 5_545
Mg2 Sb2 Mg2 66.04(5) 14_546 5_545
Mg2 Sb2 Mg2 147.13(6) 14_446 5_545
Mg1 Sb2 K1 118.41(3) 10_556 1_545
Mg1 Sb2 K1 118.41(3) . 1_545
Mg2 Sb2 K1 73.57(3) 5_445 1_545
Mg2 Sb2 K1 73.57(3) 14_546 1_545
Mg2 Sb2 K1 73.57(3) 14_446 1_545
Mg2 Sb2 K1 73.57(3) 5_545 1_545
loop_
_geom_bond_atom_site_label_1
_geom_bond_atom_site_label_2
_geom_bond_distance
_geom_bond_site_symmetry_2
K1 Sb1 3.5298(5) 14_556
K1 Sb1 3.5298(5) 5_455
K1 Sb1 3.5298(5) 14_456
K1 Sb1 3.5298(5) 5
K1 Mg1 4.0211(17) 2_565
K1 Mg1 4.0211(17) 9_565
K1 Sb2 4.0820(18) 1_565
K1 Mg1 4.1159(17) 5_455
K1 Mg1 4.1159(17) 14_456
K1 Mg1 4.1159(17) 14_556
K1 Mg1 4.1159(17) 5
K1 Mg2 4.3091(18) 14_556
Mg1 Sb1 2.8298(10) 13_455
Mg1 Sb1 2.8298(10) 13
Mg1 Sb1 2.8494(16) .
Mg1 Sb2 2.9108(16) .
Mg1 Mg2 3.3576(16) 5_445
Mg1 Mg2 3.3576(16) 5_545
Mg1 Mg1 3.496(2) 13
Mg1 Mg1 3.496(2) 13_455
Mg1 K1 4.0211(17) 9_565
Mg1 K1 4.1159(17) 5_545
Mg1 K1 4.1159(17) 5_445
Mg2 Sb1 2.7929(16) .
Mg2 Sb1 2.8418(17) 9_565
Mg2 Sb2 2.9547(10) 5
Mg2 Sb2 2.9547(10) 5_455
Mg2 Mg2 3.220(3) 10_556
Mg2 Mg1 3.3575(16) 5
Mg2 Mg1 3.3575(16) 5_455
Mg2 Mg2 3.533(3) 9_565
Mg2 K1 4.3091(18) 5_445
Mg2 K1 4.3091(18) 5_545
Sb1 Mg1 2.8298(10) 13_455
Sb1 Mg1 2.8298(10) 13
Sb1 Mg2 2.8418(17) 9_565
Sb1 K1 3.5298(5) 5_545
Sb1 K1 3.5298(5) 5_445
Sb2 Mg1 2.9108(16) 10_556
Sb2 Mg2 2.9546(10) 5_445
Sb2 Mg2 2.9546(10) 14_546
Sb2 Mg2 2.9546(10) 14_446
Sb2 Mg2 2.9546(10) 5_545
Sb2 K1 4.0819(18) 1_545
