#------------------------------------------------------------------------------
#$Date: 2019-11-24 11:22:03 +0200 (Sun, 24 Nov 2019) $
#$Revision: 237781 $
#$URL: file:///home/coder/svn-repositories/cod/cif/7/23/75/7237573.cif $
#------------------------------------------------------------------------------
#
# This file is available in the Crystallography Open Database (COD),
# http://www.crystallography.net/
#
# All data on this site have been placed in the public domain by the
# contributors.
#
data_7237573
loop_
_publ_author_name
'Sun, Tiancheng'
'Wang, Ping'
'Fan, Ruiqing'
'Chen, Wei'
'Hao, Sue'
'Yang, Yulin'
_publ_section_title
;
 Functional microscale single-phase white emission lanthanide MOF for
 tunable fluorescent sensing and water quality monitoring
;
_journal_issue                   12
_journal_name_full               'Journal of Materials Chemistry C'
_journal_page_first              3598
_journal_paper_doi               10.1039/C8TC05968C
_journal_volume                  7
_journal_year                    2019
_chemical_formula_sum            'C14 H12 Dy N O10'
_chemical_formula_weight         516.75
_space_group_crystal_system      triclinic
_space_group_IT_number           2
_space_group_name_Hall           '-P 1'
_space_group_name_H-M_alt        'P -1'
_atom_sites_solution_hydrogens   mixed
_audit_creation_method           SHELXL-2014/7
_audit_update_record
;
2018-10-12 deposited with the CCDC.	2019-02-19 downloaded from the CCDC.
;
_cell_angle_alpha                110.040(2)
_cell_angle_beta                 94.431(2)
_cell_angle_gamma                103.214(2)
_cell_formula_units_Z            2
_cell_length_a                   5.9552(10)
_cell_length_b                   11.780(2)
_cell_length_c                   12.542(2)
_cell_measurement_reflns_used    2755
_cell_measurement_temperature    293(2)
_cell_measurement_theta_max      24.997
_cell_measurement_theta_min      2.983
_cell_volume                     793.0(2)
_computing_structure_refinement  'SHELXL-2014/7 (Sheldrick, 2014)'
_diffrn_ambient_temperature      293(2)
_diffrn_measured_fraction_theta_full 0.992
_diffrn_measured_fraction_theta_max 0.992
_diffrn_measurement_device_type  'Bruker Smart APEX CCD area detector'
_diffrn_measurement_method       'phi and omega scans'
_diffrn_radiation_type           MoK\a
_diffrn_radiation_wavelength     0.71073
_diffrn_reflns_av_R_equivalents  0.0219
_diffrn_reflns_av_unetI/netI     0.0357
_diffrn_reflns_Laue_measured_fraction_full 0.992
_diffrn_reflns_Laue_measured_fraction_max 0.992
_diffrn_reflns_limit_h_max       7
_diffrn_reflns_limit_h_min       -7
_diffrn_reflns_limit_k_max       13
_diffrn_reflns_limit_k_min       -13
_diffrn_reflns_limit_l_max       14
_diffrn_reflns_limit_l_min       -11
_diffrn_reflns_number            5387
_diffrn_reflns_point_group_measured_fraction_full 0.992
_diffrn_reflns_point_group_measured_fraction_max 0.992
_diffrn_reflns_theta_full        24.993
_diffrn_reflns_theta_max         24.993
_diffrn_reflns_theta_min         1.754
_diffrn_source                   'fine-focus sealed tube'
_exptl_absorpt_coefficient_mu    4.770
_exptl_absorpt_correction_T_max  0.403
_exptl_absorpt_correction_T_min  0.379
_exptl_absorpt_correction_type   multi-scan
_exptl_absorpt_process_details   '(SADABS; Sheldrick, 2003)'
_exptl_crystal_colour            colorless
_exptl_crystal_density_diffrn    2.164
_exptl_crystal_description       flake
_exptl_crystal_F_000             498
_exptl_crystal_size_max          0.280
_exptl_crystal_size_mid          0.260
_exptl_crystal_size_min          0.220
_refine_diff_density_max         0.947
_refine_diff_density_min         -1.056
_refine_diff_density_rms         0.325
_refine_ls_extinction_method     none
_refine_ls_goodness_of_fit_ref   0.831
_refine_ls_hydrogen_treatment    constr
_refine_ls_matrix_type           full
_refine_ls_number_parameters     277
_refine_ls_number_reflns         2755
_refine_ls_number_restraints     0
_refine_ls_restrained_S_all      0.831
_refine_ls_R_factor_all          0.0363
_refine_ls_R_factor_gt           0.0277
_refine_ls_shift/su_max          0.002
_refine_ls_shift/su_mean         0.000
_refine_ls_structure_factor_coef Fsqd
_refine_ls_weighting_details
'w=1/[\s^2^(Fo^2^)+(0.1000P)^2^] where P=(Fo^2^+2Fc^2^)/3'
_refine_ls_weighting_scheme      calc
_refine_ls_wR_factor_gt          0.0799
_refine_ls_wR_factor_ref         0.0994
_reflns_Friedel_coverage         0.000
_reflns_number_gt                2459
_reflns_number_total             2755
_reflns_threshold_expression     'I > 2\s(I)'
_cod_data_source_file            c8tc05968c2.cif
_cod_data_source_block           1_CCDC1
_cod_database_code               7237573
_shelx_shelxl_version_number     2014/7
_shelx_space_group_comment
;
The symmetry employed for this shelxl refinement is uniquely defined
by the following loop, which should always be used as a source of
symmetry information in preference to the above space-group names.
They are only intended as comments.
;
_shelx_estimated_absorpt_t_min   0.349
_shelx_estimated_absorpt_t_max   0.420
_shelx_res_file
;

    1.res created by SHELXL-2014/7

TITL 1 in P-1
CELL 0.71073 5.9552 11.78 12.542 110.04 94.431 103.214
ZERR 2 0.001 0.002 0.002 0.002 0.002 0.002
LATT 1
SFAC C H Dy N O
UNIT 28 24 2 2 20

L.S. 5
PLAN  -20
SIZE 0.28 0.26 0.22
BOND $H
CONF
fmap 2
acta
OMIT 0 50

WGHT    0.100000
FVAR       0.13365   0.56934
DY1   3    1.122819    1.114893    0.404176    11.00000    0.02354    0.02883 =
         0.02510    0.01147    0.00757    0.00143
O1W   5    0.748066    0.992508    0.310331    11.00000    0.02811    0.04832 =
         0.03953    0.01901    0.01135    0.00048
AFIX   7
H1WA  2    0.666225    0.978399    0.359421    11.00000   -1.50000
H1WB  2    0.756306    0.923117    0.261742    11.00000   -1.50000
AFIX   0
O2    5    0.434117    0.205826    0.320098    11.00000    0.03221    0.05769 =
         0.03409    0.02380    0.00314   -0.00474
O2W   5    0.917685    1.264691    0.399181    11.00000    0.04305    0.04089 =
         0.07820    0.01511   -0.00363    0.01068
AFIX   7
H2WA  2    0.915877    1.316958    0.469751    11.00000   -1.50000
H2WB  2    0.769537    1.227071    0.364947    11.00000   -1.50000
AFIX   0
O3    5    0.104755    0.094709    0.199940    11.00000    0.03183    0.06241 =
         0.03875    0.02602    0.00747   -0.00361
O4    5    1.063302    0.895916    0.440909    11.00000    0.03096    0.03843 =
         0.03038    0.00496    0.01201    0.00310
O5    5    1.241706    0.929704    0.304297    11.00000    0.04571    0.03189 =
         0.03245    0.01500    0.01180    0.00479
O6    5    1.543105    0.854338    0.459853    11.00000    0.03077    0.02276 =
         0.03734    0.00653    0.00006    0.00111
O7    5    1.644691    0.684421    0.446116    11.00000    0.04856    0.03420 =
         0.06329    0.01401    0.00479    0.01600
N16   4    0.421838    0.129764   -0.078446    11.00000    0.12934    0.06207 =
         0.03474   -0.00770    0.03241   -0.04980
PART 1
O1    5    0.762512    0.448487    0.056603    21.00000    0.04910    0.04232 =
         0.02662    0.01474   -0.01365   -0.01767
C1    1    0.540649    0.246804   -0.062920    21.00000    0.03505    0.05452 =
         0.02227    0.00676    0.00280   -0.01978
AFIX  43
H1    2    0.563160    0.270500   -0.125665    21.00000   -1.20000
AFIX   0
C2    1    0.628937    0.331488    0.047535    21.00000    0.03087    0.03306 =
         0.02239    0.00922   -0.00116   -0.00562
C3    1    0.559822    0.300704    0.138377    21.00000    0.04066    0.03280 =
         0.02278    0.00834    0.00080    0.00268
AFIX  43
H3    2    0.608382    0.361106    0.212482    21.00000   -1.20000
AFIX   0
PART 0
PART 2
O1A   5    1.019186    0.346539    0.090177   -21.00000    0.04226    0.01552 =
         0.04459   -0.00120    0.01836   -0.00552
C2A   1    0.790716    0.270933    0.069440   -21.00000    0.03838    0.01995 =
         0.02858    0.00720    0.00725    0.00022
C1A   1    0.687906    0.198592   -0.044213   -21.00000    0.03025    0.03588 =
         0.02921   -0.00028   -0.00037   -0.01023
AFIX  43
H1A   2    0.780420    0.191070   -0.101359   -21.00000   -1.20000
AFIX   0
C3A   1    0.669666    0.263169    0.156669   -21.00000    0.03475    0.03409 =
         0.01549    0.00647   -0.00205   -0.01901
AFIX  43
H3A   2    0.739700    0.305532    0.233510   -21.00000   -1.20000
AFIX   0
PART 0
C4    1    0.422227    0.184529    0.123959    11.00000    0.04953    0.03459 =
         0.03804    0.00703    0.01804   -0.01095
C5    1    0.330598    0.111261    0.008967    11.00000    0.06240    0.04116 =
         0.03460    0.01190    0.01325   -0.01727
AFIX  43
H5    2    0.196814    0.045134   -0.007458    11.00000   -1.20000
AFIX   0
C6    1    0.919838    0.522678    0.148520    11.00000    0.06661    0.04207 =
         0.03054   -0.00222    0.01512   -0.03167
PART 2
AFIX  43
H6    2    0.789490    0.475631    0.091685   -21.00000   -1.20000
AFIX   0
PART 0
C7    1    0.946388    0.649478    0.206390    11.00000    0.03993    0.04611 =
         0.02837    0.01083    0.00365   -0.00779
AFIX  43
H7    2    0.837889    0.687388    0.186230    11.00000   -1.20000
AFIX   0
C8    1    1.134723    0.719990    0.294414    11.00000    0.02916    0.03088 =
         0.02186    0.00729    0.01149   -0.00318
C9    1    1.298826    0.663076    0.322065    11.00000    0.03127    0.02169 =
         0.03476    0.00334    0.01221   -0.00264
C10   1    1.268843    0.534234    0.261167    11.00000    0.05140    0.02489 =
         0.07154    0.00327    0.02025    0.00249
AFIX  43
H10   2    1.376168    0.495079    0.280200    11.00000   -1.20000
AFIX   0
C11   1    1.079713    0.465213    0.172745    11.00000    0.07078    0.02782 =
         0.05823   -0.00838    0.03490   -0.01580
PART 1
AFIX  43
H11   2    1.062684    0.380734    0.130643    21.00000   -1.20000
AFIX   0
PART 0
C12   1    0.312991    0.158321    0.218402    11.00000    0.03709    0.03474 =
         0.02908    0.01770    0.01203    0.00347
C13   1    1.152216    0.856491    0.351447    11.00000    0.01866    0.02946 =
         0.02183    0.00449    0.00159    0.00138
C14   1    1.509215    0.737307    0.414894    11.00000    0.02772    0.03165 =
         0.03687    0.01210    0.01701    0.00524

AFIX   6
O3W   5    0.241750    0.517886    0.539968    11.00000    0.27904    0.09798 =
         0.22853    0.06350    0.02607    0.07227
H3WA  2    0.277756    0.450602    0.504658    11.00000   -1.50000
H3WB  2    0.204918    0.517375    0.603956    11.00000   -1.50000
AFIX   0
HKLF 4

REM  1 in P-1
REM R1 =  0.0277 for    2459 Fo > 4sig(Fo)  and  0.0363 for all    2755 data
REM    277 parameters refined using      0 restraints

END

WGHT      0.0581      0.0000

REM Highest difference peak  0.947,  deepest hole -1.056,  1-sigma level  0.325
Q1    1   0.6762  0.5455  0.0164  11.00000  0.05    0.91
Q2    1   0.4781  0.4105 -0.0175  11.00000  0.05    0.86
Q3    1   1.0048  0.5026  0.1593  11.00000  0.05    0.78
Q4    1   0.8772  0.4177  0.0779  11.00000  0.05    0.76
Q5    1   0.9958  0.4081  0.1139  11.00000  0.05    0.75
Q6    1   1.0490  0.4019  0.0332  11.00000  0.05    0.75
Q7    1   0.6341  0.4248 -0.0039  11.00000  0.05    0.75
Q8    1   0.5487  0.3916  0.0666  11.00000  0.05    0.75
Q9    1   0.8505  0.5034 -0.0222  11.00000  0.05    0.74
Q10   1   0.8054  0.3691  0.0337  11.00000  0.05    0.73
Q11   1   0.5019  0.5108  0.0409  11.00000  0.05    0.73
Q12   1   0.7373  0.3865  0.0579  11.00000  0.05    0.73
Q13   1   0.9023  0.5369  0.1010  11.00000  0.05    0.73
Q14   1   1.1839  1.2015  0.4380  11.00000  0.05    0.72
Q15   1   1.2232  0.4736  0.1590  11.00000  0.05    0.71
Q16   1   1.0760  0.4579  0.2178  11.00000  0.05    0.70
Q17   1   0.9441  0.5959  0.1736  11.00000  0.05    0.69
Q18   1   1.0000  0.5000  0.0000  10.50000  0.05    0.67
Q19   1   0.5954  0.3472 -0.0185  11.00000  0.05    0.67
Q20   1   0.6398  0.4006 -0.0906  11.00000  0.05    0.67
;
_shelx_res_checksum              6463
_shelx_hkl_file
;
  -1   0   0  115.66    2.52
   1   0   0  115.08    2.52
   1   0   0  118.92    2.52
  -2   0   0    0.50    0.23
   2   0   0    0.49    0.23
   2   0   0    0.21    0.22
  -3   0   0   58.99    1.69
   3   0   0   57.80    1.68
   3   0   0   59.01    1.66
  -4   0   0   87.02    2.50
   4   0   0   86.99    2.40
  -5   0   0   56.05    2.11
   5   0   0   54.30    1.94
  -6   0   0    0.19    0.91
   6   0   0    2.86    0.79
  -7   0   0    7.42    1.49
   7   0   0    6.40    1.03
   7  -1   0    0.36    0.72
  -7   1   0   -1.44    1.00
   6  -1   0   22.88    1.46
  -6   1   0   20.40    1.60
   5  -1   0   55.67    1.97
  -5   1   0   58.30    2.10
   4  -1   0   55.51    1.82
   4  -1   0   57.46    1.78
  -4   1   0   56.77    1.83
   3  -1   0    0.33    0.30
   3  -1   0    0.15    0.31
  -3   1   0    0.76    0.20
  -3   1   0    0.40    0.30
   2  -1   0   18.79    0.69
   2  -1   0   18.35    0.66
  -2   1   0   18.73    0.55
  -2   1   0   18.75    0.66
   1  -1   0  140.07    2.98
   1  -1   0  138.13    2.95
  -1   1   0  138.63    2.93
   0  -1   0   -0.03    0.02
   0   1   0    0.00    0.03
  -1  -1   0   -0.12    0.13
   1   1   0    0.10    0.14
   1   1   0    0.02    0.15
   1   1   0   -0.04    0.08
  -2  -1   0   18.64    0.70
   2   1   0   17.32    0.69
   2   1   0   17.15    0.68
  -3  -1   0  242.52    5.46
   3   1   0  237.99    5.37
  -4  -1   0   42.94    1.62
   4   1   0   44.43    1.55
  -5  -1   0    0.57    0.75
   5   1   0    4.12    0.73
  -6  -1   0    7.81    1.25
   6   1   0   10.06    1.07
   7   1   0   14.06    1.96
   7  -2   0   11.13    1.24
  -7   2   0   11.06    1.44
   6  -2   0   74.75    2.51
  -6   2   0   74.24    2.68
   5  -2   0   31.01    1.43
  -5   2   0   30.25    1.51
   4  -2   0    0.06    0.44
   4  -2   0    0.54    0.44
  -4   2   0    0.15    0.26
  -4   2   0   -0.32    0.41
   3  -2   0   79.18    2.11
   3  -2   0   81.96    2.09
  -3   2   0   82.33    1.92
  -3   2   0   82.82    2.10
   2  -2   0    6.46    0.39
   2  -2   0    7.00    0.50
  -2   2   0    6.56    0.39
  -2   2   0    6.48    0.39
   1  -2   0  504.67   10.52
   1  -2   0  487.29   10.43
  -1   2   0  520.68   10.42
   0  -2   0    2.21    0.14
   0   2   0    2.14    0.19
   0   2   0    2.37    0.25
  -1  -2   0   43.98    1.14
   1   2   0   46.21    1.19
   1   2   0   46.41    1.05
  -2  -2   0  176.58    3.96
   2   2   0  177.62    3.96
   2   2   0  171.71    3.68
  -3  -2   0   82.19    2.26
   3   2   0   83.98    2.22
  -4  -2   0    1.21    0.57
   4   2   0    1.49    0.50
  -5  -2   0   13.22    1.31
   5   2   0   14.04    1.12
  -6  -2   0   29.61    1.96
   6   2   0   30.21    1.64
   7  -3   0   23.62    1.63
  -7   3   0   25.79    1.89
   6  -3   0   27.81    1.54
  -6   3   0   26.59    1.69
   5  -3   0    0.88    0.60
  -5   3   0    1.70    0.71
   4  -3   0   47.18    1.57
   4  -3   0   49.22    1.64
  -4   3   0   47.93    1.58
  -4   3   0   46.83    1.38
   3  -3   0  270.64    6.08
   3  -3   0  278.10    6.17
  -3   3   0  288.45    6.03
  -3   3   0  281.35    6.10
   2  -3   0  118.81    2.82
   2  -3   0  118.22    2.70
  -2   3   0  127.69    2.77
   1  -3   0   32.94    0.80
   1  -3   0   32.02    0.93
  -1   3   0   32.96    0.91
   0  -3   0  145.80    3.12
   0   3   0  143.35    3.29
   0   3   0  152.68    3.21
  -1  -3   0  156.35    3.46
   1   3   0  156.31    3.55
   1   3   0  159.62    3.39
  -2  -3   0  181.68    4.12
   2   3   0  180.08    4.14
   2   3   0  181.77    3.87
  -3  -3   0   11.02    0.83
   3   3   0   10.74    0.77
  -4  -3   0   15.30    1.11
   4   3   0   13.41    1.01
  -5  -3   0   53.94    2.25
   5   3   0   52.73    2.00
  -6  -3   0   26.31    1.98
   6   3   0   26.79    1.59
   7  -4   0   17.13    1.47
  -7   4   0   11.99    1.37
   6  -4   0   -0.42    0.67
  -6   4   0    0.31    0.76
   5  -4   0    7.71    0.86
  -5   4   0    7.58    0.87
   4  -4   0  119.66    3.09
   4  -4   0  118.24    2.99
  -4   4   0  115.86    2.88
  -4   4   0  120.50    3.00
   3  -4   0   29.96    0.98
   3  -4   0   30.37    1.14
  -3   4   0   30.84    1.04
  -3   4   0   29.60    0.98
   2  -4   0    2.00    0.33
   2  -4   0    2.67    0.27
  -2   4   0    2.15    0.34
   1  -4   0   65.75    1.53
   1  -4   0   69.67    1.76
  -1   4   0   69.76    1.71
   0  -4   0  172.93    3.67
   0   4   0  177.19    3.79
   0   4   0  166.84    3.90
  -1  -4   0   98.59    2.32
   1   4   0   98.47    2.27
   1   4   0  100.18    2.46
  -2  -4   0   29.47    1.05
   2   4   0   29.21    0.84
   2   4   0   28.52    1.11
  -3  -4   0   26.17    1.19
   3   4   0   24.19    1.15
  -4  -4   0   57.17    2.09
   4   4   0   55.62    1.97
  -5  -4   0   39.22    2.06
   5   4   0   36.47    1.74
  -6  -4   0   -1.42    1.01
   6   4   0    2.38    0.85
   7  -5   0    0.93    0.78
  -7   5   0   -2.02    1.09
   6  -5   0    7.46    1.00
  -6   5   0    7.30    1.00
   5  -5   0   44.47    1.65
   5  -5   0   41.33    1.74
  -5   5   0   43.14    1.64
   4  -5   0   69.69    1.97
   4  -5   0   70.27    2.15
  -4   5   0   71.85    2.01
  -4   5   0   70.77    1.98
   3  -5   0    5.09    0.59
   3  -5   0    4.64    0.45
  -3   5   0    4.55    0.52
  -3   5   0    5.90    0.47
   2  -5   0   19.98    0.85
   2  -5   0   20.31    0.62
  -2   5   0   20.06    0.83
   1  -5   0  327.01    7.04
   1  -5   0  340.09    7.36
  -1   5   0  349.79    7.28
   0  -5   0  328.77    6.89
   0   5   0  328.46    7.02
  -1  -5   0    9.09    0.52
   1   5   0    9.37    0.49
   1   5   0    9.39    0.68
  -2  -5   0    6.41    0.64
   2   5   0    7.33    0.46
   2   5   0    7.61    0.69
  -3  -5   0   65.68    2.09
   3   5   0   62.86    2.06
  -4  -5   0   52.55    2.08
   4   5   0   52.40    1.97
  -5  -5   0   16.67    1.66
   5   5   0   17.93    1.37
   7  -6   0    6.30    1.08
   6  -6   0   27.83    1.64
   5  -6   0   48.54    1.93
  -5   6   0   47.29    1.68
   4  -6   0    4.75    0.55
   4  -6   0    4.32    0.69
  -4   6   0    3.85    0.52
  -4   6   0    2.46    0.55
   3  -6   0    4.28    0.39
   3  -6   0    5.08    0.64
  -3   6   0    4.10    0.38
  -3   6   0    2.92    0.52
   2  -6   0   78.16    1.79
   2  -6   0   81.63    2.17
  -2   6   0   78.61    2.10
   1  -6   0  116.71    2.60
   1  -6   0  119.44    2.97
  -1   6   0  121.14    2.88
   0  -6   0    3.48    0.34
   0   6   0    3.44    0.39
  -1  -6   0    2.01    0.36
   1   6   0    2.44    0.49
   1   6   0    2.81    0.36
  -2  -6   0   44.46    1.48
   2   6   0   43.57    1.32
   2   6   0   42.21    1.60
  -3  -6   0   83.63    2.50
   3   6   0   78.49    2.50
  -4  -6   0   12.88    1.23
   4   6   0   11.93    1.16
  -5  -6   0    0.98    0.98
   5   6   0    2.51    0.79
   7  -7   0   12.95    1.37
   6  -7   0   29.45    1.75
   5  -7   0    3.62    0.84
  -5   7   0    3.38    0.71
   4  -7   0    7.82    0.93
  -4   7   0    5.76    0.75
   3  -7   0   46.57    1.67
  -3   7   0   45.76    1.57
   2  -7   0   57.69    1.81
  -2   7   0   59.15    1.76
   1  -7   0   23.51    1.09
  -1   7   0   25.07    1.00
   0  -7   0   16.22    0.66
   0  -7   0   17.26    1.00
   0   7   0   16.48    0.80
  -1  -7   0   42.69    1.34
   1   7   0   41.91    1.33
   1   7   0   43.87    1.65
  -2  -7   0   42.09    1.52
   2   7   0   42.22    1.71
  -3  -7   0   -0.74    0.54
   3   7   0    0.98    0.61
  -4  -7   0    3.85    0.99
   4   7   0    5.41    0.95
  -5  -7   0   18.58    1.76
   5   7   0   17.98    1.54
   7  -8   0    8.38    1.28
   6  -8   0    1.28    0.93
   5  -8   0    1.71    0.84
  -5   8   0    2.58    0.71
   4  -8   0   28.97    1.57
  -4   8   0   28.01    1.37
   3  -8   0  101.63    2.84
  -3   8   0   96.93    2.74
   2  -8   0   21.21    1.13
  -2   8   0   19.45    1.04
   1  -8   0   15.97    1.04
  -1   8   0   16.16    0.88
   0  -8   0   67.10    2.16
   0   8   0   66.20    1.92
   1   8   0   66.98    2.25
   1   8   0   64.60    1.88
  -2  -8   0   42.09    1.61
   2   8   0   45.67    1.85
  -3  -8   0   -1.11    0.60
   3   8   0   -0.11    0.57
  -4  -8   0   16.95    1.51
   4   8   0   15.28    1.40
  -5  -8   0   20.58    2.01
   6  -9   0    1.55    0.97
   5  -9   0   12.45    1.27
   4  -9   0   35.19    1.78
  -4   9   0   32.49    1.55
   3  -9   0    3.42    0.72
  -3   9   0    2.88    0.63
   2  -9   0    2.83    0.63
  -2   9   0    2.48    0.55
   1  -9   0   32.44    1.51
  -1   9   0   34.79    1.36
   0  -9   0   58.65    2.10
   0   9   0   60.53    1.88
   1   9   0   16.58    1.27
   1   9   0   16.98    0.91
   3   9   0   15.57    1.50
   4   9   0   19.39    1.72
   6 -10   0   10.16    1.38
  -6  10   0   11.64    1.37
   5 -10   0   12.49    1.38
  -5  10   0   15.68    1.30
   4 -10   0   12.20    1.25
  -4  10   0   13.91    1.19
   3 -10   0    0.33    0.63
  -3  10   0   -0.38    0.53
   2 -10   0   23.78    1.42
  -2  10   0   22.43    1.24
   1 -10   0   53.33    2.05
  -1  10   0   55.35    1.89
   0 -10   0    8.44    1.01
   0  10   0    7.96    0.76
   1  10   0    3.17    0.56
   2  10   0   17.51    1.47
   3  10   0   16.45    1.53
   6 -11   0   10.82    1.48
  -6  11   0   17.36    1.49
   5 -11   0    7.69    1.29
  -5  11   0    8.37    1.09
   4 -11   0    0.01    0.82
  -4  11   0    0.36    0.67
   3 -11   0   13.62    1.28
  -3  11   0   13.91    1.17
   2 -11   0   24.22    1.55
  -2  11   0   27.56    1.38
   1 -11   0   26.52    1.60
  -1  11   0   28.11    1.41
   0 -11   0    1.07    0.66
   0  11   0    0.75    0.51
  -1 -11   0   14.66    1.41
   2  11   0   21.80    1.70
   5 -12   0   -0.35    1.05
  -5  12   0   -0.28    0.75
   4 -12   0    4.69    1.13
  -4  12   0    6.04    0.95
   3 -12   0   15.28    1.51
  -3  12   0   16.70    1.30
   2 -12   0    8.99    1.14
  -2  12   0    8.88    0.97
   1 -12   0    0.77    0.72
  -1  12   0    0.45    0.56
   0 -12   0    9.09    1.17
   0  12   0    8.82    0.91
  -1 -12   0   19.52    1.61
   4 -13   0    8.72    1.35
  -4  13   0   10.70    1.19
   3 -13   0    4.26    1.03
  -3  13   0    5.35    0.91
   2 -13   0   -0.13    0.76
  -2  13   0   -1.25    0.55
   1 -13   0    5.98    1.09
  -1  13   0    7.10    0.94
   0 -13   0   13.36    1.39
   0  13   0   18.26    1.28
  -1  14   0    5.36    0.97
  -1  14  -1    7.62    0.99
   1 -14   1    7.75    1.22
  -2  14  -1    9.51    1.07
   2 -14   1    6.57    1.13
   3 -14   1    2.92    1.05
   4 -14   1   -1.56    1.10
  -1 -13   1    2.63    1.00
   0  13  -1   12.12    1.12
   0 -13   1   12.91    1.39
  -1  13  -1   22.49    1.40
   1 -13   1   21.14    1.63
  -2  13  -1    5.20    0.87
   2 -13   1    4.71    0.98
  -3  13  -1    1.04    0.68
   3 -13   1    0.04    0.77
  -4  13  -1   10.28    1.15
   4 -13   1    7.26    1.22
   5 -13   1    4.59    1.29
  -1 -12   1   15.10    1.47
   0  12  -1   24.93    1.34
   0 -12   1   24.04    1.60
  -1  12  -1   10.16    0.99
   1 -12   1    9.56    1.15
  -2  12  -1   -0.46    0.53
   2 -12   1    0.20    0.66
  -3  12  -1    5.19    0.86
   3 -12   1    4.63    0.94
  -4  12  -1   16.27    1.36
   4 -12   1   16.16    1.48
  -5  12  -1    3.93    0.90
   5 -12   1    1.42    1.07
  -6  12  -1    1.90    0.92
   6 -12   1   -3.14    1.19
   2  11  -1   15.75    1.49
  -1 -11   1   24.32    1.61
   0  11  -1   19.77    1.18
   0 -11   1   20.62    1.42
  -1  11  -1    2.31    0.60
   1 -11   1    2.17    0.71
  -2  11  -1   16.82    1.20
   2 -11   1   20.44    1.38
  -3  11  -1   33.69    1.59
   3 -11   1   30.23    1.65
  -4  11  -1    9.32    1.04
   4 -11   1    9.03    1.17
  -5  11  -1    1.06    0.73
   5 -11   1   -0.62    0.92
  -6  11  -1    9.25    1.12
   6 -11   1    5.58    1.22
   3  10  -1   17.65    1.52
   2  10  -1   37.33    1.88
   1  10  -1   12.68    0.88
   0  10  -1    0.35    0.41
   0 -10   1   -0.29    0.53
  -1  10  -1   31.21    1.37
   1 -10   1   31.96    1.53
  -2  10  -1   38.43    1.55
   2 -10   1   40.00    1.68
  -3  10  -1   44.95    1.83
   3 -10   1   48.85    1.90
  -4  10  -1    0.14    0.64
   4 -10   1   -0.20    0.73
  -5  10  -1    6.09    0.93
   5 -10   1    4.32    1.05
  -6  10  -1   12.13    1.44
   6 -10   1   10.30    1.33
   4   9  -1   10.98    1.35
  -4  -9   1    8.32    1.48
   3   9  -1   36.17    1.85
   2   9  -1   16.46    1.32
   1   9  -1    0.41    0.55
   1   9  -1    0.35    0.37
   0   9  -1   29.79    1.21
   0  -9   1   30.62    1.46
  -1   9  -1   31.95    1.32
   1  -9   1   35.45    1.48
  -2   9  -1   35.29    1.40
   2  -9   1   34.35    1.46
  -3   9  -1    0.46    0.57
   3  -9   1    0.86    0.58
  -4   9  -1   17.32    1.24
   4  -9   1   16.34    1.37
  -5   9  -1   16.25    1.25
   5  -9   1   13.98    1.30
   6  -9   1   11.62    1.31
   7  -9   1    0.08    0.94
  -5  -8   1    4.73    1.25
   4   8  -1   34.21    1.82
  -4  -8   1   37.72    1.93
   3   8  -1   50.94    2.05
  -3  -8   1   48.52    1.93
   2   8  -1    0.52    0.54
  -2  -8   1   -0.37    0.47
   1   8  -1   45.30    1.75
   1   8  -1   43.53    1.41
  -1  -8   1   44.72    1.46
   0   8  -1   94.54    2.44
   0  -8   1   89.04    2.63
   0  -8   1   92.18    2.35
  -1   8  -1   44.84    1.49
   1  -8   1   45.51    1.61
  -2   8  -1    7.75    0.72
   2  -8   1    9.29    0.82
  -3   8  -1   40.28    1.57
   3  -8   1   40.03    1.57
  -4   8  -1   42.90    1.70
   4  -8   1   41.44    1.77
  -5   8  -1   18.26    1.26
   5  -8   1   21.70    1.48
   6  -8   1    1.64    0.81
   7  -8   1    6.53    1.11
   5   7  -1   19.24    1.51
  -5  -7   1   17.80    1.69
   4   7  -1   31.55    1.66
  -4  -7   1   31.08    1.78
   3   7  -1    3.30    0.73
  -3  -7   1    3.08    0.70
   2   7  -1   18.64    1.14
  -2  -7   1   18.99    1.03
   1   7  -1  119.18    3.19
   1   7  -1  120.91    2.90
  -1  -7   1  122.69    2.95
   0   7  -1   99.79    2.48
   0  -7   1   97.01    2.35
  -1   7  -1    7.79    0.64
   1  -7   1    7.20    0.68
   1  -7   1    6.18    0.43
  -2   7  -1   17.89    0.90
   2  -7   1   19.80    0.94
   2  -7   1   17.83    0.70
  -3   7  -1   42.29    1.49
   3  -7   1   42.47    1.28
   3  -7   1   44.42    1.56
  -4   7  -1   25.07    1.28
   4  -7   1   24.64    1.61
   4  -7   1   27.67    1.40
  -5   7  -1   11.73    1.06
   5  -7   1   12.37    1.13
   6  -7   1    8.51    1.08
   7  -7   1   15.95    1.54
   5   6  -1   13.77    1.27
  -5  -6   1   12.78    1.41
   4   6  -1    2.84    0.70
  -4  -6   1    3.02    0.85
   3   6  -1   18.40    1.18
  -3  -6   1   20.84    1.23
   2   6  -1   49.42    1.38
   2   6  -1   51.57    1.73
  -2  -6   1   51.08    1.62
   1   6  -1   71.72    2.07
   1   6  -1   73.22    1.84
  -1  -6   1   71.38    1.87
   0   6  -1    4.81    0.45
   0  -6   1    3.85    0.37
  -1   6  -1   46.78    1.36
   1  -6   1   45.86    1.40
   1  -6   1   42.86    1.18
  -2   6  -1  168.16    3.87
   2  -6   1  162.86    3.69
   2  -6   1  165.59    3.86
  -3   6  -1   43.46    1.49
   3  -6   1   48.96    1.57
   3  -6   1   46.37    1.36
  -4   6  -1    0.56    0.48
  -4   6  -1    0.42    0.41
   4  -6   1    0.35    0.42
   4  -6   1    0.35    0.52
  -5   6  -1    4.75    0.74
  -5   6  -1    3.84    0.69
   5  -6   1    4.23    0.72
   5  -6   1    4.82    0.81
  -6   6  -1   21.14    1.62
   6  -6   1   22.58    1.50
   6  -6   1   20.86    1.46
   7  -6   1   15.36    1.50
   6   5  -1   12.75    1.77
  -6  -5   1   16.50    1.78
   5   5  -1    1.71    0.73
  -5  -5   1   -0.06    0.84
   4   5  -1   30.37    1.48
  -4  -5   1   32.04    1.59
   3   5  -1   64.72    2.03
  -3  -5   1   62.38    2.02
   2   5  -1  110.55    2.57
   2   5  -1  116.54    2.93
  -2  -5   1  115.06    2.85
   1   5  -1    6.48    0.58
   1   5  -1    6.06    0.40
  -1  -5   1    6.60    0.47
   0   5  -1   65.02    1.63
   0   5  -1   62.52    1.74
   0  -5   1   63.57    1.55
  -1   5  -1  275.30    5.75
   1  -5   1  265.43    5.77
   1  -5   1  250.43    5.60
  -2   5  -1  231.76    5.03
   2  -5   1  219.31    4.99
   2  -5   1  226.52    4.92
  -3   5  -1    9.38    0.74
   3  -5   1   11.24    0.65
   3  -5   1   11.58    0.80
  -4   5  -1   14.12    0.88
  -4   5  -1   13.61    0.88
   4  -5   1   13.90    0.93
   4  -5   1   12.65    1.00
  -5   5  -1   47.27    1.77
   5  -5   1   45.34    1.77
   5  -5   1   45.73    1.77
  -6   5  -1   28.35    1.65
   6  -5   1   26.76    1.56
   6  -5   1   28.76    1.68
  -7   5  -1    6.25    1.21
   7  -5   1    6.28    1.06
   6   4  -1    3.65    0.92
  -6  -4   1    3.73    1.23
   5   4  -1   15.79    1.25
  -5  -4   1   14.63    1.41
   4   4  -1   84.43    2.55
  -4  -4   1   87.17    2.68
   3   4  -1   72.69    2.12
  -3  -4   1   72.20    2.12
   2   4  -1   27.91    1.04
   2   4  -1   26.31    0.74
  -2  -4   1   26.44    0.99
   1   4  -1   22.86    0.69
   1   4  -1   22.49    0.84
  -1  -4   1   22.50    0.77
   0   4  -1   56.45    1.54
   0   4  -1   60.83    1.47
   0  -4   1   58.29    1.40
  -1   4  -1  348.12    7.21
   1  -4   1  340.42    7.21
   1  -4   1  328.78    7.13
  -2   4  -1  106.06    2.49
   2  -4   1  103.39    2.44
   2  -4   1  103.35    2.47
  -3   4  -1   43.05    1.30
   3  -4   1   43.15    1.36
   3  -4   1   42.45    1.31
  -4   4  -1   52.99    1.60
  -4   4  -1   52.50    1.75
   4  -4   1   54.91    1.75
   4  -4   1   56.62    1.77
  -5   4  -1   30.12    1.43
   5  -4   1   28.77    1.43
   5  -4   1   29.34    1.41
  -6   4  -1    8.28    1.16
   6  -4   1    6.57    0.94
  -7   4  -1    0.52    1.04
   7  -4   1    2.18    0.85
   6   3  -1    3.63    0.83
  -6  -3   1    1.98    1.09
   5   3  -1   52.51    2.01
  -5  -3   1   55.66    2.22
   4   3  -1   77.63    2.33
   3   3  -1   60.91    1.80
  -3  -3   1   59.17    1.80
   2   3  -1   95.81    2.36
   2   3  -1   93.40    2.05
  -2  -3   1   95.44    2.35
   1   3  -1   74.71    1.65
   1   3  -1   72.31    1.80
  -1  -3   1   72.56    1.76
   0   3  -1   89.81    2.15
   0   3  -1   97.70    2.11
   0  -3   1   93.19    2.06
  -1   3  -1  267.29    5.58
   1  -3   1  259.21    5.54
   1  -3   1  261.18    5.59
  -2   3  -1   10.52    0.55
   2  -3   1   11.58    0.53
   2  -3   1   10.82    0.56
  -3   3  -1  119.78    2.77
   3  -3   1  121.20    2.87
   3  -3   1  115.33    2.88
  -4   3  -1   72.26    1.93
  -4   3  -1   73.47    2.18
   4  -3   1   74.49    2.12
   4  -3   1   75.01    2.19
  -5   3  -1    8.18    0.95
   5  -3   1    8.32    0.97
   5  -3   1    7.48    0.84
  -6   3  -1    3.99    1.08
   6  -3   1    5.79    0.91
  -7   3  -1   15.95    1.63
   7  -3   1   21.44    1.55
   6   2  -1   27.22    1.57
  -6  -2   1   29.38    1.98
   5   2  -1   59.46    2.08
  -5  -2   1   59.45    2.25
   4   2  -1   22.87    1.15
  -4  -2   1   22.38    1.16
   3   2  -1   13.37    0.77
  -3  -2   1   12.95    0.74
   2   2  -1  295.68    6.25
  -2  -2   1  281.47    6.23
   1   2  -1  128.64    2.90
   1   2  -1  133.85    2.76
  -1  -2   1  130.23    2.89
   0   2  -1  135.29    2.74
   0   2  -1  126.18    2.75
   0  -2   1  122.51    2.72
  -1   2  -1    1.19    0.24
   1  -2   1    1.43    0.24
   1  -2   1    1.34    0.19
  -2   2  -1  145.46    3.19
   2  -2   1  147.57    3.25
   2  -2   1  144.01    3.29
  -3   2  -1  116.04    2.83
  -3   2  -1  117.27    2.63
   3  -2   1  113.53    2.76
   3  -2   1  111.02    2.81
  -4   2  -1   45.51    1.60
  -4   2  -1   45.68    1.29
   4  -2   1   46.12    1.63
   4  -2   1   44.25    1.53
  -5   2  -1   -0.26    0.64
   5  -2   1    0.54    0.69
   5  -2   1   -0.01    0.53
  -6   2  -1   28.08    1.81
   6  -2   1   27.56    1.53
  -7   2  -1   15.77    1.68
   7  -2   1   17.04    1.46
   7   1  -1   15.39    1.51
  -7  -1   1   11.21    1.73
   6   1  -1   30.26    1.62
  -6  -1   1   32.60    1.91
   5   1  -1   11.31    1.03
  -5  -1   1   10.21    1.09
   4   1  -1    0.00    0.40
  -4  -1   1   -0.13    0.44
   3   1  -1  182.25    4.21
  -3  -1   1  183.29    4.23
   2   1  -1  127.20    2.91
  -2  -1   1  126.07    2.90
   1   1  -1   17.93    0.56
  -1  -1   1   18.90    0.56
   1  -1   1  404.03    8.19
   1  -1   1  388.35    8.27
   2  -1   1  122.23    2.85
   2  -1   1  124.42    2.79
  -3   1  -1   35.24    0.97
  -3   1  -1   36.35    1.22
   3  -1   1   35.82    1.17
   3  -1   1   35.22    1.22
  -4   1  -1    3.34    0.59
   4  -1   1    4.31    0.66
   4  -1   1    3.12    0.56
  -5   1  -1   41.18    1.89
   5  -1   1   43.07    1.67
   5  -1   1   43.16    1.92
  -6   1  -1   30.45    1.86
   6  -1   1   31.94    1.62
  -7   1  -1    5.27    1.34
   7  -1   1    4.86    0.94
   7   0  -1   19.92    1.49
  -7   0   1   16.87    1.71
   6   0  -1   16.05    1.30
  -6   0   1   14.23    1.48
   5   0  -1    5.12    0.75
  -5   0   1    4.87    0.84
   4   0  -1   55.70    1.81
  -4   0   1   57.59    1.85
   3   0  -1  202.42    4.57
  -3   0   1  200.07    4.57
   2   0  -1   70.44    1.73
  -2   0   1   68.32    1.69
  -2   0   1   67.99    1.49
   1   0  -1    0.56    0.15
  -1   0   1    0.35    0.12
  -1   0   1    0.30    0.08
   0   0  -1    0.00    0.02
   0   0   1   -0.03    0.02
   0   0   1   -0.04    0.02
   1   0   1  428.21    8.63
   1   0   1  410.99    8.69
   1   0   1  410.14    8.58
  -2   0  -1  102.10    2.43
   2   0   1   99.97    2.41
   2   0   1  101.13    2.36
  -3   0  -1    5.04    0.53
   3   0   1    4.96    0.54
   3   0   1    4.79    0.49
  -4   0  -1   48.44    1.75
   4   0   1   50.57    1.64
   4   0   1   49.83    1.79
  -5   0  -1   72.26    2.53
   5   0   1   72.21    2.28
  -6   0  -1   23.75    1.84
   6   0   1   22.62    1.44
  -7   0  -1   -0.28    1.74
   7   0   1    0.06    0.70
   7  -1  -1    7.81    1.12
  -7   1   1    4.81    1.26
   6  -1  -1    6.99    1.00
  -6   1   1    5.60    1.10
   5  -1  -1   30.80    1.47
  -5   1   1   32.10    1.50
   4  -1  -1  123.32    3.17
  -4   1   1  126.32    3.19
   3  -1  -1  106.26    2.60
  -3   1   1   99.04    2.31
  -3   1   1  110.34    2.59
   2  -1  -1    3.50    0.37
  -2   1   1    2.99    0.30
  -2   1   1    2.80    0.24
   1  -1  -1  180.42    3.82
  -1   1   1  182.67    3.76
  -1   1   1  172.31    3.73
   0   1   1  339.96    7.01
   0   1   1  339.21    7.13
   1   1   1  179.66    3.80
   1   1   1  179.06    3.88
   1   1   1  180.24    3.87
  -2  -1  -1   62.13    1.62
   2   1   1   61.95    1.63
   2   1   1   56.24    1.36
   2   1   1   60.43    1.56
  -3  -1  -1   34.36    1.25
   3   1   1   35.18    1.29
   3   1   1   34.64    1.19
  -4  -1  -1   48.39    1.77
   4   1   1   46.24    1.62
   4   1   1   48.28    1.79
  -5  -1  -1   19.58    1.50
   5   1   1   18.94    1.21
  -6  -1  -1   -0.79    0.96
   6   1   1    0.21    0.62
   7  -2  -1   -0.71    0.78
  -7   2   1   -3.42    0.93
   6  -2  -1   40.38    1.85
  -6   2   1   41.20    1.94
   5  -2  -1   50.44    1.85
  -5   2   1   52.09    1.91
   4  -2  -1   60.13    1.85
  -4   2   1   55.65    1.51
  -4   2   1   63.82    1.85
   3  -2  -1    4.20    0.51
  -3   2   1    3.50    0.33
  -3   2   1    3.38    0.43
   2  -2  -1   69.21    1.76
  -2   2   1   69.31    1.63
  -2   2   1   68.21    1.62
   1  -2  -1  112.67    2.54
  -1   2   1  114.08    2.51
  -1   2   1  113.19    2.37
   0  -2  -1  106.99    2.26
   0   2   1  105.53    2.26
   0   2   1  108.27    2.36
  -1  -2  -1    0.61    0.19
   1   2   1    0.78    0.24
   1   2   1    0.72    0.17
   1   2   1    0.71    0.21
  -2  -2  -1  113.68    2.73
   2   2   1  114.45    2.73
   2   2   1  109.53    2.50
   2   2   1  114.44    2.71
  -3  -2  -1   66.78    1.99
   3   2   1   67.23    1.92
   3   2   1   68.30    2.01
  -4  -2  -1   24.99    1.36
   4   2   1   25.01    1.21
  -5  -2  -1    0.65    0.87
   5   2   1    1.18    0.62
  -6  -2  -1   16.10    1.69
   6   2   1   21.38    1.44
   7  -3  -1   16.33    1.49
  -7   3   1   16.36    1.59
   6  -3  -1   28.80    1.60
  -6   3   1   31.27    1.65
   5  -3  -1   32.59    1.49
  -5   3   1   33.19    1.48
   4  -3  -1    2.88    0.57
  -4   3   1    2.10    0.39
  -4   3   1    2.86    0.54
   3  -3  -1   93.04    2.35
  -3   3   1   88.71    2.17
  -3   3   1   87.40    2.19
   2  -3  -1  146.06    3.37
  -2   3   1  151.19    3.28
  -2   3   1  142.36    3.17
   1  -3  -1  134.63    3.08
  -1   3   1  136.49    3.02
   0  -3  -1    2.92    0.20
   0   3   1    3.00    0.28
  -1  -3  -1   98.20    2.25
   1   3   1   95.45    2.34
   1   3   1   94.96    2.20
  -2  -3  -1  171.27    3.93
   2   3   1  166.85    3.92
   2   3   1  168.44    3.70
  -3  -3  -1   41.06    1.51
   3   3   1   40.14    1.44
  -4  -3  -1    1.72    0.70
   4   3   1    1.76    0.58
  -5  -3  -1    6.41    1.11
   5   3   1    8.48    1.03
  -6  -3  -1   26.80    2.17
   6   3   1   26.57    1.64
   7  -4  -1   26.66    1.70
  -7   4   1   27.03    1.85
   6  -4  -1   13.26    1.27
  -6   4   1   11.68    1.14
   5  -4  -1    1.55    0.66
  -5   4   1    1.12    0.58
   4  -4  -1   43.17    1.60
  -4   4   1   42.37    1.40
  -4   4   1   42.61    1.36
   3  -4  -1  105.80    2.73
  -3   4   1  107.36    2.58
  -3   4   1  105.36    2.49
   2  -4  -1   82.57    2.12
  -2   4   1   82.82    1.85
  -2   4   1   84.35    2.06
   1  -4  -1   21.09    0.83
  -1   4   1   19.63    0.72
   0  -4  -1  128.68    2.81
   0   4   1  132.88    2.97
  -1  -4  -1  177.23    3.92
   1   4   1  175.52    3.90
   1   4   1  177.35    4.09
  -2  -4  -1   59.07    1.70
   2   4   1   58.87    1.75
   2   4   1   56.43    1.50
  -3  -4  -1   -0.16    0.46
   3   4   1    0.63    0.44
  -4  -4  -1   12.99    1.20
   4   4   1   11.72    1.06
  -5  -4  -1   41.51    2.18
   5   4   1   40.45    1.84
  -6  -4  -1   11.69    1.63
   6   4   1   15.26    1.43
   7  -5  -1    9.48    1.22
   6  -5  -1   -0.61    0.67
  -6   5   1   -1.52    1.12
   5  -5  -1   20.26    1.34
  -5   5   1   20.38    1.15
   4  -5  -1   65.35    2.09
  -4   5   1   62.42    1.80
  -4   5   1   66.68    1.89
   3  -5  -1   21.76    1.05
  -3   5   1   20.62    0.90
  -3   5   1   21.16    0.73
   2  -5  -1   22.54    0.95
  -2   5   1   22.24    0.86
  -2   5   1   21.17    0.56
   1  -5  -1   27.66    1.05
  -1   5   1   27.71    0.95
   0  -5  -1  158.57    3.84
   0  -5  -1  162.30    3.48
   0   5   1  162.19    3.66
  -1  -5  -1   98.41    2.35
   1   5   1   97.47    2.35
   1   5   1   97.09    2.58
  -2  -5  -1    6.05    0.60
   2   5   1    5.30    0.64
   2   5   1    4.69    0.46
  -3  -5  -1   41.88    1.65
   3   5   1   42.02    1.65
  -4  -5  -1   27.97    1.68
   4   5   1   29.82    1.53
  -5  -5  -1   21.17    1.82
   5   5   1   20.43    1.48
   7  -6  -1    0.37    0.82
   6  -6  -1   14.60    1.42
   5  -6  -1   48.72    2.00
  -5   6   1   50.99    1.76
   4  -6  -1   39.48    1.69
  -4   6   1   41.30    1.47
   3  -6  -1    1.75    0.52
  -3   6   1    1.25    0.41
   2  -6  -1   16.42    0.90
  -2   6   1   16.19    0.81
   1  -6  -1  146.10    3.61
  -1   6   1  148.77    3.48
   0  -6  -1   59.29    1.45
   0  -6  -1   58.15    1.83
   0   6   1   59.86    1.65
  -1  -6  -1   30.59    1.04
   1   6   1   30.11    1.05
   1   6   1   32.15    1.33
  -2  -6  -1    4.77    0.62
   2   6   1    4.85    0.72
   2   6   1    4.57    0.54
  -3  -6  -1   26.44    1.42
   3   6   1   29.29    1.47
  -4  -6  -1   16.13    1.49
   4   6   1   18.01    1.36
  -5  -6  -1   -0.47    0.98
   5   6   1    1.44    0.78
   7  -7  -1    2.65    0.95
   6  -7  -1   30.05    1.80
   5  -7  -1   33.87    1.79
  -5   7   1   37.91    1.58
   4  -7  -1    3.78    0.78
  -4   7   1    3.18    0.65
   3  -7  -1   23.06    1.25
  -3   7   1   21.32    1.07
   2  -7  -1   50.79    1.71
  -2   7   1   48.66    1.58
   1  -7  -1   38.87    1.48
  -1   7   1   40.18    1.35
   0  -7  -1    2.89    0.54
   0   7   1    2.25    0.44
  -1  -7  -1    2.41    0.43
   1   7   1    2.80    0.44
   1   7   1    3.21    0.66
  -2  -7  -1  120.59    3.15
   2   7   1  122.36    3.40
  -3  -7  -1   22.86    1.39
   3   7   1   24.84    1.47
  -4  -7  -1    1.71    0.91
   4   7   1    3.85    0.88
  -5  -7  -1    4.03    1.25
   7  -8  -1   11.48    1.50
   6  -8  -1    8.61    1.23
   5  -8  -1    5.29    1.01
  -5   8   1    4.96    0.83
   4  -8  -1    2.83    0.80
  -4   8   1    2.45    0.65
   3  -8  -1   48.29    1.85
  -3   8   1   43.75    1.65
   2  -8  -1   52.17    1.85
  -2   8   1   50.69    1.71
   1  -8  -1    0.67    0.49
  -1   8   1    0.15    0.39
   0  -8  -1   16.78    1.11
   0   8   1   16.34    0.91
   1   8   1   34.62    1.63
   1   8   1   32.06    1.23
   2   8   1   34.84    1.69
   3   8   1    5.76    0.95
   4   8   1    2.43    0.87
   6  -9  -1    0.53    0.98
   5  -9  -1    1.43    0.94
  -5   9   1    3.07    0.79
   4  -9  -1   41.56    1.98
  -4   9   1   38.45    1.70
   3  -9  -1   27.96    1.53
  -3   9   1   24.47    1.32
   2  -9  -1   12.71    1.12
  -2   9   1   10.41    0.89
   1  -9  -1   11.52    1.11
  -1   9   1   11.62    0.92
   0  -9  -1   24.64    1.39
   0   9   1   24.50    1.17
   1   9   1   45.48    1.60
   2   9   1    4.81    0.88
   3   9   1    0.48    0.72
   6 -10  -1    1.82    1.11
  -6  10   1    2.49    0.88
   5 -10  -1   11.06    1.36
  -5  10   1   11.38    1.17
   4 -10  -1   15.81    1.56
  -4  10   1   16.66    1.29
   3 -10  -1    5.36    0.92
  -3  10   1    5.20    0.79
   2 -10  -1    1.21    0.66
  -2  10   1    0.95    0.57
   1 -10  -1   53.13    2.10
  -1  10   1   52.87    1.89
   0 -10  -1   30.20    1.62
   0  10   1   29.03    1.34
  -1 -10  -1    7.44    1.06
   1  10   1    6.86    0.90
   2  10   1    4.36    0.99
   3  10   1   12.91    1.45
  -6  11   1    9.83    1.20
   5 -11  -1   11.79    1.48
  -5  11   1   16.05    1.39
   4 -11  -1    1.32    0.94
  -4  11   1    1.93    0.75
   3 -11  -1   -0.89    0.65
  -3  11   1    0.33    0.58
   2 -11  -1   24.69    1.62
  -2  11   1   22.68    1.31
   1 -11  -1   19.61    1.51
  -1  11   1   23.67    1.32
   0 -11  -1    5.13    0.90
   0  11   1    3.96    0.70
  -1 -11  -1    1.73    0.71
   5 -12  -1    1.21    1.14
  -5  12   1    3.75    0.93
   4 -12  -1   -1.38    0.85
  -4  12   1    0.87    0.74
   3 -12  -1    7.72    1.19
  -3  12   1    6.44    0.93
   2 -12  -1   20.63    1.61
  -2  12   1   20.68    1.37
   1 -12  -1    5.78    1.03
  -1  12   1    6.21    0.86
   0 -12  -1    0.25    0.70
   0  12   1    0.36    0.57
  -1 -12  -1   13.73    1.46
   4 -13  -1    5.13    1.35
   3 -13  -1   12.43    1.45
  -3  13   1    9.66    1.09
   2 -13  -1    1.21    0.90
  -2  13   1    3.55    0.78
   1 -13  -1    0.57    0.82
  -1  13   1    2.17    0.69
   0  13   1    7.09    0.94
   0 -14   2    1.30    0.84
  -1  14  -2    2.32    0.71
   1 -14   2    0.88    0.82
  -2  14  -2    8.78    1.02
   2 -14   2    7.43    1.14
  -3  14  -2    6.84    1.01
   3 -14   2    6.28    1.15
   4 -14   2    0.48    1.01
  -1 -13   2    2.15    0.80
   0  13  -2    6.14    0.83
   0 -13   2    4.68    0.95
  -1  13  -2   27.01    1.47
   1 -13   2   24.04    1.65
  -2  13  -2   10.02    1.03
   2 -13   2    9.87    1.17
  -3  13  -2    0.61    0.68
   3 -13   2    0.36    0.77
  -4  13  -2    2.46    0.80
   4 -13   2   -0.21    0.89
  -5  13  -2    8.44    1.63
   5 -13   2    4.21    1.23
   2  12  -2    6.41    1.15
  -1 -12   2    1.37    0.71
   0  12  -2   20.66    1.22
   0 -12   2   22.16    1.50
  -1  12  -2   29.95    1.48
   1 -12   2   29.82    1.65
  -2  12  -2    2.33    0.67
   2 -12   2    2.78    0.78
  -3  12  -2    0.05    0.61
   3 -12   2   -0.08    0.66
  -4  12  -2   17.17    1.39
   4 -12   2   13.72    1.32
  -5  12  -2    8.75    1.08
   5 -12   2    7.72    1.28
  -6  12  -2    3.71    0.95
   3  11  -2    5.52    1.06
   2  11  -2    1.50    0.75
   0  11  -2   49.74    1.82
   0 -11   2   54.36    2.08
  -1  11  -2    4.24    0.69
   1 -11   2    7.21    0.90
  -2  11  -2    0.73    0.59
   2 -11   2    0.80    0.59
  -3  11  -2   16.60    1.28
   3 -11   2   17.27    1.30
  -4  11  -2   20.21    1.35
   4 -11   2   18.33    1.52
  -5  11  -2    3.19    0.84
   5 -11   2    0.90    0.89
  -6  11  -2    1.83    0.80
   6 -11   2    0.72    1.02
   3  10  -2    1.39    0.75
   2  10  -2   32.70    1.76
   1  10  -2   20.70    1.04
   1  10  -2   21.29    1.41
   0  10  -2   13.32    0.90
   0 -10   2   12.69    1.12
  -1  10  -2    3.60    0.63
   1 -10   2    4.26    0.73
  -2  10  -2   16.68    1.13
   2 -10   2   18.51    1.15
  -3  10  -2   75.82    2.49
   3 -10   2   79.07    2.46
  -4  10  -2    6.93    0.96
   4 -10   2    7.55    0.98
  -5  10  -2   -0.16    0.71
   5 -10   2   -0.35    0.78
   6 -10   2    5.43    1.10
   4   9  -2    1.29    0.77
  -4  -9   2   -0.81    0.81
   3   9  -2   29.99    1.67
  -3  -9   2   30.80    1.58
   2   9  -2   42.04    1.81
  -2  -9   2   37.72    1.55
   1   9  -2   19.82    0.94
   1   9  -2   20.96    1.31
  -1  -9   2   20.05    1.16
   0   9  -2    2.34    0.49
   0  -9   2    1.76    0.57
  -1   9  -2   28.91    1.26
   1  -9   2   30.59    1.33
  -2   9  -2   40.46    1.57
   2  -9   2   42.33    1.54
  -3   9  -2   27.06    1.39
   3  -9   2   32.36    1.40
  -4   9  -2   -1.02    0.58
   4  -9   2   -0.18    0.63
  -5   9  -2   10.29    1.08
   5  -9   2    8.80    1.06
   6  -9   2   11.64    1.22
   7  -9   2    1.30    1.14
  -5  -8   2   -0.44    0.94
   4   8  -2   17.44    1.39
  -4  -8   2   15.69    1.40
   3   8  -2  119.51    3.45
  -3  -8   2  117.51    3.32
   2   8  -2   24.69    1.35
  -2  -8   2   24.86    1.20
   1   8  -2    0.58    0.33
   1   8  -2    0.68    0.51
  -1  -8   2    0.75    0.43
   0   8  -2   68.18    1.91
   0  -8   2   62.58    1.77
   0  -8   2   67.89    2.08
  -1   8  -2   40.95    1.40
   1  -8   2   40.55    1.25
   1  -8   2   41.59    1.47
  -2   8  -2   51.32    1.67
   2  -8   2   53.41    1.65
   2  -8   2   45.32    1.73
  -3   8  -2   -0.68    0.46
   3  -8   2    0.02    0.47
  -4   8  -2   16.72    1.17
   4  -8   2   18.21    1.25
  -5   8  -2   36.32    1.66
   5  -8   2   36.79    1.72
   6  -8   2    7.58    1.05
   7  -8   2    0.88    0.85
   5   7  -2    6.56    1.05
  -5  -7   2    9.11    1.31
   4   7  -2   26.25    1.51
  -4  -7   2   26.97    1.58
   3   7  -2   27.54    1.42
  -3  -7   2   27.22    1.41
   2   7  -2    0.34    0.46
  -2  -7   2   -0.01    0.42
   1   7  -2   34.07    1.11
   1   7  -2   31.14    1.31
  -1  -7   2   32.86    1.16
   0   7  -2  182.36    4.15
   0  -7   2  179.03    4.07
  -1   7  -2   19.25    0.89
   1  -7   2   18.60    0.87
   1  -7   2   16.75    0.72
  -2   7  -2    5.42    0.59
   2  -7   2    6.13    0.56
   2  -7   2    5.39    0.51
  -3   7  -2   22.55    1.13
   3  -7   2   24.09    1.14
   3  -7   2   22.95    0.99
  -4   7  -2   49.26    1.80
   4  -7   2   51.32    1.82
   4  -7   2   53.80    1.74
  -5   7  -2   23.64    1.34
  -5   7  -2   26.40    1.54
   5  -7   2   23.06    1.40
   5  -7   2   24.52    1.37
   6  -7   2    0.93    0.73
   7  -7   2    3.58    0.94
   5   6  -2   22.59    1.49
  -5  -6   2   19.67    1.72
   4   6  -2   38.87    1.70
  -4  -6   2   38.40    1.77
   3   6  -2    0.78    0.53
  -3  -6   2    0.12    0.51
   2   6  -2   14.58    0.93
   2   6  -2   13.29    0.59
  -2  -6   2   13.41    0.81
   1   6  -2  154.63    3.75
   1   6  -2  159.61    3.55
  -1  -6   2  153.98    3.61
   0   6  -2   32.93    1.16
   0   6  -2   32.83    1.07
   0  -6   2   31.47    0.98
  -1   6  -2    1.29    0.35
   1  -6   2    1.68    0.32
   1  -6   2    1.55    0.30
  -2   6  -2   15.43    0.82
   2  -6   2   15.23    0.72
   2  -6   2   14.81    0.74
  -3   6  -2   68.10    2.01
   3  -6   2   71.46    1.99
   3  -6   2   69.29    1.94
  -4   6  -2   28.37    1.27
   4  -6   2   29.80    1.32
   4  -6   2   28.64    1.26
  -5   6  -2    0.78    0.57
  -5   6  -2    0.04    0.52
   5  -6   2   -0.37    0.57
   5  -6   2    0.40    0.63
  -6   6  -2    9.12    1.11
   6  -6   2    9.61    1.19
   6  -6   2   10.56    1.06
  -7   6  -2   13.26    1.62
   7  -6   2   16.13    1.46
   6   5  -2   25.36    1.67
  -6  -5   2   24.15    1.97
   5   5  -2   16.22    1.28
  -5  -5   2   15.27    1.48
   4   5  -2    0.75    0.54
  -4  -5   2    0.00    0.64
   3   5  -2   24.84    1.21
  -3  -5   2   27.94    1.26
   2   5  -2   76.68    2.10
   2   5  -2   73.38    1.77
  -2  -5   2   75.37    2.04
   1   5  -2  192.90    4.16
   1   5  -2  186.93    4.32
  -1  -5   2  190.17    4.25
   0   5  -2    7.05    0.48
   0   5  -2    6.30    0.49
   0  -5   2    7.00    0.41
  -1   5  -2   67.54    1.73
   1  -5   2   64.03    1.66
   1  -5   2   64.97    1.67
  -2   5  -2  160.56    3.66
   2  -5   2  158.56    3.67
   2  -5   2  154.13    3.57
  -3   5  -2   97.73    2.52
   3  -5   2   95.50    2.52
   3  -5   2  101.85    2.52
  -4   5  -2   -0.22    0.46
   4  -5   2   -0.04    0.43
   4  -5   2    0.82    0.51
  -5   5  -2    8.91    0.95
   5  -5   2    8.98    0.89
   5  -5   2    9.10    0.99
  -6   5  -2   32.68    1.72
   6  -5   2   27.99    1.54
   6  -5   2   31.37    1.83
  -7   5  -2   13.83    1.57
   7  -5   2   12.49    1.28
   6   4  -2   10.49    1.16
  -6  -4   2   11.29    1.50
   5   4  -2   -0.43    0.58
  -5  -4   2   -0.87    0.76
   4   4  -2   29.35    1.38
  -4  -4   2   30.80    1.45
   3   4  -2  126.23    3.19
  -3  -4   2  124.06    3.19
   2   4  -2  123.64    2.96
   2   4  -2  119.06    2.64
  -2  -4   2  120.78    2.94
   1   4  -2    3.55    0.30
   1   4  -2    3.01    0.35
  -1  -4   2    3.40    0.36
   0   4  -2   47.43    1.21
   0   4  -2   44.06    1.21
   0  -4   2   43.35    1.16
  -1   4  -2  147.04    3.28
   1  -4   2  144.91    3.20
   1  -4   2  144.11    3.29
  -2   4  -2  236.54    5.24
   2  -4   2  242.32    5.20
   2  -4   2  239.74    5.32
  -3   4  -2    9.22    0.68
   3  -4   2    8.46    0.65
   3  -4   2    8.36    0.66
  -4   4  -2   14.43    0.90
   4  -4   2   15.93    1.02
   4  -4   2   15.36    0.94
  -5   4  -2   34.69    1.63
   5  -4   2   34.02    1.67
   5  -4   2   34.24    1.48
  -6   4  -2   21.57    1.65
   6  -4   2   21.51    1.41
   6  -4   2   19.51    1.68
  -7   4  -2    1.23    1.13
   7  -4   2    0.13    0.77
   6   3  -2    1.45    0.71
  -6  -3   2   -1.13    0.87
   5   3  -2   13.34    1.14
  -5  -3   2   14.57    1.33
   4   3  -2   74.20    2.26
  -4  -3   2   75.70    2.32
   3   3  -2  127.37    3.13
  -3  -3   2  122.78    3.12
   2   3  -2   57.64    1.55
   2   3  -2   53.70    1.25
  -2  -3   2   55.80    1.55
   1   3  -2   17.78    0.57
   1   3  -2   17.93    0.64
  -1  -3   2   18.53    0.65
   0   3  -2  158.14    3.46
   0  -3   2  163.20    3.49
   1  -3   2   85.47    1.93
   1  -3   2   88.79    2.11
   2  -3   2   49.79    1.44
   2  -3   2   50.32    1.32
  -3   3  -2   23.03    0.91
   3  -3   2   24.48    0.92
   3  -3   2   24.51    1.01
  -4   3  -2   35.03    1.21
  -4   3  -2   34.50    1.41
   4  -3   2   34.64    1.44
   4  -3   2   35.85    1.32
  -5   3  -2   46.87    1.93
   5  -3   2   46.26    1.73
   5  -3   2   47.73    1.99
  -6   3  -2   -0.73    0.89
   6  -3   2   -1.00    0.64
   6  -3   2   -0.12    0.94
  -7   3  -2   -0.52    1.11
   7  -3   2    1.42    0.81
   6   2  -2    6.82    0.98
  -6  -2   2    6.37    1.19
   5   2  -2   39.77    1.70
  -5  -2   2   43.08    1.89
   4   2  -2   58.52    1.87
  -4  -2   2   56.23    1.89
   3   2  -2    2.02    0.41
  -3  -2   2    0.91    0.35
   2   2  -2   33.92    1.05
  -2  -2   2   34.04    1.05
   1   2  -2   87.78    2.01
  -1  -2   2   87.89    2.03
   0  -2   2  283.38    5.95
   1  -2   2    1.90    0.32
   1  -2   2    1.97    0.20
   2  -2   2   49.53    1.27
   2  -2   2   49.34    1.42
   3  -2   2   84.72    2.31
   3  -2   2   87.87    2.17
  -4   2  -2   42.07    1.33
  -4   2  -2   40.69    1.56
   4  -2   2   41.96    1.46
   4  -2   2   43.87    1.63
  -5   2  -2    9.49    1.06
   5  -2   2    9.02    0.93
   5  -2   2   10.22    1.11
  -6   2  -2    2.00    1.01
   6  -2   2    3.86    0.81
   6  -2   2    2.10    1.05
  -7   2  -2   10.86    1.51
   7  -2   2   11.15    1.18
   7   1  -2    4.87    1.02
  -7  -1   2    1.84    1.15
   6   1  -2   42.34    1.88
  -6  -1   2   43.54    2.10
   5   1  -2   49.34    1.87
  -5  -1   2   51.45    2.02
   4   1  -2   11.35    0.89
  -4  -1   2   11.87    0.89
   3   1  -2   18.35    0.86
  -3  -1   2   17.86    0.82
   2   1  -2   92.72    2.18
  -2  -1   2   91.56    2.16
  -2  -1   2   85.13    1.91
   1   1  -2  254.99    5.20
  -1  -1   2  239.41    5.13
  -1  -1   2  244.52    5.21
   0  -1   2    0.48    0.11
   0  -1   2    0.32    0.11
   1  -1   2   19.30    0.53
   1  -1   2   18.73    0.71
   2  -1   2  186.47    4.25
   2  -1   2  188.87    4.09
   3  -1   2  103.89    2.56
   3  -1   2  107.06    2.75
  -4   1  -2    5.57    0.76
   4  -1   2    6.88    0.82
   4  -1   2    6.35    0.68
  -5   1  -2   14.50    1.29
   5  -1   2   16.06    1.36
   5  -1   2   14.49    1.09
  -6   1  -2   17.56    1.76
   6  -1   2   18.12    1.29
  -7   1  -2   11.66    1.80
   7  -1   2   11.76    1.25
   7   0  -2   10.59    1.21
  -7   0   2   11.31    1.54
   6   0  -2   40.13    1.83
  -6   0   2   40.68    2.07
   5   0  -2   11.03    1.07
  -5   0   2   11.76    1.19
   4   0  -2   11.15    0.91
  -4   0   2    8.90    0.80
   3   0  -2  112.14    2.67
  -3   0   2  100.33    2.32
  -3   0   2  106.36    2.61
   2   0  -2  108.40    2.50
  -2   0   2  105.93    2.45
  -2   0   2  103.70    2.32
   1   0  -2  190.28    3.98
  -1   0   2  183.61    3.95
  -1   0   2  183.51    3.95
   0   0  -2   25.09    0.62
   0   0   2   26.40    0.70
   0   0   2   24.52    0.68
   1   0   2  123.32    2.82
   1   0   2  119.99    2.70
   1   0   2  126.13    2.68
   2   0   2  256.47    5.77
   2   0   2  267.30    5.64
  -3   0  -2   21.11    0.99
   3   0   2   23.05    0.91
   3   0   2   23.23    1.04
  -4   0  -2   10.12    0.95
   4   0   2   11.19    0.85
   4   0   2   11.74    1.04
  -5   0  -2   34.25    1.83
   5   0   2   32.08    1.85
   5   0   2   35.14    1.51
  -6   0  -2   19.21    1.82
   6   0   2   19.76    1.35
   7   0   2    7.78    1.09
   7  -1  -2   16.30    1.48
  -7   1   2   16.46    1.65
   6  -1  -2    0.90    0.74
  -6   1   2   -1.44    0.81
   5  -1  -2   10.79    1.06
  -5   1   2   11.01    1.05
   4  -1  -2  103.36    2.80
  -4   1   2  107.23    2.76
   3  -1  -2  165.84    3.85
  -3   1   2  165.39    3.76
  -3   1   2  162.97    3.59
   2  -1  -2   16.72    0.70
  -2   1   2   16.61    0.59
  -2   1   2   16.49    0.56
   1  -1  -2   66.91    1.61
  -1   1   2   68.73    1.53
  -1   1   2   68.82    1.60
   0  -1  -2   61.24    1.47
   0   1   2   62.52    1.47
   0   1   2   61.48    1.48
   1   1   2  191.45    4.21
   1   1   2  195.89    4.16
   1   1   2  188.62    4.14
   2   1   2  167.93    3.87
   2   1   2  168.87    3.77
   2   1   2  165.59    3.65
  -3  -1  -2    0.23    0.36
   3   1   2    0.12    0.42
   3   1   2    0.80    0.34
  -4  -1  -2   48.62    1.85
   4   1   2   49.97    1.68
   4   1   2   50.48    1.91
  -5  -1  -2   40.73    2.01
   5   1   2   41.22    1.68
  -6  -1  -2    6.47    1.27
   6   1   2    7.70    1.01
   7  -2  -2    5.75    1.07
  -7   2   2    4.45    1.24
   6  -2  -2    0.33    0.72
  -6   2   2    0.36    0.81
   5  -2  -2   36.77    1.60
  -5   2   2   37.87    1.58
   4  -2  -2  151.34    3.70
  -4   2   2  156.44    3.61
  -4   2   2  138.00    3.35
   3  -2  -2   34.50    1.23
  -3   2   2   35.78    1.09
  -3   2   2   34.99    1.02
   2  -2  -2    8.91    0.57
  -2   2   2    7.94    0.44
  -2   2   2    7.73    0.38
   1  -2  -2   97.12    2.25
  -1   2   2   91.84    2.05
  -1   2   2  101.07    2.23
   0  -2  -2  111.57    2.62
   0   2   2  115.95    2.48
   0   2   2  112.08    2.56
   1   2   2   20.96    0.77
   1   2   2   21.32    0.71
   1   2   2   21.74    0.76
  -2  -2  -2    3.65    0.45
   2   2   2    3.36    0.46
   2   2   2    2.92    0.39
   2   2   2    2.95    0.31
  -3  -2  -2   40.26    1.50
   3   2   2   41.67    1.56
   3   2   2   41.56    1.40
  -4  -2  -2   43.91    1.80
   4   2   2   42.75    1.61
   4   2   2   41.37    1.81
  -5  -2  -2    8.79    1.20
   5   2   2   10.48    1.06
  -6  -2  -2    0.63    1.08
   6   2   2    1.36    0.72
   7  -3  -2    2.46    0.94
  -7   3   2   -0.82    0.98
   6  -3  -2   12.09    1.19
  -6   3   2   12.84    1.21
   5  -3  -2   40.81    1.69
  -5   3   2   41.20    1.59
   4  -3  -2   57.13    1.85
  -4   3   2   54.28    1.64
  -4   3   2   53.07    1.54
   3  -3  -2    3.40    0.50
  -3   3   2    4.00    0.40
  -3   3   2    3.53    0.38
   2  -3  -2   86.37    2.20
  -2   3   2   83.49    1.94
  -2   3   2   90.77    2.12
   1  -3  -2  118.91    2.81
  -1   3   2  119.30    2.74
   0  -3  -2    5.12    0.48
   0   3   2    6.24    0.30
   0   3   2    5.72    0.41
  -1  -3  -2   31.54    0.97
   1   3   2   33.17    0.99
   1   3   2   31.53    0.99
   1   3   2   34.26    1.11
  -2  -3  -2   46.73    1.44
   2   3   2   46.55    1.46
   2   3   2   45.79    1.29
   2   3   2   46.60    1.45
  -3  -3  -2   57.15    1.91
   3   3   2   58.43    1.95
   3   3   2   54.71    1.79
  -4  -3  -2   21.43    1.49
   4   3   2   22.63    1.28
  -5  -3  -2   -0.05    0.90
   5   3   2    0.77    0.66
  -6  -3  -2   14.91    1.74
   6   3   2   17.09    1.46
   7  -4  -2   13.23    1.31
   6  -4  -2   26.50    1.58
  -6   4   2   26.56    1.55
   5  -4  -2   17.11    1.25
  -5   4   2   15.00    1.02
   4  -4  -2    4.08    0.66
  -4   4   2    3.21    0.50
  -4   4   2    4.12    0.53
   3  -4  -2   39.66    1.40
  -3   4   2   36.10    1.07
  -3   4   2   38.43    1.22
   2  -4  -2  118.68    2.91
  -2   4   2  114.73    2.53
  -2   4   2  121.47    2.82
   1  -4  -2  200.38    4.57
  -1   4   2  200.01    4.45
   0  -4  -2   43.49    1.38
   0  -4  -2   41.53    1.05
   0   4   2   44.20    1.25
  -1  -4  -2  108.79    2.59
   1   4   2  108.67    2.59
   1   4   2  112.04    2.62
   1   4   2  111.48    2.79
  -2  -4  -2   90.21    2.41
   2   4   2   90.38    2.25
   2   4   2   90.80    2.48
  -3  -4  -2   33.81    1.51
   3   4   2   35.74    1.47
  -4  -4  -2   -1.58    0.66
   4   4   2    0.16    0.56
  -5  -4  -2   16.81    1.63
   5   4   2   14.42    1.31
   6   4   2   20.38    2.27
   7  -5  -2   11.92    1.31
   6  -5  -2    7.03    1.03
   5  -5  -2    1.10    0.71
  -5   5   2   -0.37    0.54
   4  -5  -2   34.19    1.52
  -4   5   2   32.29    1.24
   3  -5  -2   55.86    1.83
  -3   5   2   55.96    1.67
  -3   5   2   56.17    1.49
   2  -5  -2   66.76    1.92
  -2   5   2   64.22    1.80
   1  -5  -2    5.49    0.57
  -1   5   2    5.72    0.51
   0  -5  -2   74.97    2.10
   0  -5  -2   72.47    1.70
   0   5   2   73.64    1.92
  -1  -5  -2   86.59    2.19
   1   5   2   90.76    2.48
   1   5   2   90.37    2.26
  -2  -5  -2   39.98    1.39
   2   5   2   38.52    1.50
   2   5   2   35.25    1.21
  -3  -5  -2    0.01    0.58
   3   5   2    0.75    0.57
  -4  -5  -2    9.85    1.15
   4   5   2    9.34    1.03
  -5  -5  -2   20.33    1.90
   5   5   2   18.87    1.47
   7  -6  -2    6.40    1.14
   6  -6  -2    3.14    0.90
   5  -6  -2   30.58    1.69
  -5   6   2   30.98    1.39
   4  -6  -2   47.42    1.92
  -4   6   2   49.85    1.70
   3  -6  -2   11.91    1.00
  -3   6   2   10.40    0.82
   2  -6  -2    1.59    0.46
  -2   6   2    1.22    0.40
   1  -6  -2   61.29    1.92
  -1   6   2   62.41    1.77
   0  -6  -2   72.08    1.72
   0  -6  -2   71.61    2.15
   0   6   2   72.50    1.97
  -1  -6  -2   50.49    1.47
   1   6   2   50.49    1.53
   1   6   2   50.42    1.79
  -2  -6  -2    1.11    0.47
   2   6   2    0.72    0.47
   2   6   2    0.89    0.54
  -3  -6  -2   24.46    1.39
   3   6   2   25.48    1.45
  -4  -6  -2   23.23    1.67
   4   6   2   20.17    1.46
  -5  -6  -2    7.79    1.42
   5   6   2    9.83    1.17
   7  -7  -2   -0.22    0.89
   6  -7  -2   10.51    1.26
   5  -7  -2   44.86    2.07
  -5   7   2   47.27    1.81
   4  -7  -2   42.61    1.87
  -4   7   2   39.05    1.58
   3  -7  -2    0.72    0.56
  -3   7   2   -0.24    0.47
   2  -7  -2   20.42    1.13
  -2   7   2   19.71    0.98
   1  -7  -2   65.76    2.11
  -1   7   2   67.40    1.95
   0  -7  -2   40.09    1.57
   0   7   2   39.73    1.38
   1   7   2    0.57    0.56
   1   7   2    0.49    0.37
  -2  -7  -2   29.23    1.61
   2   7   2   30.26    1.55
  -3  -7  -2   26.60    1.55
   3   7   2   27.32    1.58
  -4  -7  -2   14.11    1.41
   4   7   2   15.43    1.38
  -5  -7  -2   -1.43    1.09
   6  -8  -2    9.80    1.34
   5  -8  -2   20.35    1.70
  -5   8   2   20.73    1.31
   4  -8  -2   -0.37    0.69
  -4   8   2   -0.43    0.54
   3  -8  -2    6.05    0.88
  -3   8   2    6.95    0.78
   2  -8  -2   29.25    1.44
  -2   8   2   30.12    1.28
   1  -8  -2   25.53    1.33
  -1   8   2   24.34    1.12
   0  -8  -2   -0.41    0.43
   0   8   2    0.02    0.40
   1   8   2   21.85    1.07
   2   8   2   30.92    1.67
   3   8   2   14.32    1.43
   4   8   2    3.04    0.88
   6  -9  -2    5.35    1.23
   5  -9  -2   -0.50    0.91
  -5   9   2    0.60    0.70
   4  -9  -2   22.68    1.68
  -4   9   2   19.81    1.27
   3  -9  -2   28.05    1.61
  -3   9   2   24.21    1.31
   2  -9  -2   27.99    1.52
  -2   9   2   27.95    1.34
   1  -9  -2    1.54    0.66
  -1   9   2    1.64    0.52
   0  -9  -2   18.06    1.28
   0   9   2   17.06    1.02
  -1  -9  -2   38.24    1.83
   1   9   2   37.15    1.48
   2   9   2   21.61    1.55
   3   9   2    3.27    0.90
   6 -10  -2    0.43    1.12
  -6  10   2    1.35    0.89
   5 -10  -2    8.62    1.37
  -5  10   2    9.58    1.11
   4 -10  -2   18.86    1.71
  -4  10   2   16.19    1.28
   3 -10  -2   21.63    1.59
  -3  10   2   18.05    1.27
   2 -10  -2    4.37    0.85
  -2  10   2    5.66    0.77
   1 -10  -2   13.32    1.30
  -1  10   2   12.15    1.03
   0 -10  -2   33.47    1.73
   0  10   2   31.30    1.43
  -1 -10  -2   17.79    1.44
   1  10   2   15.82    1.72
  -6  11   2    2.42    0.89
   5 -11  -2   12.29    1.54
  -5  11   2   17.45    1.44
   4 -11  -2    6.76    1.23
  -4  11   2    8.38    1.01
   3 -11  -2    1.28    0.80
  -3  11   2    0.51    0.64
   2 -11  -2    3.37    0.89
  -2  11   2    4.42    0.78
   1 -11  -2   17.79    1.51
  -1  11   2   20.39    1.27
   0 -11  -2   18.16    1.48
   0  11   2   16.68    1.17
  -1 -11  -2    1.62    0.80
   4 -12  -2    1.78    1.06
  -4  12   2    2.24    0.81
   3 -12  -2    2.64    1.01
  -3  12   2    1.73    0.72
   2 -12  -2   13.55    1.41
  -2  12   2   14.97    1.20
   1 -12  -2   11.87    1.34
  -1  12   2   10.53    1.07
   0 -12  -2    1.23    0.80
   0  12   2    2.67    0.70
   2 -13  -2    5.33    1.48
  -2  13   2    6.91    1.02
  -1  13   2    2.71    0.78
   0  13   2    3.94    1.03
   1 -15   3    3.47    1.24
   2 -15   3    0.18    0.84
   0  14  -3    9.11    1.31
   0 -14   3   10.18    1.32
  -1  14  -3    1.27    0.63
   1 -14   3    0.27    0.79
  -2  14  -3    4.40    0.84
   2 -14   3    5.39    1.01
  -3  14  -3    9.19    1.09
   3 -14   3    8.27    1.19
  -1 -13   3   18.72    1.56
   0  13  -3    2.34    0.63
   0 -13   3    2.30    0.80
  -1  13  -3    8.80    0.96
   1 -13   3    9.26    1.13
  -2  13  -3   14.15    1.23
   2 -13   3   13.99    1.35
  -3  13  -3    6.97    0.97
   3 -13   3    5.38    0.94
  -4  13  -3    1.46    0.78
  -5  13  -3    1.34    0.90
   2  12  -3   14.54    1.48
  -1 -12   3    3.47    0.89
   0  12  -3   11.79    1.03
   0 -12   3   12.06    1.20
  -1  12  -3   30.12    1.50
   1 -12   3   31.46    1.62
  -2  12  -3   15.13    1.23
   2 -12   3   14.01    1.23
  -3  12  -3    2.46    0.75
   3 -12   3    2.67    0.77
  -4  12  -3    4.06    0.91
   4 -12   3    2.47    0.88
  -5  12  -3   15.43    1.44
  -6  12  -3    9.56    1.21
   3  11  -3   14.72    1.47
   2  11  -3    4.73    0.97
   0  11  -3   31.08    1.41
   0 -11   3   34.10    1.62
  -1  11  -3   27.01    1.35
   1 -11   3   27.35    1.42
  -2  11  -3    2.41    0.68
   2 -11   3    3.30    0.68
  -3  11  -3    8.83    1.00
   3 -11   3    9.51    0.97
  -4  11  -3   15.67    1.35
   4 -11   3   14.74    1.40
  -5  11  -3   11.06    1.18
   5 -11   3    6.06    1.34
  -6  11  -3    2.26    0.87
   4  10  -3   12.76    1.53
  -4 -10   3    9.15    1.39
   3  10  -3    5.12    0.98
  -3 -10   3    4.12    1.02
   2  10  -3    4.88    0.89
   1  10  -3   33.68    1.33
   1  10  -3   35.69    1.69
   0  10  -3   27.61    1.27
   0 -10   3   29.38    1.45
  -1  10  -3    2.12    0.57
   1 -10   3    3.20    0.62
  -2  10  -3    0.37    0.51
   2 -10   3    1.42    0.50
  -3  10  -3   22.50    1.33
   3 -10   3   24.69    1.29
  -4  10  -3   20.82    1.41
   4 -10   3   20.76    1.41
  -5  10  -3    4.77    0.95
   5 -10   3    4.03    0.92
   4   9  -3    1.60    0.76
  -4  -9   3    0.71    0.83
   3   9  -3   26.02    1.55
  -3  -9   3   28.70    1.53
   2   9  -3   41.52    1.77
  -2  -9   3   40.66    1.62
   1   9  -3   57.87    1.80
   1   9  -3   61.14    2.11
  -1  -9   3   59.13    1.88
   0   9  -3   21.20    1.04
   0  -9   3   21.18    0.98
   0  -9   3   22.04    1.19
  -1   9  -3    8.78    0.81
   1  -9   3    8.54    1.06
   1  -9   3    8.61    0.78
  -2   9  -3   83.52    2.44
   2  -9   3   83.82    2.34
  -3   9  -3   38.20    1.65
   3  -9   3   41.92    1.56
  -4   9  -3    4.71    0.86
   4  -9   3    6.60    0.88
  -5   9  -3    0.48    0.69
   5  -9   3   -0.95    0.65
   5   8  -3    4.72    1.00
  -5  -8   3    4.99    1.16
   4   8  -3    0.29    0.66
  -4  -8   3   -0.47    0.73
   3   8  -3   26.57    1.46
  -3  -8   3   25.32    1.42
   2   8  -3   54.26    1.96
  -2  -8   3   55.54    1.85
   1   8  -3   33.54    1.43
   1   8  -3   32.00    1.18
  -1  -8   3   33.35    1.26
   0   8  -3   10.10    0.76
   0  -8   3    9.78    0.67
  -1   8  -3   47.08    1.55
   1  -8   3   45.65    1.44
   1  -8   3   46.62    1.51
  -2   8  -3   46.17    1.61
   2  -8   3   43.74    1.50
   2  -8   3   43.90    1.44
  -3   8  -3   16.58    1.12
   3  -8   3   16.74    0.97
   3  -8   3   15.97    1.02
  -4   8  -3   -0.18    0.58
   4  -8   3    0.35    0.51
   4  -8   3   -0.68    0.51
  -5   8  -3   25.21    1.47
   5  -8   3   21.35    1.39
   6  -8   3   14.13    1.34
   5   7  -3    1.64    0.74
  -5  -7   3    1.50    0.96
   4   7  -3   50.50    2.03
  -4  -7   3   50.51    2.09
   3   7  -3   31.93    1.48
  -3  -7   3   31.67    1.44
   2   7  -3   22.09    1.15
  -2  -7   3   21.14    1.08
   1   7  -3    2.18    0.49
   1   7  -3    2.00    0.37
  -1  -7   3    1.95    0.43
   0   7  -3   49.08    1.48
   0  -7   3   47.89    1.42
  -1   7  -3   67.69    1.85
   1  -7   3   60.80    1.75
   1  -7   3   64.27    1.77
  -2   7  -3   15.08    0.90
   2  -7   3   16.07    0.87
   2  -7   3   16.02    0.77
  -3   7  -3    0.71    0.51
   3  -7   3    2.58    0.50
   3  -7   3    2.11    0.50
  -4   7  -3   30.00    1.43
   4  -7   3   32.59    1.39
   4  -7   3   33.88    1.46
  -5   7  -3   37.54    1.65
   5  -7   3   38.80    1.63
   5  -7   3   37.81    1.72
  -6   7  -3    5.23    0.95
   6  -7   3    5.55    1.06
   6  -7   3    5.49    0.90
   5   6  -3   24.24    1.53
  -5  -6   3   23.33    1.66
   4   6  -3   49.67    1.91
  -4  -6   3   47.47    1.99
   3   6  -3   14.46    1.03
  -3  -6   3   15.08    1.07
   2   6  -3    0.29    0.21
   2   6  -3    0.48    0.39
  -2  -6   3    0.53    0.41
   1   6  -3   99.72    2.38
   1   6  -3   95.37    2.52
  -1  -6   3   99.63    2.47
   0   6  -3  138.22    3.12
   0   6  -3  131.78    3.15
   0  -6   3  126.28    3.06
  -1   6  -3   35.08    1.17
   1  -6   3   34.65    1.07
   1  -6   3   33.45    1.11
  -2   6  -3    0.45    0.39
   2  -6   3    0.84    0.38
   2  -6   3    0.44    0.26
  -3   6  -3   73.43    2.19
   3  -6   3   78.96    2.24
   3  -6   3   81.62    2.13
  -4   6  -3   44.06    1.68
   4  -6   3   48.17    1.75
   4  -6   3   44.48    1.60
  -5   6  -3    7.87    0.87
   5  -6   3   11.67    1.12
   5  -6   3   10.15    0.93
  -6   6  -3    1.02    0.80
   6  -6   3    0.64    0.64
   6  -6   3   -0.58    0.85
  -7   6  -3    6.59    1.29
   7  -6   3    3.75    1.30
   6   5  -3    7.97    1.10
  -6  -5   3    8.15    1.40
   5   5  -3   39.04    1.78
  -5  -5   3   38.08    1.93
   4   5  -3   21.04    1.24
  -4  -5   3   22.16    1.33
   3   5  -3    2.03    0.51
  -3  -5   3    2.53    0.57
   2   5  -3   76.54    1.81
   2   5  -3   74.82    2.07
  -2  -5   3   75.48    2.06
   1   5  -3   91.39    2.17
   1   5  -3   88.66    2.26
  -1  -5   3   92.73    2.27
   0   5  -3    5.02    0.46
   0   5  -3    3.71    0.37
   0  -5   3    2.59    0.33
  -1   5  -3    3.54    0.47
   1  -5   3    3.75    0.34
   1  -5   3    3.58    0.41
  -2   5  -3   26.14    1.03
   2  -5   3   25.15    0.87
   2  -5   3   25.67    1.05
  -3   5  -3   98.97    2.57
   3  -5   3   97.77    2.65
   3  -5   3  100.22    2.48
  -4   5  -3   30.28    1.26
   4  -5   3   30.77    1.42
   4  -5   3   29.91    1.24
  -5   5  -3    0.84    0.62
   5  -5   3    0.32    0.50
   5  -5   3    0.55    0.68
  -6   5  -3   24.44    1.61
   6  -5   3   22.56    1.68
   6  -5   3   24.50    1.41
  -7   5  -3   10.95    1.49
   7  -5   3    9.83    1.57
   7  -5   3    9.15    1.22
   6   4  -3   18.17    1.44
  -6  -4   3   16.05    1.58
   5   4  -3   15.90    1.22
  -5  -4   3   14.21    1.36
   4   4  -3    0.78    0.52
  -4  -4   3    1.30    0.59
   3   4  -3   85.64    2.38
  -3  -4   3   87.68    2.42
   2   4  -3  179.63    3.87
   2   4  -3  179.63    4.14
  -2  -4   3  181.80    4.15
   1   4  -3   73.83    1.86
  -1  -4   3   77.04    1.90
   0   4  -3   11.33    0.49
   0  -4   3   12.41    0.54
   1  -4   3  110.78    2.60
   1  -4   3  103.63    2.36
   2  -4   3  316.86    6.59
   2  -4   3  302.54    6.87
  -3   4  -3   58.80    1.67
   3  -4   3   56.94    1.80
   3  -4   3   56.21    1.58
  -4   4  -3    4.10    0.63
   4  -4   3    4.45    0.70
   4  -4   3    3.84    0.54
  -5   4  -3   18.31    1.29
   5  -4   3   18.31    1.36
   5  -4   3   19.26    1.14
  -6   4  -3   36.38    2.00
   6  -4   3   33.92    2.03
   6  -4   3   34.04    1.62
  -7   4  -3    6.52    1.39
   7  -4   3    4.38    1.38
   7  -4   3    7.47    1.06
   6   3  -3    9.25    1.11
  -6  -3   3    8.24    1.28
   5   3  -3    1.83    0.64
  -5  -3   3    0.39    0.69
   4   3  -3   15.14    1.04
  -4  -3   3   15.99    1.08
   3   3  -3  117.47    2.96
  -3  -3   3  117.08    2.97
   2   3  -3  148.19    3.43
  -2  -3   3  148.62    3.45
   1   3  -3    0.08    0.17
  -1  -3   3    0.59    0.24
   0  -3   3  162.58    3.59
   1  -3   3   67.11    1.78
   2  -3   3   28.98    1.11
   2  -3   3   29.49    0.86
   3  -3   3    4.09    0.44
   3  -3   3    4.21    0.58
  -4   3  -3    4.37    0.61
   4  -3   3    4.46    0.72
   4  -3   3    4.13    0.55
  -5   3  -3   79.70    2.66
   5  -3   3   80.18    2.71
   5  -3   3   77.11    2.34
  -6   3  -3   13.25    1.43
   6  -3   3   15.51    1.25
   6  -3   3   14.16    1.52
  -7   3  -3   -0.35    1.14
   7  -3   3    0.43    0.70
   6   2  -3    0.80    0.70
  -6  -2   3   -1.32    0.81
   5   2  -3   19.48    1.27
  -5  -2   3   20.10    1.41
   4   2  -3   87.85    2.49
  -4  -2   3   86.40    2.49
   3   2  -3   48.31    1.50
  -3  -2   3   47.55    1.49
   2   2  -3   34.90    1.07
  -2  -2   3   34.01    1.07
   1   2  -3   14.99    0.53
  -1  -2   3   15.34    0.60
   0  -2   3   42.31    1.13
   1  -2   3   47.48    1.39
   2  -2   3   18.29    0.87
   2  -2   3   17.94    0.62
   3  -2   3   44.84    1.54
   3  -2   3   44.40    1.31
   4  -2   3   39.22    1.39
   4  -2   3   41.52    1.71
  -5   2  -3   17.51    1.45
   5  -2   3   17.17    1.14
   5  -2   3   21.69    1.57
  -6   2  -3   -0.63    0.89
   6  -2   3    0.11    0.59
   6  -2   3   -1.79    0.93
  -7   2  -3    1.36    1.59
   7  -2   3    3.13    0.82
   7   1  -3   -0.67    0.70
  -7  -1   3   -2.73    0.96
   6   1  -3   25.68    1.57
  -6  -1   3   25.63    1.77
   5   1  -3   42.89    1.74
  -5  -1   3   44.57    1.81
   4   1  -3   30.03    1.32
  -4  -1   3   32.51    1.30
   3   1  -3    2.39    0.41
  -3  -1   3    2.67    0.42
  -3  -1   3    1.84    0.18
   2   1  -3   51.94    1.38
  -2  -1   3   50.25    1.37
  -2  -1   3   49.28    1.21
   1   1  -3  971.06   20.51
  -1  -1   3 1000.00   20.54
  -1  -1   3  994.57   20.79
   0  -1   3  304.38    6.38
   0  -1   3  300.05    6.40
   1  -1   3    3.97    0.33
   1  -1   3    4.21    0.43
   2  -1   3  157.69    3.45
   2  -1   3  155.04    3.71
   3  -1   3   86.59    2.14
   3  -1   3   80.91    2.36
  -4   1  -3   54.72    2.00
   4  -1   3   61.27    2.12
   4  -1   3   58.77    1.78
  -5   1  -3   -0.42    0.67
   5  -1   3    0.65    0.51
   5  -1   3    0.00    0.76
  -6   1  -3    2.33    1.02
   6  -1   3    3.99    1.19
   6  -1   3    3.55    0.75
   7   0  -3    2.65    0.91
  -7   0   3    2.39    1.15
   6   0  -3   27.49    1.60
  -6   0   3   25.16    1.70
   5   0  -3   31.20    1.49
  -5   0   3   31.05    1.54
   4   0  -3   -0.57    0.43
  -4   0   3   -0.65    0.42
   3   0  -3   33.47    1.18
  -3   0   3   32.75    0.93
  -3   0   3   33.19    1.11
   2   0  -3   86.16    2.12
  -2   0   3   87.75    2.07
  -2   0   3   86.05    2.01
   1   0  -3   11.56    0.49
  -1   0   3   11.67    0.48
  -1   0   3   11.49    0.46
   0   0  -3   21.30    0.60
   0   0   3   20.83    0.68
   0   0   3   20.24    0.68
   1   0   3   11.64    0.46
   1   0   3   12.11    0.52
   1   0   3   11.47    0.62
   2   0   3  325.89    7.03
   2   0   3  331.34    7.28
   2   0   3  336.77    7.07
   3   0   3   87.79    2.25
   3   0   3   87.40    2.49
  -4   0  -3    2.62    0.72
   4   0   3    2.05    0.73
   4   0   3    3.75    0.57
  -5   0  -3    9.68    1.17
   5   0   3   11.53    1.04
   5   0   3    8.89    1.18
  -6   0  -3   18.66    1.79
   6   0   3   22.32    1.41
   7   0   3    9.45    1.38
   7  -1  -3   27.56    1.76
  -7   1   3   25.56    1.86
   6  -1  -3   18.06    1.40
  -6   1   3   18.65    1.52
   5  -1  -3    2.53    0.66
  -5   1   3    2.48    0.69
   4  -1  -3   32.46    1.35
  -4   1   3   32.52    1.28
   3  -1  -3   99.73    2.54
  -3   1   3   97.97    2.33
  -3   1   3   99.46    2.42
   2  -1  -3   96.74    2.36
  -2   1   3   97.80    2.23
  -2   1   3   95.45    2.26
   1  -1  -3    1.00    0.22
  -1   1   3    0.90    0.22
  -1   1   3    0.87    0.19
   0  -1  -3    1.49    0.24
   0   1   3    1.81    0.27
   0   1   3    1.33    0.25
   1   1   3  233.52    4.97
   1   1   3  232.09    4.99
   1   1   3  222.64    5.06
   2   1   3   88.45    2.19
   2   1   3   88.68    2.35
   2   1   3   88.28    2.14
  -3  -1  -3    5.89    0.69
   3   1   3    5.80    0.70
   3   1   3    5.18    0.45
   3   1   3    5.51    0.57
  -4  -1  -3   14.58    1.23
   4   1   3   15.69    1.01
   4   1   3   16.59    1.36
  -5  -1  -3   22.66    1.66
   5   1   3   25.20    1.76
   5   1   3   25.55    1.37
  -6  -1  -3   20.02    1.88
   6   1   3   20.79    1.44
   7  -2  -3   14.22    1.39
  -7   2   3   12.29    1.43
   6  -2  -3    1.75    0.73
  -6   2   3   -0.41    0.75
   5  -2  -3   10.61    0.99
  -5   2   3    9.90    0.95
   4  -2  -3  157.60    3.88
  -4   2   3  150.20    3.59
  -4   2   3  161.23    3.75
   3  -2  -3  173.85    4.13
  -3   2   3  179.96    3.97
  -3   2   3  174.41    3.95
   2  -2  -3    8.65    0.59
  -2   2   3    8.69    0.50
  -2   2   3    8.94    0.43
   1  -2  -3   39.23    1.14
  -1   2   3   41.00    1.14
  -1   2   3   37.79    0.95
   0  -2  -3   53.11    1.46
   0   2   3   55.00    1.38
   0   2   3   53.11    1.43
   1   2   3  177.52    4.00
   1   2   3  175.32    4.00
   1   2   3  178.03    3.97
   2   2   3   16.64    0.70
   2   2   3   15.92    0.79
   2   2   3   15.50    0.87
  -3  -2  -3    9.66    0.90
   3   2   3    9.14    0.78
   3   2   3    8.74    0.88
  -4  -2  -3   44.46    1.93
   4   2   3   41.57    1.64
   4   2   3   43.10    1.96
  -5  -2  -3   31.95    1.95
   5   2   3   34.79    1.66
  -6  -2  -3    0.48    1.19
   6   2   3    2.58    0.83
   7  -3  -3    1.95    0.87
  -7   3   3    0.79    1.01
   6  -3  -3    1.73    0.79
  -6   3   3    0.75    0.78
   5  -3  -3   38.60    1.70
  -5   3   3   36.64    1.49
   4  -3  -3   62.04    2.03
  -4   3   3   60.87    1.75
  -4   3   3   61.92    1.78
   3  -3  -3    8.52    0.78
  -3   3   3    6.42    0.56
  -3   3   3    5.93    0.48
   2  -3  -3   15.95    0.80
  -2   3   3   16.75    0.72
  -2   3   3   15.60    0.53
   1  -3  -3   72.19    1.89
  -1   3   3   67.40    1.58
  -1   3   3   72.46    1.82
   0  -3  -3   64.58    1.76
   0   3   3   64.25    1.68
   0   3   3   63.38    1.55
   1   3   3    2.49    0.35
   1   3   3    2.86    0.42
   1   3   3    2.30    0.36
  -2  -3  -3   19.43    0.93
   2   3   3   21.21    1.00
   2   3   3   21.30    0.86
   2   3   3   19.87    0.98
  -3  -3  -3   68.24    2.21
   3   3   3   71.51    2.25
   3   3   3   67.80    2.11
  -4  -3  -3   29.25    1.70
   4   3   3   30.14    1.46
   4   3   3   30.63    1.78
  -5  -3  -3    0.91    0.95
   5   3   3    1.60    0.72
  -6  -3  -3    1.10    1.24
   6   3   3    3.98    0.89
   7  -4  -3    3.17    0.94
   6  -4  -3   15.32    1.41
   5  -4  -3   36.59    1.71
  -5   4   3   35.60    1.43
   4  -4  -3   10.74    1.03
  -4   4   3    7.54    0.67
  -4   4   3    7.78    0.69
   3  -4  -3   15.62    0.98
  -3   4   3   16.46    0.82
  -3   4   3   14.63    0.62
   2  -4  -3  136.24    3.31
  -2   4   3  132.09    2.87
  -2   4   3  135.47    3.20
   1  -4  -3  198.20    4.60
  -1   4   3  198.57    4.48
   0  -4  -3   21.56    0.94
   0  -4  -3   20.79    0.64
   0   4   3   19.62    0.65
   0   4   3   20.20    0.82
  -1  -4  -3   14.08    0.66
   1   4   3   14.95    0.73
   1   4   3   13.75    0.87
   1   4   3   13.33    0.70
  -2  -4  -3  117.09    3.00
   2   4   3  117.41    3.07
   2   4   3  115.96    3.00
   2   4   3  115.87    2.86
  -3  -4  -3   53.58    1.95
   3   4   3   52.10    1.94
   3   4   3   46.94    1.82
  -4  -4  -3   23.28    1.64
   4   4   3   21.78    1.36
  -5  -4  -3    0.08    0.97
   5   4   3    1.55    0.73
   7  -5  -3   12.99    1.39
   6  -5  -3   16.37    1.50
   5  -5  -3    7.04    0.96
  -5   5   3    6.27    0.80
   4  -5  -3    6.21    0.84
  -4   5   3    5.27    0.67
   3  -5  -3   58.47    1.95
  -3   5   3   59.88    1.78
   2  -5  -3   79.16    2.27
  -2   5   3   79.31    2.13
   1  -5  -3    2.91    0.49
  -1   5   3    2.20    0.40
   0  -5  -3    3.68    0.31
   0  -5  -3    4.00    0.55
   0   5   3    3.83    0.46
  -1  -5  -3   37.11    1.20
   1   5   3   38.11    1.28
   1   5   3   37.82    1.48
  -2  -5  -3  161.86    3.92
   2   5   3  161.71    4.05
   2   5   3  152.42    3.76
  -3  -5  -3   13.41    1.17
   3   5   3   14.51    1.16
  -4  -5  -3   -0.96    0.73
   4   5   3    0.43    0.63
  -5  -5  -3   13.74    1.60
   5   5   3   14.25    1.39
   7  -6  -3   12.43    1.40
   6  -6  -3    3.61    0.99
   5  -6  -3    2.23    0.82
  -5   6   3    2.14    0.64
   4  -6  -3   48.80    2.01
  -4   6   3   50.51    1.73
   3  -6  -3   56.02    1.97
  -3   6   3   53.75    1.76
   2  -6  -3   22.48    1.17
  -2   6   3   22.68    1.03
   1  -6  -3   10.87    0.90
  -1   6   3   10.73    0.75
   0  -6  -3   27.82    1.28
   0   6   3   29.06    1.14
  -1  -6  -3   65.47    1.91
   1   6   3   65.05    1.90
   1   6   3   64.99    2.17
  -2  -6  -3    0.34    0.47
   2   6   3   -0.36    0.52
   2   6   3   -0.12    0.53
  -3  -6  -3    0.75    0.68
   3   6   3    2.58    0.73
  -4  -6  -3   11.71    1.33
   4   6   3   11.43    1.20
  -5  -6  -3   17.54    1.80
   6  -7  -3   -0.11    0.88
   5  -7  -3   19.58    1.64
  -5   7   3   20.43    1.27
   4  -7  -3   84.20    2.77
  -4   7   3   80.33    2.47
   3  -7  -3   33.07    1.59
  -3   7   3   31.51    1.38
   2  -7  -3    1.71    0.56
  -2   7   3    1.49    0.47
   1  -7  -3   52.21    1.90
  -1   7   3   52.88    1.71
   0  -7  -3   43.80    1.70
   0   7   3   43.40    1.51
   1   7   3   72.91    2.13
   2   7   3    3.60    0.80
   3   7   3   11.70    1.26
   4   7   3   20.14    1.56
   6  -8  -3    3.36    1.13
   5  -8  -3   19.61    1.77
  -5   8   3   20.97    1.32
   4  -8  -3    4.17    0.95
  -4   8   3    3.62    0.74
   3  -8  -3   -0.18    0.63
  -3   8   3    0.06    0.49
   2  -8  -3   23.14    1.37
  -2   8   3   22.82    1.15
   1  -8  -3   43.94    1.83
  -1   8   3   45.35    1.64
   0  -8  -3   24.46    1.38
   0   8   3   25.21    1.19
  -1  -8  -3    4.95    0.81
   1   8   3    4.29    0.62
   2   8   3   24.12    1.58
   3   8   3   16.68    1.49
   6  -9  -3    6.98    1.34
   5  -9  -3    7.61    1.32
  -5   9   3    6.77    0.95
   4  -9  -3    0.81    0.87
  -4   9   3    1.44    0.67
   3  -9  -3    8.95    1.13
  -3   9   3    8.16    0.88
   2  -9  -3   41.72    1.87
  -2   9   3   41.28    1.66
   1  -9  -3    7.20    1.00
  -1   9   3    4.54    0.71
   0  -9  -3    0.65    0.60
   0   9   3   -0.04    0.47
  -1  -9  -3   39.27    1.88
   1   9   3   38.37    1.56
   3   9   3    6.61    1.12
  -6  10   3    4.97    1.09
   5 -10  -3   -0.92    1.00
  -5  10   3   -0.05    0.70
   4 -10  -3   12.19    1.47
  -4  10   3   11.74    1.13
   3 -10  -3   26.86    1.77
  -3  10   3   25.07    1.42
   2 -10  -3   15.17    1.41
  -2  10   3   16.25    1.21
   1 -10  -3    0.51    0.70
  -1  10   3    1.14    0.61
   0 -10  -3    5.66    0.99
   0  10   3    6.49    0.79
  -1 -10  -3   35.80    1.91
  -2 -10  -3   11.77    1.32
   5 -11  -3    5.40    1.38
  -5  11   3    5.72    0.99
   4 -11  -3   11.49    1.46
  -4  11   3   15.60    1.33
   3 -11  -3   12.18    1.41
  -3  11   3   12.75    1.18
   2 -11  -3    0.33    0.75
  -2  11   3    0.38    0.63
   1 -11  -3    3.21    0.88
  -1  11   3    3.60    0.75
   0 -11  -3   16.03    1.49
   0  11   3   19.76    1.26
  -1 -11  -3   11.15    1.30
  -4  12   3   10.63    1.62
   3 -12  -3    0.31    0.89
  -3  12   3   -0.05    0.68
   2 -12  -3    3.80    1.00
  -2  12   3    5.34    0.88
   1 -12  -3   11.17    1.39
  -1  12   3   10.76    1.09
   0  12   3   12.94    1.20
  -1  15  -4    6.94    1.47
  -1 -14   4    9.41    1.24
   0  14  -4   17.78    1.40
   0 -14   4   17.19    1.54
  -1  14  -4    6.16    0.90
   1 -14   4    5.17    1.01
  -2  14  -4    1.74    0.74
  -3  14  -4    6.58    1.02
  -1 -13   4   20.12    1.59
   0  13  -4   13.50    1.14
   0 -13   4   13.64    1.34
  -1  13  -4   -0.16    0.60
   1 -13   4   -0.21    0.60
  -2  13  -4    5.88    0.88
   2 -13   4    5.57    0.89
  -3  13  -4   15.10    1.31
  -4  13  -4    3.20    0.93
  -5  13  -4    0.54    0.95
   2  12  -4   21.24    1.65
  -1 -12   4   17.44    1.41
   0  12  -4    0.06    0.50
   0 -12   4    1.11    0.59
  -1  12  -4    8.26    0.95
   1 -12   4    9.82    1.02
  -2  12  -4   23.23    1.43
   2 -12   4   23.48    1.35
  -3  12  -4   15.27    1.31
   3 -12   4   12.27    1.76
  -4  12  -4   -0.17    0.74
  -5  12  -4    5.97    1.03
  -6  12  -4    9.45    1.25
   3  11  -4   30.36    1.82
   2  11  -4   11.98    1.29
   0  11  -4   14.14    1.04
   0 -11   4   17.36    1.21
  -1  11  -4   27.77    1.41
   1 -11   4   30.94    1.43
  -2  11  -4   32.43    1.58
   2 -11   4   34.32    1.47
  -3  11  -4    0.11    0.64
   3 -11   4   -0.15    0.52
  -4  11  -4    3.53    0.87
  -5  11  -4   17.05    1.47
  -6  11  -4    9.01    1.20
   4  10  -4   12.99    1.42
  -4 -10   4   10.78    1.27
   3  10  -4   18.84    1.44
  -3 -10   4   18.42    1.45
   2  10  -4   -0.06    0.57
  -2 -10   4    0.34    0.59
   1  10  -4   14.86    1.21
   1  10  -4   13.46    0.91
  -1 -10   4   15.00    1.02
   0  10  -4   29.85    1.31
   0 -10   4   31.16    1.44
  -1  10  -4   11.99    1.03
   1 -10   4   15.27    1.00
  -2  10  -4    0.08    0.56
   2 -10   4    1.04    0.45
  -3  10  -4   11.38    1.07
   3 -10   4   13.70    1.05
  -4  10  -4   16.99    1.31
   4 -10   4   15.35    1.54
  -5  10  -4   16.24    1.43
   4   9  -4   25.81    1.62
  -4  -9   4   24.56    1.69
   3   9  -4    0.80    0.63
  -3  -9   4   -0.09    0.65
   2   9  -4   18.65    1.25
  -2  -9   4   18.15    1.16
   1   9  -4   73.31    2.35
   1   9  -4   70.38    2.07
  -1  -9   4   73.58    2.18
   0   9  -4   46.38    1.63
   0  -9   4   49.66    1.73
   0  -9   4   48.21    1.58
  -1   9  -4    0.05    0.46
   1  -9   4    1.13    0.43
   1  -9   4    0.74    0.40
  -2   9  -4   34.41    1.44
   2  -9   4   32.25    1.26
   2  -9   4   33.29    1.35
  -3   9  -4   37.72    1.65
   3  -9   4   40.29    1.49
   3  -9   4   36.21    1.70
  -4   9  -4   27.46    1.56
   4  -9   4   28.91    1.42
  -5   9  -4    3.56    0.89
   5   8  -4   12.26    1.35
  -5  -8   4    9.96    1.35
   4   8  -4    4.72    0.89
  -4  -8   4    4.80    0.92
   3   8  -4   11.79    1.11
  -3  -8   4   11.21    1.05
   2   8  -4   54.55    1.92
  -2  -8   4   52.58    1.84
   1   8  -4  138.15    3.55
   1   8  -4  138.86    3.36
  -1  -8   4  138.33    3.45
   0   8  -4   15.84    0.91
   0  -8   4   17.15    0.85
  -1   8  -4   18.16    1.00
   1  -8   4   17.45    0.89
   1  -8   4   16.99    0.85
  -2   8  -4   50.32    1.70
   2  -8   4   46.44    1.64
   2  -8   4   46.71    1.46
  -3   8  -4   26.49    1.36
   3  -8   4   33.32    1.43
   3  -8   4   30.50    1.26
  -4   8  -4   10.56    1.03
   4  -8   4   11.63    1.05
   4  -8   4    9.81    0.88
  -5   8  -4    3.14    0.78
   5  -8   4    1.67    0.74
   5   7  -4    1.44    0.73
  -5  -7   4    1.52    0.92
   4   7  -4   13.45    1.19
  -4  -7   4   11.44    1.16
   3   7  -4   28.37    1.41
  -3  -7   4   29.58    1.44
   2   7  -4   38.51    1.49
  -2  -7   4   39.65    1.49
   1   7  -4   27.04    1.03
   1   7  -4   27.58    1.15
  -1  -7   4   28.21    1.11
   0   7  -4   16.56    0.85
   0  -7   4   15.10    0.76
  -1   7  -4   77.60    2.09
   1  -7   4   71.55    2.03
   1  -7   4   73.89    1.92
  -2   7  -4   66.35    1.98
   2  -7   4   67.10    1.76
   2  -7   4   63.91    2.02
  -3   7  -4    2.41    0.62
   3  -7   4    2.32    0.50
   3  -7   4    2.71    0.61
  -4   7  -4   12.20    1.02
   4  -7   4   10.57    0.95
   4  -7   4   10.21    0.98
  -5   7  -4   16.46    1.28
   5  -7   4   17.05    1.20
   5  -7   4   18.10    1.41
  -6   7  -4   19.00    1.43
   6  -7   4   17.71    1.60
  -7   7  -4    3.25    1.13
   7  -7   4    1.96    1.24
   5   6  -4    7.64    1.04
  -5  -6   4    8.26    1.19
   4   6  -4   50.23    1.95
  -4  -6   4   53.68    2.01
   3   6  -4   39.61    1.56
  -3  -6   4   41.38    1.58
   2   6  -4    9.98    0.57
   2   6  -4   10.38    0.77
  -2  -6   4    8.91    0.75
   1   6  -4   17.01    0.80
   1   6  -4   16.54    0.77
  -1  -6   4   17.64    0.83
   0   6  -4  122.60    2.88
   0   6  -4  116.89    2.84
   0  -6   4  116.99    2.86
  -1   6  -4   98.30    2.50
   1  -6   4   99.63    2.51
   1  -6   4   96.17    2.30
  -2   6  -4   38.84    1.37
   2  -6   4   38.59    1.13
   2  -6   4   36.20    1.40
  -3   6  -4   27.00    1.24
   3  -6   4   26.69    1.28
   3  -6   4   27.17    1.06
  -4   6  -4   49.51    1.79
   4  -6   4   48.88    1.63
   4  -6   4   48.28    1.84
  -5   6  -4   36.56    1.67
   5  -6   4   41.79    1.91
   5  -6   4   39.23    1.56
  -6   6  -4    6.84    1.04
   6  -6   4    5.19    1.13
  -7   6  -4    1.12    1.05
   7  -6   4   -0.79    1.13
   6   5  -4    2.61    0.85
  -6  -5   4    1.30    1.02
   5   5  -4   31.13    1.62
  -5  -5   4   32.48    1.76
   4   5  -4   49.03    1.84
  -4  -5   4   49.07    1.88
   3   5  -4    6.95    0.70
  -3  -5   4    9.35    0.81
   2   5  -4   10.33    0.56
   2   5  -4   12.15    0.72
  -2  -5   4   12.93    0.76
   1   5  -4   88.88    2.25
  -1  -5   4   94.43    2.32
   0   5  -4   64.92    1.66
   0  -5   4   68.11    1.76
   1  -5   4   41.55    1.32
   2  -5   4   14.58    0.63
   2  -5   4   15.24    0.91
   3  -5   4  100.30    2.83
   3  -5   4  103.94    2.50
  -4   5  -4   44.82    1.67
   4  -5   4   47.21    1.54
   4  -5   4   51.06    1.93
   5  -5   4   16.44    1.37
   5  -5   4   15.35    1.06
  -6   5  -4    4.31    0.99
   6  -5   4    1.29    1.01
  -7   5  -4   11.15    1.52
   7  -5   4    8.15    1.53
   6   4  -4   16.26    1.40
  -6  -4   4   16.13    1.60
   5   4  -4   43.89    1.86
  -5  -4   4   45.65    2.02
   4   4  -4   20.03    1.18
  -4  -4   4   22.22    1.25
   3   4  -4   32.25    1.24
  -3  -4   4   30.37    1.23
   2   4  -4  105.56    2.62
  -2  -4   4  108.21    2.68
   1   4  -4  154.14    3.50
  -1  -4   4  160.52    3.61
   0  -4   4   11.21    0.57
   1  -4   4    0.35    0.28
   2  -4   4  142.67    3.09
   2  -4   4  136.75    3.51
   3  -4   4   90.66    2.60
   3  -4   4   91.56    2.24
   4  -4   4   34.90    1.29
   4  -4   4   38.17    1.70
   5  -4   4    4.06    0.94
   5  -4   4    4.71    0.67
  -6   4  -4   30.40    1.91
   6  -4   4   26.93    1.98
  -7   4  -4   11.87    1.59
   7  -4   4   11.38    1.68
   6   3  -4   26.20    1.60
  -6  -3   4   25.83    1.76
   5   3  -4   13.32    1.17
  -5  -3   4   12.03    1.16
   4   3  -4    7.87    0.83
  -4  -3   4    9.59    0.92
   3   3  -4   94.54    2.50
  -3  -3   4   95.08    2.51
   2   3  -4  261.38    5.75
  -2  -3   4  264.03    5.80
   1   3  -4  170.30    3.76
  -1  -3   4  175.50    3.89
   0  -3   4   18.25    0.71
   1  -3   4   74.47    2.00
   2  -3   4  126.66    3.24
   3  -3   4   45.87    1.32
   3  -3   4   44.72    1.65
   4  -3   4    8.49    0.98
   4  -3   4    8.43    0.71
  -5   3  -4   29.32    1.66
   5  -3   4   31.33    1.78
   5  -3   4   26.83    1.30
  -6   3  -4   19.66    1.66
   6  -3   4   19.10    1.28
   6  -3   4   21.20    1.79
   6   2  -4    8.47    1.09
  -6  -2   4    6.14    1.12
   5   2  -4   -0.24    0.58
  -5  -2   4    1.12    0.72
   4   2  -4   62.58    2.00
  -4  -2   4   61.53    2.00
   3   2  -4   72.82    2.03
  -3  -2   4   72.80    2.01
   2   2  -4   94.77    2.29
  -2  -2   4   94.09    2.31
  -2  -2   4   91.36    2.13
   1   2  -4   92.47    2.16
  -1  -2   4   95.86    2.28
  -1  -2   4   98.76    2.22
   0  -2   4  115.20    2.72
   0  -2   4  120.12    2.70
   1  -2   4  108.30    2.71
   2  -2   4   26.52    0.79
   2  -2   4   27.18    1.13
   3  -2   4    1.53    0.34
   3  -2   4    1.61    0.50
   4  -2   4   46.30    1.89
   4  -2   4   48.14    1.54
  -5   2  -4   40.20    1.95
   5  -2   4   39.02    1.55
   5  -2   4   40.77    2.04
  -6   2  -4    4.46    1.12
   6  -2   4    5.76    0.83
   6  -2   4    5.01    1.24
   7   1  -4   11.50    1.37
  -7  -1   4   13.34    1.53
   6   1  -4    0.79    0.77
  -6  -1   4    0.58    0.86
   5   1  -4   42.14    1.77
  -5  -1   4   41.62    1.74
   4   1  -4   57.73    1.89
  -4  -1   4   58.22    1.87
   3   1  -4   53.26    1.62
  -3  -1   4   54.88    1.60
  -3  -1   4   52.20    1.34
   2   1  -4    6.13    0.48
  -2  -1   4    5.70    0.38
  -2  -1   4    6.43    0.50
   1   1  -4  279.67    5.97
  -1  -1   4  284.22    6.04
  -1  -1   4  283.74    6.05
   0  -1   4  197.39    4.31
   0  -1   4  194.32    4.33
   1  -1   4   57.30    1.50
   1  -1   4   56.75    1.67
   2  -1   4   24.32    1.07
   2  -1   4   24.17    0.79
   3  -1   4   70.96    2.21
   3  -1   4   72.50    1.89
   4  -1   4  114.60    3.31
   4  -1   4  112.72    2.91
  -5   1  -4   25.91    1.67
   5  -1   4   30.47    1.80
   5  -1   4   27.81    1.33
  -6   1  -4   -0.37    0.95
   6  -1   4   -0.43    1.08
   6  -1   4    0.68    0.60
   7   0  -4    0.27    0.83
  -7   0   4   -1.60    0.94
   6   0  -4   10.79    1.21
  -6   0   4   12.94    1.28
   5   0  -4   53.63    1.98
  -5   0   4   53.27    1.93
   4   0  -4   38.95    1.52
  -4   0   4   41.03    1.47
   3   0  -4    6.89    0.63
  -3   0   4    6.20    0.55
  -3   0   4    5.64    0.45
   2   0  -4  252.54    5.57
  -2   0   4  253.94    5.51
  -2   0   4  257.33    5.52
   1   0  -4  168.39    3.72
  -1   0   4  168.50    3.72
  -1   0   4  172.14    3.79
   0   0  -4  132.59    2.92
   0   0   4  133.68    3.05
   0   0   4  133.02    3.06
   1   0   4   15.03    0.57
   1   0   4   15.00    0.77
   1   0   4   15.80    0.67
   2   0   4   47.59    1.57
   2   0   4   45.54    1.33
   2   0   4   47.63    1.31
   3   0   4   81.45    2.43
   3   0   4   79.96    2.13
  -4   0  -4   48.58    1.94
   4   0   4   51.60    1.69
   4   0   4   47.87    1.99
  -5   0  -4   -0.09    0.78
   5   0   4   -0.41    0.87
   5   0   4    0.87    0.54
  -6   0  -4    1.54    1.08
   6   0   4    3.81    0.77
   6   0   4    2.03    1.25
   7  -1  -4   15.89    1.50
  -7   1   4   18.39    1.72
   6  -1  -4   32.61    1.74
  -6   1   4   34.13    1.76
   5  -1  -4   13.18    1.12
  -5   1   4   12.08    1.03
   4  -1  -4    2.09    0.60
  -4   1   4    1.11    0.43
  -4   1   4    1.96    0.52
   3  -1  -4   60.80    1.83
  -3   1   4   63.98    1.70
  -3   1   4   62.71    1.68
   2  -1  -4  240.32    5.45
  -2   1   4  252.46    5.34
  -2   1   4  248.46    5.41
   1  -1  -4   72.77    1.78
  -1   1   4   68.36    1.69
  -1   1   4   73.48    1.84
   0  -1  -4    1.12    0.25
   0   1   4    1.21    0.28
   0   1   4    1.11    0.27
   1   1   4  117.74    2.91
   1   1   4  118.88    2.82
   1   1   4  119.18    2.77
   2   1   4   87.86    2.24
   2   1   4   89.40    2.45
   2   1   4   89.31    2.25
   3   1   4   61.64    1.71
   3   1   4   61.15    2.08
   3   1   4   63.89    1.85
  -4  -1  -4    1.97    0.77
   4   1   4    2.12    0.85
   4   1   4    2.90    0.60
  -5  -1  -4   15.67    1.56
   5   1   4   16.22    1.56
   5   1   4   18.57    1.26
  -6  -1  -4   14.11    1.69
   6   1   4   17.82    1.40
   7  -2  -4   20.65    1.65
  -7   2   4   20.66    1.71
   6  -2  -4   22.24    1.53
  -6   2   4   24.61    1.51
   5  -2  -4   -0.10    0.60
  -5   2   4   -0.07    0.55
   4  -2  -4   29.18    1.35
  -4   2   4   27.11    1.06
  -4   2   4   25.85    1.11
   3  -2  -4  172.44    4.14
  -3   2   4  175.52    3.92
  -3   2   4  174.47    4.00
   2  -2  -4  133.82    3.27
  -2   2   4  137.56    3.06
  -2   2   4  139.61    3.22
   1  -2  -4   22.31    0.83
  -1   2   4   22.01    0.84
  -1   2   4   19.94    0.66
   0  -2  -4  155.75    3.64
   0   2   4  160.28    3.65
   0   2   4  159.13    3.60
   1   2   4  165.11    3.82
   1   2   4  166.32    3.82
   1   2   4  163.05    3.83
   2   2   4   40.16    1.45
   2   2   4   37.89    1.26
   2   2   4   42.05    1.37
  -3  -2  -4   12.51    1.07
   3   2   4   13.16    0.94
   3   2   4   13.07    1.10
  -4  -2  -4   10.64    1.17
   4   2   4   14.69    1.07
   4   2   4   11.99    1.24
  -5  -2  -4   15.58    1.58
   5   2   4   16.41    1.26
   5   2   4   14.91    1.63
  -6  -2  -4   12.57    1.70
   6   2   4   17.32    1.42
   7  -3  -4   16.64    1.55
   6  -3  -4    1.19    0.76
  -6   3   4    0.57    0.74
   5  -3  -4   18.62    1.35
  -5   3   4   17.52    1.11
   4  -3  -4   56.09    1.95
  -4   3   4   54.83    1.64
  -4   3   4   55.88    1.68
   3  -3  -4   83.18    2.37
  -3   3   4   81.01    2.02
  -3   3   4   84.40    2.21
   2  -3  -4    8.26    0.68
  -2   3   4    8.72    0.42
  -2   3   4    8.00    0.60
   1  -3  -4   37.97    1.24
  -1   3   4   36.88    1.18
  -1   3   4   34.86    0.98
   0  -3  -4  148.21    3.58
   0   3   4  153.43    3.55
   0   3   4  150.83    3.41
   1   3   4   68.96    1.90
   1   3   4   69.68    1.97
   1   3   4   69.00    1.90
  -2  -3  -4    3.48    0.56
   2   3   4    5.16    0.61
   2   3   4    4.08    0.63
   2   3   4    3.95    0.50
  -3  -3  -4   25.95    1.43
   3   3   4   29.73    1.35
   3   3   4   28.75    1.53
  -4  -3  -4   56.44    2.33
   4   3   4   60.07    2.39
   4   3   4   61.35    2.13
  -5  -3  -4    8.77    1.36
   5   3   4   10.79    1.11
   6   3   4    2.67    0.92
   7  -4  -4    4.09    1.02
   6  -4  -4   14.72    1.45
   5  -4  -4   29.72    1.64
   4  -4  -4   25.96    1.44
  -4   4   4   29.55    1.21
   3  -4  -4    3.25    0.60
  -3   4   4    2.73    0.48
   2  -4  -4    9.60    0.78
  -2   4   4    8.51    0.63
  -2   4   4    7.30    0.41
   1  -4  -4  131.12    3.28
  -1   4   4  129.16    3.16
   0  -4  -4   73.42    2.08
   0   4   4   73.65    1.99
   0   4   4   70.38    1.78
  -1  -4  -4    2.82    0.43
   1   4   4    3.59    0.49
   1   4   4    3.78    0.58
   1   4   4    3.83    0.51
  -2  -4  -4   25.14    1.17
   2   4   4   25.25    1.24
   2   4   4   24.84    1.23
   2   4   4   23.45    1.05
  -3  -4  -4  115.17    3.28
   3   4   4  112.89    3.27
   3   4   4  112.37    3.18
  -4  -4  -4   27.82    1.80
   4   4   4   25.12    1.48
  -5  -4  -4    0.96    1.07
   5   4   4    2.70    0.79
   7  -5  -4    5.30    1.10
   6  -5  -4   21.84    1.64
   5  -5  -4   25.80    1.61
  -5   5   4   25.78    1.30
   4  -5  -4    4.04    0.81
  -4   5   4    4.08    0.63
   3  -5  -4   38.10    1.62
  -3   5   4   39.29    1.43
   2  -5  -4  117.90    3.16
  -2   5   4  120.39    3.03
   1  -5  -4   62.86    1.96
  -1   5   4   58.84    1.78
   0  -5  -4   20.45    0.79
   0  -5  -4   20.18    1.07
   0   5   4   22.09    0.98
  -1  -5  -4   -0.03    0.33
   1   5   4    0.11    0.36
   1   5   4    0.35    0.39
   1   5   4    0.12    0.48
  -2  -5  -4   31.25    1.36
   2   5   4   31.67    1.40
   2   5   4   31.86    1.26
   2   5   4   34.02    1.53
  -3  -5  -4   60.55    2.23
   3   5   4   54.38    2.11
  -4  -5  -4    3.37    1.02
   4   5   4    4.23    0.84
  -5  -5  -4   -0.16    1.07
   5   5   4    0.84    0.74
   6  -6  -4   18.49    1.69
   5  -6  -4    4.27    0.98
  -5   6   4    4.01    0.72
   4  -6  -4   21.07    1.53
  -4   6   4   21.23    1.20
   3  -6  -4   66.36    2.28
  -3   6   4   66.18    2.07
   2  -6  -4   67.63    2.17
  -2   6   4   62.95    1.96
   1  -6  -4    6.05    0.75
  -1   6   4    5.46    0.60
   0  -6  -4    8.09    0.85
   0   6   4    8.59    0.75
   1   6   4   58.89    1.85
   2   6   4   74.15    2.49
  -3  -6  -4    6.07    1.13
   3   6   4    8.40    1.05
  -4  -6  -4    2.16    1.05
   4   6   4    2.61    0.80
   6  -7  -4    3.27    1.09
   5  -7  -4    1.26    0.90
  -5   7   4    0.15    0.60
   4  -7  -4   39.18    1.97
  -4   7   4   38.18    1.62
   3  -7  -4   61.23    2.26
  -3   7   4   61.27    2.03
   2  -7  -4   11.65    1.08
  -2   7   4   13.34    0.95
   1  -7  -4   18.39    1.21
  -1   7   4   17.04    1.02
   0  -7  -4   44.55    1.80
   0   7   4   45.30    1.61
  -1  -7  -4   16.84    1.24
   1   7   4   17.72    1.01
   2   7   4   14.53    1.32
   3   7   4    0.88    0.74
   4   7   4   22.63    1.68
   6  -8  -4   -0.35    1.01
   5  -8  -4   22.32    1.92
  -5   8   4   23.56    1.43
   4  -8  -4   20.37    1.72
  -4   8   4   19.64    1.29
   3  -8  -4   18.76    1.50
  -3   8   4   17.84    1.20
   2  -8  -4    0.39    0.61
  -2   8   4   -0.15    0.48
   1  -8  -4   32.15    1.62
  -1   8   4   29.42    1.37
   0  -8  -4   34.85    1.67
   0   8   4   34.50    1.45
  -1  -8  -4    9.07    1.02
   1   8   4    9.17    0.88
   3   8   4   13.48    1.46
   6  -9  -4    4.85    1.66
   5  -9  -4   10.75    1.52
  -5   9   4   10.96    1.15
   4  -9  -4    1.72    1.00
  -4   9   4    2.96    0.76
   3  -9  -4    0.54    0.76
  -3   9   4    0.35    0.59
   2  -9  -4   30.30    1.72
  -2   9   4   29.91    1.47
   1  -9  -4   36.72    1.82
  -1   9   4   33.84    1.54
   0  -9  -4    5.59    0.91
   0   9   4    6.42    0.79
  -1  -9  -4    0.70    0.64
   1   9   4    0.57    0.54
  -2  -9  -4   19.32    1.54
  -6  10   4   10.99    1.36
   5 -10  -4    0.72    1.14
  -5  10   4    1.53    0.81
   4 -10  -4    0.79    1.02
  -4  10   4    0.58    0.71
   3 -10  -4   17.80    1.65
  -3  10   4   17.57    1.26
   2 -10  -4   26.09    1.72
  -2  10   4   27.09    1.47
   1 -10  -4    6.52    1.08
  -1  10   4    6.05    0.84
   0 -10  -4    0.40    0.71
   0  10   4   -0.26    0.53
  -1 -10  -4   11.43    1.27
  -5  11   4   -0.16    1.03
   4 -11  -4    7.24    1.33
  -4  11   4    9.64    1.14
   3 -11  -4   16.09    1.61
  -3  11   4   19.40    1.41
   2 -11  -4    8.18    1.19
  -2  11   4    7.48    1.00
   1 -11  -4    0.08    0.72
  -1  11   4   -0.46    0.56
   0 -11  -4    7.46    1.15
   0  11   4    8.75    0.99
  -2  12   4    0.19    0.70
  -1  12   4    6.00    0.95
   0  12   4    8.17    1.01
  -1  15  -5    7.35    1.07
  -1 -14   5    2.12    0.84
   0  14  -5   21.35    1.39
  -1  14  -5   16.46    1.35
  -2  14  -5    2.50    0.83
  -3  14  -5    1.87    0.82
   2  13  -5    1.03    0.88
  -1 -13   5   16.76    1.50
   0  13  -5   21.21    1.34
   0 -13   5   24.30    1.56
  -1  13  -5    8.72    1.02
  -2  13  -5    0.99    0.69
  -3  13  -5   14.74    1.38
  -4  13  -5   11.45    1.24
  -5  13  -5    2.72    1.17
   3  12  -5    1.39    0.88
   2  12  -5   14.67    1.45
   0  12  -5    8.90    0.92
   0 -12   5   12.08    1.13
  -1  12  -5    0.23    0.60
   1 -12   5    0.58    0.57
  -2  12  -5   18.22    1.30
  -3  12  -5   25.22    1.58
  -4  12  -5    4.55    1.01
  -5  12  -5    2.12    0.92
  -4 -11   5   -0.66    0.99
   3  11  -5   19.20    1.55
  -3 -11   5   19.33    1.67
   2  11  -5   27.09    1.65
  -2 -11   5   28.02    2.16
   1  11  -5    8.21    1.03
   1  11  -5    9.18    1.33
   0  11  -5    0.79    0.52
   0 -11   5    0.00    0.48
  -1  11  -5    9.85    0.95
   1 -11   5   11.21    0.98
  -2  11  -5   54.98    2.10
  -3  11  -5   11.24    1.15
  -4  11  -5   -0.53    0.75
  -5  11  -5   10.67    1.24
  -6  11  -5   10.49    1.34
   4  10  -5   15.75    1.46
  -4 -10   5   13.41    1.36
   3  10  -5   24.76    1.56
  -3 -10   5   22.41    1.51
   2  10  -5   16.18    1.27
  -2 -10   5   13.43    1.14
   1  10  -5    2.72    0.54
  -1 -10   5    2.91    0.65
   0  10  -5   21.12    1.17
   0 -10   5   21.76    1.12
   0 -10   5   21.39    1.19
  -1  10  -5   32.57    1.47
   1 -10   5   37.37    1.45
   1 -10   5   34.54    1.37
  -2  10  -5   11.62    1.12
   2 -10   5   11.43    0.90
  -3  10  -5    0.73    0.66
  -4  10  -5    9.98    1.14
  -5  10  -5   23.58    1.63
   4   9  -5   50.00    2.16
  -4  -9   5   48.40    2.18
   3   9  -5   25.24    1.48
  -3  -9   5   24.40    1.43
   2   9  -5    0.73    0.54
  -2  -9   5   -0.04    0.52
   1   9  -5   38.07    1.46
   1   9  -5   41.25    1.65
  -1  -9   5   44.26    1.61
   0   9  -5   78.34    2.26
   0  -9   5   77.88    2.26
   0  -9   5   73.00    2.20
  -1   9  -5   44.44    1.63
   1  -9   5   46.06    1.59
   1  -9   5   46.08    1.49
  -2   9  -5    1.99    0.60
   2  -9   5    1.68    0.44
   2  -9   5    1.67    0.55
  -3   9  -5   15.86    1.23
   3  -9   5   16.69    1.17
  -4   9  -5   43.53    1.92
   4  -9   5   45.15    1.85
  -5   9  -5   14.46    1.35
   5   8  -5   21.78    1.59
  -5  -8   5   18.40    1.78
   4   8  -5   12.44    1.21
  -4  -8   5   11.37    1.22
   3   8  -5   -0.05    0.51
  -3  -8   5    0.49    0.63
   2   8  -5   23.44    1.26
  -2  -8   5   25.35    1.25
   1   8  -5  133.94    3.44
   1   8  -5  134.57    3.31
  -1  -8   5  136.94    3.43
   0   8  -5   72.17    2.09
   0  -8   5   72.57    2.10
  -1   8  -5    0.07    0.47
   1  -8   5    0.42    0.41
   1  -8   5    0.87    0.33
  -2   8  -5   17.28    1.09
   2  -8   5   16.55    0.80
   2  -8   5   17.95    1.10
  -3   8  -5   48.23    1.85
   3  -8   5   52.40    1.97
   3  -8   5   47.95    2.05
  -4   8  -5   39.86    1.79
   4  -8   5   44.41    1.84
  -5   8  -5    2.82    0.84
   5  -8   5    2.86    0.84
   6  -8   5    1.08    0.96
   5   7  -5   25.13    1.58
  -5  -7   5   24.47    1.78
   4   7  -5    0.35    0.57
  -4  -7   5    1.07    0.76
   3   7  -5   21.72    1.25
  -3  -7   5   24.78    1.35
   2   7  -5   63.30    1.95
   2   7  -5   58.14    2.10
  -2  -7   5   62.88    1.96
   1   7  -5   61.88    1.86
   1   7  -5   64.35    1.80
  -1  -7   5   65.16    1.90
   0   7  -5   10.24    0.81
   0  -7   5    9.89    0.67
  -1   7  -5   22.93    1.07
   1  -7   5   22.60    0.82
   1  -7   5   24.19    1.05
  -2   7  -5   59.76    1.90
   2  -7   5   59.29    1.59
   2  -7   5   59.01    1.97
  -3   7  -5   40.61    1.60
   3  -7   5   36.88    1.63
   3  -7   5   39.61    1.32
  -4   7  -5    0.27    0.65
   4  -7   5    0.14    0.64
  -5   7  -5    4.45    0.87
   5  -7   5    3.79    0.93
   6  -7   5   19.23    1.66
  -7   7  -5   10.80    1.39
   5   6  -5    2.33    0.78
  -5  -6   5    0.96    0.84
   4   6  -5   16.77    1.21
  -4  -6   5   16.89    1.26
   3   6  -5   60.17    1.95
  -3  -6   5   57.47    1.95
   2   6  -5   83.56    2.28
   2   6  -5   82.90    2.10
  -2  -6   5   83.13    2.32
   1   6  -5    6.14    0.54
  -1  -6   5    6.02    0.57
   0   6  -5   50.03    1.40
   0  -6   5   51.04    1.53
   1  -6   5  115.33    2.95
   2  -6   5   80.05    2.40
   3  -6   5    0.97    0.35
   3  -6   5    1.91    0.59
  -4   6  -5   13.22    1.17
   4  -6   5   14.04    1.29
  -5   6  -5   31.36    1.80
   5  -6   5   31.09    1.76
  -6   6  -5   26.62    1.72
   6  -6   5   25.52    1.93
  -7   6  -5    2.10    1.24
   7  -6   5    1.87    1.31
   6   5  -5    1.00    0.76
  -6  -5   5    0.71    0.97
   5   5  -5    9.65    1.08
  -5  -5   5   11.94    1.28
   4   5  -5   93.23    2.73
  -4  -5   5   89.64    2.73
   3   5  -5   36.55    1.41
  -3  -5   5   37.12    1.48
   2   5  -5    3.55    0.45
  -2  -5   5    4.33    0.57
   1   5  -5   30.50    0.97
  -1  -5   5   30.46    1.09
   0  -5   5  199.39    4.55
   1  -5   5  138.06    3.40
   2  -5   5   10.10    0.83
   3  -5   5   18.59    0.78
   3  -5   5   19.86    1.19
   4  -5   5   35.52    1.75
   4  -5   5   36.31    1.29
   5  -5   5   50.84    2.27
  -6   5  -5    4.72    1.03
   6  -5   5    2.99    1.11
   6   4  -5    6.87    1.07
  -6  -4   5    5.00    1.14
   5   4  -5   41.43    1.81
  -5  -4   5   41.59    1.88
   4   4  -5   71.60    2.28
  -4  -4   5   73.38    2.33
   3   4  -5    8.11    0.74
  -3  -4   5    7.58    0.77
   2   4  -5    7.58    0.54
  -2  -4   5    8.71    0.65
   1   4  -5  240.52    5.29
  -1  -4   5  251.23    5.47
   0  -4   5  203.24    4.59
   1  -4   5   41.65    1.38
   2  -4   5   42.05    1.56
   3  -4   5   64.17    1.65
   3  -4   5   61.76    2.12
   4  -4   5   59.14    1.73
   4  -4   5   56.38    2.22
   5  -4   5   11.18    1.28
  -6   4  -5    1.23    0.92
   6  -4   5    0.99    1.06
   6   3  -5   24.45    1.61
  -6  -3   5   27.60    1.84
   5   3  -5   54.20    2.09
  -5  -3   5   59.39    2.16
   4   3  -5    0.98    0.51
  -4  -3   5    0.74    0.53
   3   3  -5   18.96    0.96
  -3  -3   5   19.68    0.97
   2   3  -5   83.23    2.11
  -2  -3   5   84.53    2.19
   1   3  -5  411.36    8.85
  -1  -3   5  435.80    9.05
   0  -3   5   24.67    0.89
   1  -3   5   10.82    0.70
   2  -3   5  134.13    3.48
   3  -3   5   57.88    1.55
   3  -3   5   58.29    2.01
   4  -3   5   34.80    1.70
   4  -3   5   34.18    1.26
   5  -3   5    1.51    0.90
   5  -3   5    1.51    0.55
  -6   3  -5   12.51    1.43
   6  -3   5   10.63    1.45
   6   2  -5   42.64    1.97
  -6  -2   5   42.88    2.03
   5   2  -5   20.29    1.34
  -5  -2   5   18.85    1.37
   4   2  -5   37.99    1.54
  -4  -2   5   36.98    1.50
   3   2  -5   54.52    1.68
  -3  -2   5   54.56    1.41
  -3  -2   5   56.45    1.68
   2   2  -5  200.77    4.56
  -2  -2   5  208.77    4.51
  -2  -2   5  206.48    4.63
   1   2  -5   31.35    0.89
  -1  -2   5   33.46    1.01
  -1  -2   5   31.98    1.02
   0  -2   5    0.15    0.24
   0  -2   5    0.22    0.22
   1  -2   5  123.09    2.93
   1  -2   5  124.71    3.11
   2  -2   5  149.86    3.79
   3  -2   5    7.38    0.58
   3  -2   5    7.28    0.82
   4  -2   5    7.23    0.66
   4  -2   5    6.09    0.92
  -5   2  -5   22.95    1.53
   5  -2   5   22.26    1.19
   5  -2   5   22.66    1.67
  -6   2  -5   14.52    1.51
   6  -2   5   15.72    1.70
   7   1  -5   19.40    2.32
  -7  -1   5   19.90    1.87
   6   1  -5   24.14    1.59
  -6  -1   5   24.24    1.66
   5   1  -5    1.11    0.72
  -5  -1   5    3.97    0.81
   4   1  -5   80.88    2.38
  -4  -1   5   78.90    2.31
   3   1  -5   78.07    2.13
  -3  -1   5   79.94    2.10
  -3  -1   5   75.02    1.92
   2   1  -5  135.85    3.19
  -2  -1   5  139.26    3.21
  -2  -1   5  135.89    3.15
   1   1  -5   50.78    1.33
  -1  -1   5   53.14    1.42
  -1  -1   5   52.11    1.43
   0  -1   5   39.53    1.19
   0  -1   5   38.77    1.19
   1  -1   5  320.46    6.92
   1  -1   5  315.96    7.10
   2  -1   5   21.39    1.09
   2  -1   5   21.32    0.86
   2  -1   5   20.56    0.74
   3  -1   5    1.13    0.60
   3  -1   5    2.10    0.39
   4  -1   5   53.47    1.70
  -5   1  -5   42.55    2.05
   5  -1   5   42.20    1.64
   5  -1   5   44.05    2.17
  -6   1  -5    6.75    1.28
   6  -1   5    8.09    1.44
   7   0  -5    1.11    0.93
  -7   0   5    0.22    0.98
   6   0  -5   -0.02    0.78
  -6   0   5   -0.39    0.75
   5   0  -5   56.78    2.10
  -5   0   5   57.79    1.99
   4   0  -5   76.79    2.31
  -4   0   5   76.29    2.18
   3   0  -5   34.99    1.30
  -3   0   5   37.56    1.24
  -3   0   5   36.51    1.16
   2   0  -5   42.36    1.31
  -2   0   5   43.24    1.28
  -2   0   5   43.10    1.26
   1   0  -5  169.14    3.76
  -1   0   5  169.14    3.86
  -1   0   5  169.35    3.78
   0   0  -5  127.33    2.89
   0   0   5  129.08    3.05
   0   0   5  129.62    3.05
   1   0   5  173.85    4.14
   1   0   5  177.99    4.01
   1   0   5  170.21    3.85
   2   0   5    0.83    0.30
   2   0   5    0.41    0.32
   2   0   5    0.21    0.44
   3   0   5   30.41    1.15
   3   0   5   28.71    1.45
   4   0   5   90.16    2.95
   4   0   5   92.37    2.55
  -5   0  -5   25.73    1.76
   5   0   5   25.73    1.87
   5   0   5   25.22    1.35
  -6   0  -5    0.30    1.07
   6   0   5   -0.50    1.20
   7  -1  -5   -0.07    0.90
  -7   1   5    0.26    0.93
   6  -1  -5   16.51    1.45
  -6   1   5   16.74    1.37
   5  -1  -5   78.25    2.52
  -5   1   5   78.16    2.38
   4  -1  -5   16.74    1.12
  -4   1   5   17.98    0.97
  -4   1   5   16.96    0.87
   3  -1  -5    0.09    0.42
  -3   1   5    0.62    0.34
  -3   1   5    0.81    0.36
   2  -1  -5  205.08    4.71
  -2   1   5  211.46    4.58
  -2   1   5  206.36    4.69
   1  -1  -5  190.21    4.30
  -1   1   5  188.84    4.24
  -1   1   5  199.78    4.40
   0  -1  -5  122.28    2.91
   0   1   5  127.80    3.01
   0   1   5  125.25    3.01
   1   1   5   26.33    0.96
   1   1   5   26.44    1.01
   1   1   5   27.86    1.11
   2   1   5   32.68    1.19
   2   1   5   32.61    1.16
   2   1   5   31.86    1.38
   3   1   5   37.20    1.38
   3   1   5   36.07    1.30
   3   1   5   37.67    1.64
  -4  -1  -5   44.98    2.02
   4   1   5   44.79    2.05
   4   1   5   46.54    1.69
  -5  -1  -5    1.11    0.91
   5   1   5    0.73    0.58
   5   1   5   -1.35    0.94
  -6  -1  -5    7.70    1.46
   6   1   5    6.20    1.65
   6   1   5    6.92    1.05
   7  -2  -5   12.79    1.43
  -7   2   5   10.02    1.72
   6  -2  -5   36.74    1.87
  -6   2   5   37.54    1.72
   5  -2  -5   22.04    1.42
  -5   2   5   20.65    1.21
   4  -2  -5    0.64    0.57
  -4   2   5    0.02    0.37
  -4   2   5   -0.08    0.42
   3  -2  -5   42.06    1.53
  -3   2   5   41.37    1.28
  -3   2   5   43.13    1.41
   2  -2  -5  234.74    5.41
  -2   2   5  245.00    5.20
  -2   2   5  238.10    5.38
   1  -2  -5   68.27    1.85
  -1   2   5   65.54    1.69
  -1   2   5   70.44    1.89
   0  -2  -5    3.20    0.42
   0   2   5    2.21    0.40
   0   2   5    2.75    0.40
   1   2   5   91.41    2.38
   1   2   5   90.09    2.41
   1   2   5   90.03    2.37
   2   2   5   50.82    1.75
   2   2   5   46.32    1.57
   2   2   5   47.91    1.54
   3   2   5   37.26    1.72
   3   2   5   35.20    1.45
  -4  -2  -5    0.35    0.79
   4   2   5    1.72    0.95
   4   2   5    2.22    0.63
  -5  -2  -5   18.43    1.80
   5   2   5   17.68    1.30
   5   2   5   13.08    1.59
   6   2   5    8.41    1.10
   7  -3  -5   26.77    1.81
   6  -3  -5   24.86    1.67
   5  -3  -5    3.35    0.81
  -5   3   5    2.18    0.95
   4  -3  -5   17.12    1.23
  -4   3   5   17.44    0.97
  -4   3   5   15.48    0.86
   3  -3  -5   95.02    2.67
  -3   3   5   93.11    2.49
  -3   3   5   92.97    2.29
   2  -3  -5  125.94    3.22
  -2   3   5  133.34    3.19
  -2   3   5  126.17    2.89
   1  -3  -5    3.55    0.48
  -1   3   5    3.44    0.48
  -1   3   5    3.73    0.37
   0  -3  -5   73.18    2.08
   0   3   5   73.25    2.05
   0   3   5   75.27    1.95
   1   3   5  129.63    3.22
   1   3   5  126.06    3.15
   1   3   5  123.42    3.14
   2   3   5   24.31    1.27
   2   3   5   24.86    1.20
   2   3   5   25.42    1.10
  -3  -3  -5    2.35    0.75
   3   3   5    2.57    0.81
   3   3   5    3.35    0.68
  -4  -3  -5   17.17    1.47
   4   3   5   17.96    1.27
   4   3   5   19.01    1.61
  -5  -3  -5   19.03    1.81
   5   3   5   18.36    1.41
   5   3   5   18.47    1.84
   7  -4  -5    9.72    1.32
   6  -4  -5    1.34    0.87
   5  -4  -5   16.47    1.45
   4  -4  -5   37.26    1.72
  -4   4   5   37.98    1.46
   3  -4  -5   52.31    1.89
  -3   4   5   52.24    1.70
   2  -4  -5    1.88    0.51
  -2   4   5    1.81    0.46
   1  -4  -5   10.81    0.84
  -1   4   5   10.11    0.75
   0  -4  -5  108.58    2.92
   0   4   5  111.56    2.86
   0   4   5  110.73    2.65
   1   4   5   79.36    2.23
   1   4   5   78.60    2.20
  -2  -4  -5    0.26    0.49
   2   4   5    1.52    0.56
   2   4   5    0.64    0.58
   2   4   5    0.10    0.40
  -3  -4  -5    7.60    0.99
   3   4   5    7.95    1.06
   3   4   5    6.93    0.89
  -4  -4  -5   40.27    2.09
   4   4   5   37.28    1.78
   4   4   5   39.85    2.18
  -5  -4  -5   10.83    1.54
   5   4   5   10.80    1.18
   6  -5  -5   16.23    1.59
   5  -5  -5   25.83    1.71
  -5   5   5   27.12    1.35
   4  -5  -5   20.36    1.50
  -4   5   5   19.95    1.14
   3  -5  -5    1.61    0.65
  -3   5   5   -0.31    0.44
   2  -5  -5   48.36    1.80
  -2   5   5   48.44    1.64
   1  -5  -5   56.88    1.93
  -1   5   5   55.83    1.78
   0  -5  -5   70.49    2.18
   0   5   5   66.56    2.04
   1   5   5    3.70    0.59
  -2  -5  -5    9.71    0.96
   2   5   5   11.70    1.07
   2   5   5    9.85    1.17
   2   5   5    9.56    0.83
  -3  -5  -5   39.72    1.85
   3   5   5   38.90    1.88
   3   5   5   40.42    1.82
  -4  -5  -5   24.32    1.85
   4   5   5   23.02    1.53
  -5  -5  -5   -0.88    1.12
   6  -6  -5   26.97    1.93
   5  -6  -5   31.39    1.90
  -5   6   5   29.32    1.45
   4  -6  -5    1.03    0.80
  -4   6   5    0.25    0.55
   3  -6  -5   34.15    1.70
  -3   6   5   32.01    1.43
   2  -6  -5   67.02    2.26
  -2   6   5   66.07    2.09
   1  -6  -5   59.07    2.05
  -1   6   5   54.14    1.82
   0  -6  -5   13.78    1.06
   0   6   5   13.54    0.95
  -1  -6  -5   28.06    1.46
   1   6   5   29.97    1.30
   2   6   5   18.91    1.38
   3   6   5   27.12    1.65
   4   6   5    1.40    0.78
   6  -7  -5   10.86    1.41
   5  -7  -5    1.94    1.00
  -5   7   5    2.63    0.75
   4  -7  -5    3.24    0.98
  -4   7   5    3.26    0.73
   3  -7  -5   37.94    1.85
  -3   7   5   36.99    1.59
   2  -7  -5   42.64    1.83
  -2   7   5   39.19    1.57
   1  -7  -5    7.75    0.94
  -1   7   5    7.75    0.80
   0  -7  -5    8.35    0.95
   0   7   5    8.22    0.81
  -1  -7  -5   26.76    1.48
   1   7   5   24.08    1.24
   3   7   5    6.97    1.08
   6  -8  -5   -0.04    1.07
   5  -8  -5    5.99    1.25
  -5   8   5    5.48    0.90
   4  -8  -5   20.79    1.81
  -4   8   5   18.68    1.31
   3  -8  -5   24.87    1.71
  -3   8   5   24.88    1.39
   2  -8  -5    3.04    0.79
  -2   8   5    3.92    0.72
   1  -8  -5    2.51    0.76
  -1   8   5    2.75    0.66
   0  -8  -5   34.34    1.70
   0   8   5   32.02    1.48
  -1  -8  -5   17.39    1.36
   1   8   5   20.14    1.23
  -2  -8  -5    6.21    0.97
   3   8   5    2.56    0.93
   5  -9  -5    5.41    1.32
  -5   9   5   10.44    1.15
   4  -9  -5   15.91    1.62
  -4   9   5   17.00    1.33
   3  -9  -5    4.95    1.05
  -3   9   5    5.82    0.88
   2  -9  -5    6.85    1.05
  -2   9   5    6.07    0.88
   1  -9  -5   19.45    1.53
  -1   9   5   19.67    1.22
   0  -9  -5   18.19    1.46
   0   9   5   19.85    1.25
  -1  -9  -5    5.68    0.98
   1   9   5    5.92    0.87
  -2  -9  -5    1.59    0.79
  -5  10   5    6.95    1.08
   4 -10  -5    0.86    1.06
  -4  10   5    1.27    0.78
   3 -10  -5    5.54    1.16
  -3  10   5    3.38    0.82
   2 -10  -5   14.15    1.40
  -2  10   5   16.81    1.31
   1 -10  -5   18.14    1.59
  -1  10   5   18.07    1.29
   0 -10  -5    2.63    0.88
   0  10   5    2.53    0.71
  -1 -10  -5    1.91    0.83
   3 -11  -5   13.89    1.60
  -3  11   5   16.28    1.40
   2 -11  -5   14.52    1.54
  -2  11   5   15.50    1.34
   1 -11  -5    3.93    1.01
  -1  11   5    6.07    0.91
   0  11   5    0.24    0.62
  -1  15  -6    4.39    1.02
   0  14  -6    6.58    0.92
  -1  14  -6   15.19    1.34
  -2  14  -6    9.50    1.14
  -3  14  -6    0.57    0.77
   2  13  -6    1.63    0.92
   0  13  -6   22.52    1.39
  -1  13  -6   21.51    1.43
  -2  13  -6    7.84    1.04
  -3  13  -6    4.85    0.96
  -4  13  -6   11.67    1.28
   3  12  -6    4.09    1.00
   2  12  -6    0.10    0.67
   0  12  -6   21.06    1.31
  -1  12  -6   13.50    1.24
  -2  12  -6    5.34    0.93
  -3  12  -6   14.59    1.34
  -4  12  -6   12.58    1.35
  -5  12  -6    5.73    1.13
  -4 -11   6    8.81    1.32
   3  11  -6    2.54    0.83
  -3 -11   6    2.02    0.83
   2  11  -6   29.05    1.68
  -2 -11   6   30.66    1.60
   1  11  -6   22.11    1.44
   1  11  -6   25.06    1.50
  -1 -11   6   23.98    1.37
   0  11  -6    5.38    0.78
   0 -11   6    4.26    0.74
  -1  11  -6    1.04    0.64
  -2  11  -6   20.93    1.36
  -3  11  -6   16.80    1.40
  -4  11  -6    9.22    1.17
  -5  11  -6    0.75    0.89
  -6  11  -6    6.23    1.51
   4  10  -6    6.31    1.07
  -4 -10   6    6.46    1.10
   3  10  -6   25.63    1.58
  -3 -10   6   27.47    1.61
   2  10  -6   53.96    2.09
  -2 -10   6   55.59    2.06
   1  10  -6   10.19    0.92
   1  10  -6    9.47    0.98
  -1 -10   6   10.53    0.98
   0  10  -6   -0.10    0.50
   0 -10   6    0.56    0.43
   0 -10   6    0.51    0.47
  -1  10  -6   63.44    2.16
   1 -10   6   66.57    2.16
  -2  10  -6   39.14    1.74
   2 -10   6   40.92    1.71
  -3  10  -6    6.77    0.99
   3 -10   6    7.18    0.93
  -4  10  -6    0.59    0.82
  -5  10  -6   11.31    1.25
   4   9  -6   16.09    1.37
  -4  -9   6   14.30    1.45
   3   9  -6   43.98    1.87
  -3  -9   6   41.79    1.88
   2   9  -6   22.70    1.29
  -2  -9   6   21.33    1.27
   1   9  -6    6.79    0.72
   1   9  -6    7.99    0.83
  -1  -9   6    8.55    0.86
   0   9  -6   32.07    1.41
   0  -9   6   34.58    1.38
   0  -9   6   32.17    1.30
  -1   9  -6   85.34    2.53
   1  -9   6   86.28    2.55
  -2   9  -6   19.80    1.20
   2  -9   6   17.33    1.17
  -3   9  -6   -0.18    0.65
   3  -9   6   -0.16    0.57
  -4   9  -6   21.58    1.50
   4  -9   6   24.04    1.57
  -5   9  -6   21.44    1.57
   5  -9   6   19.66    1.58
   6  -9   6    3.99    1.72
   5   8  -6   20.70    1.57
  -5  -8   6   20.60    1.76
   4   8  -6   30.99    1.64
  -4  -8   6   29.89    1.68
   3   8  -6   31.92    1.52
  -3  -8   6   31.89    1.60
   2   8  -6    3.79    0.64
  -2  -8   6    3.64    0.68
   1   8  -6   20.88    1.04
   1   8  -6   21.38    1.06
  -1  -8   6   20.34    1.09
   0   8  -6   85.83    2.44
   0  -8   6   88.57    2.46
  -1   8  -6   62.84    1.94
   1  -8   6   52.78    1.95
   1  -8   6   59.82    1.92
  -2   8  -6    0.16    0.59
   2  -8   6   -0.36    0.46
  -3   8  -6   30.60    1.56
   3  -8   6   31.50    1.61
  -4   8  -6   47.13    1.98
   4  -8   6   48.79    2.07
  -5   8  -6    9.84    1.14
   5  -8   6    7.79    1.12
   6  -8   6   -0.80    0.98
   5   7  -6   35.37    1.83
  -5  -7   6   34.04    1.92
   4   7  -6   27.86    1.51
  -4  -7   6   26.77    1.56
   3   7  -6    0.60    0.48
  -3  -7   6   -0.37    0.54
   2   7  -6   90.40    2.41
   2   7  -6   85.86    2.43
  -2  -7   6   82.27    2.46
   1   7  -6   72.47    2.02
  -1  -7   6   72.50    2.11
   0  -7   6   73.45    2.11
   1  -7   6    6.89    0.74
   2  -7   6   34.02    1.51
   3  -7   6   58.35    2.21
  -4   7  -6   17.68    1.32
   4  -7   6   20.46    1.43
  -5   7  -6    0.40    0.77
   5  -7   6    0.16    0.78
   6  -7   6    2.45    1.12
   5   6  -6   24.47    1.51
  -5  -6   6   22.93    1.61
   4   6  -6    9.50    0.97
  -4  -6   6   10.90    1.13
   3   6  -6   75.50    2.28
  -3  -6   6   78.19    2.40
   2   6  -6   69.54    1.99
  -2  -6   6   71.41    2.10
   1   6  -6   28.21    0.98
  -1  -6   6   26.71    1.09
   0  -6   6    8.91    0.67
   1  -6   6   14.87    0.88
   2  -6   6   52.00    1.90
   3  -6   6   39.49    1.76
   4  -6   6    0.63    0.71
   5  -6   6   15.00    1.46
   6  -6   6   15.40    1.65
   6   5  -6   10.56    1.22
  -6  -5   6    8.98    1.33
   5   5  -6    4.10    0.88
  -5  -5   6   -1.06    0.72
   4   5  -6   15.18    1.11
  -4  -5   6   15.45    1.24
   3   5  -6  156.27    3.88
  -3  -5   6  159.67    3.98
   2   5  -6   59.56    1.71
  -2  -5   6   61.06    1.84
   1   5  -6    1.73    0.29
  -1  -5   6    1.74    0.38
   0  -5   6   88.26    2.34
   1  -5   6  230.10    5.36
   2  -5   6   56.66    1.97
   3  -5   6    5.00    0.78
   4  -5   6   10.53    1.14
   5  -5   6   27.56    1.80
   6  -5   6   22.41    1.99
   6   4  -6    0.54    0.71
  -6  -4   6   -0.33    0.87
   5   4  -6    2.69    0.73
  -5  -4   6    3.16    0.88
   4   4  -6   70.96    2.26
  -4  -4   6   72.54    2.31
   3   4  -6   61.08    1.84
  -3  -4   6   59.68    1.90
   2   4  -6   10.60    0.63
  -2  -4   6   11.14    0.74
   1   4  -6   62.56    1.56
  -1  -4   6   63.64    1.78
   0  -4   6  238.29    5.39
   1  -4   6   81.38    2.31
   2  -4   6   11.33    0.92
   3  -4   6    5.06    0.77
   4  -4   6   60.48    2.37
   5  -4   6   29.78    1.86
   6  -4   6    1.59    1.13
   6   3  -6   14.93    1.37
  -6  -3   6   14.46    1.47
   5   3  -6   48.55    1.95
  -5  -3   6   43.97    1.90
   4   3  -6   64.46    2.11
  -4  -3   6   66.00    2.14
   3   3  -6    7.86    0.70
  -3  -3   6    8.20    0.75
   2   3  -6    2.92    0.39
  -2  -3   6    3.13    0.47
  -1  -3   6   72.15    1.94
   0  -3   6  218.14    4.96
   1  -3   6   10.78    0.76
   2  -3   6   28.52    1.33
   3  -3   6   54.66    2.02
   3  -3   6   53.10    1.51
   4  -3   6   12.42    1.23
   5  -3   6    7.70    1.24
   6  -3   6   -0.07    1.04
   6   2  -6   38.02    1.87
  -6  -2   6   32.91    1.82
   5   2  -6   56.21    2.13
  -5  -2   6   58.43    2.14
   4   2  -6    4.29    0.71
  -4  -2   6    5.60    0.77
   3   2  -6   25.62    1.12
  -3  -2   6   26.89    1.16
  -3  -2   6   26.21    0.93
   2   2  -6  256.31    5.84
  -2  -2   6  269.11    5.95
  -2  -2   6  276.63    5.88
  -1  -2   6  265.71    6.01
  -1  -2   6  281.33    6.03
   0  -2   6   79.46    2.06
   0  -2   6   75.56    2.07
   1  -2   6    8.94    0.72
   1  -2   6    6.99    0.60
   2  -2   6  105.26    2.97
   3  -2   6   64.87    1.77
   3  -2   6   68.94    2.31
   4  -2   6    1.74    0.77
   5  -2   6    0.37    0.90
  -6   2  -6   11.05    1.44
   6  -2   6   11.55    1.59
  -7  -1   6   15.83    1.60
   6   1  -6   34.89    1.84
  -6  -1   6   36.15    1.85
   5   1  -6   17.17    1.33
  -5  -1   6   17.12    1.26
   4   1  -6   15.55    1.13
  -4  -1   6   18.65    1.06
   3   1  -6   71.92    2.05
  -3  -1   6   72.01    1.92
  -3  -1   6   71.96    2.02
   2   1  -6   33.35    1.11
  -2  -1   6   34.30    1.14
  -2  -1   6   33.82    1.13
   1   1  -6   48.79    1.31
  -1  -1   6   50.02    1.43
  -1  -1   6   47.33    1.45
   0  -1   6    0.32    0.28
   0  -1   6    0.48    0.29
   1  -1   6  134.34    3.41
   1  -1   6  133.02    3.24
   2  -1   6  136.15    3.28
   2  -1   6  132.74    3.52
   2  -1   6  131.07    3.07
   3  -1   6    5.80    0.56
   3  -1   6    5.32    0.83
   4  -1   6    3.95    0.58
   4  -1   6    4.21    0.93
  -5   1  -6   24.38    1.74
   5  -1   6   21.59    1.77
  -6   1  -6   21.66    1.98
   6  -1   6   15.89    1.82
   7   0  -6   11.23    1.72
  -7   0   6    9.22    1.31
   6   0  -6   10.36    1.18
  -6   0   6   10.14    1.13
   5   0  -6    4.35    0.82
  -5   0   6    3.46    0.74
   4   0  -6   55.86    1.92
  -4   0   6   54.89    1.80
   3   0  -6   83.27    2.32
  -3   0   6   84.08    2.23
  -3   0   6   85.65    2.25
   2   0  -6    4.46    0.49
  -2   0   6    4.08    0.47
  -2   0   6    5.26    0.50
   1   0  -6   11.42    0.61
  -1   0   6   12.44    0.64
  -1   0   6   11.12    0.68
   0   0  -6  100.13    2.42
   0   0   6  105.74    2.62
   0   0   6  102.97    2.61
   1   0   6  112.24    2.81
   1   0   6  108.42    2.91
   2   0   6   23.44    1.05
   2   0   6   23.18    0.95
   2   0   6   23.07    1.22
   3   0   6    3.10    0.73
   3   0   6    4.30    0.58
   3   0   6    4.38    0.58
   4   0   6   25.47    1.74
   4   0   6   24.16    1.19
  -5   0  -6   30.00    1.93
   5   0   6   30.65    2.11
  -6   0  -6    7.96    1.89
   7  -1  -6    1.32    0.94
  -7   1   6    1.45    0.96
   6  -1  -6    2.92    0.88
  -6   1   6    2.06    0.80
   5  -1  -6   65.17    2.30
  -5   1   6   63.62    2.08
   4  -1  -6   88.46    2.60
  -4   1   6   84.01    2.39
  -4   1   6   91.89    2.44
   3  -1  -6   21.27    1.11
  -3   1   6   21.62    0.99
  -3   1   6   22.23    0.94
   2  -1  -6    8.68    0.70
  -2   1   6    8.96    0.68
  -2   1   6    8.10    0.57
   1  -1  -6  117.68    2.91
  -1   1   6  126.13    2.91
  -1   1   6  121.78    3.03
   0  -1  -6  147.73    3.45
   0   1   6  147.11    3.56
   0   1   6  148.58    3.55
   1   1   6   61.91    1.83
   1   1   6   60.71    1.89
   2   1   6   -0.14    0.50
   2   1   6    0.86    0.39
   2   1   6    0.68    0.43
   3   1   6   28.08    1.21
   3   1   6   28.37    1.26
   3   1   6   28.82    1.62
  -4  -1  -6   43.72    1.99
   4   1   6   42.15    1.69
   4   1   6   49.15    2.21
  -5  -1  -6    9.38    1.31
   5   1   6    7.17    1.36
   7  -2  -6    0.96    0.94
   6  -2  -6   26.64    1.70
   5  -2  -6   49.87    2.03
  -5   2   6   48.44    1.73
   4  -2  -6   17.51    1.26
  -4   2   6   18.42    0.96
  -4   2   6   18.15    1.01
   3  -2  -6    1.73    0.55
  -3   2   6    1.31    0.39
  -3   2   6    1.19    0.45
   2  -2  -6   65.96    1.98
  -2   2   6   66.32    1.75
  -2   2   6   69.59    1.96
   1  -2  -6  109.57    2.74
  -1   2   6  110.11    2.61
  -1   2   6  105.23    2.77
   0  -2  -6   30.57    1.14
   0   2   6   31.42    1.15
   0   2   6   30.85    1.19
   1   2   6    1.49    0.48
   1   2   6    1.46    0.45
   2   2   6   33.30    1.50
   2   2   6   33.17    1.32
   2   2   6   34.32    1.35
   3   2   6   31.24    1.69
   3   2   6   30.35    1.38
  -4  -2  -6    6.87    1.10
   4   2   6    7.13    0.90
   4   2   6    6.16    1.16
  -5  -2  -6    0.87    0.98
   5   2   6    2.20    0.99
   5   2   6   -0.24    1.04
   6  -3  -6   33.88    1.91
   5  -3  -6   16.43    1.42
   4  -3  -6    1.14    0.66
  -4   3   6    0.28    0.44
   3  -3  -6   50.48    1.86
  -3   3   6   51.68    1.72
   2  -3  -6  152.48    3.83
  -2   3   6  154.43    3.78
  -2   3   6  155.14    3.52
   1  -3  -6   44.48    1.53
  -1   3   6   44.49    1.33
  -1   3   6   47.23    1.53
   0  -3  -6    1.80    0.46
   0   3   6    1.88    0.47
   0   3   6    1.62    0.40
  -1  -3  -6   48.95    1.67
   1   3   6   46.96    1.62
   1   3   6   49.29    1.66
   2   3   6   52.53    1.84
   2   3   6   52.10    1.76
   2   3   6   52.28    1.91
  -3  -3  -6   25.20    1.49
   3   3   6   24.37    1.35
   3   3   6   25.98    1.63
  -4  -3  -6   -0.10    0.82
   4   3   6    0.63    0.59
   4   3   6   -0.47    0.94
  -5  -3  -6    9.59    1.47
   5   3   6    8.04    1.08
   5   3   6    8.20    1.57
   6  -4  -6    9.53    1.21
   5  -4  -6    0.38    0.77
   4  -4  -6   20.65    1.46
  -4   4   6   20.05    1.17
   3  -4  -6   58.46    2.10
  -3   4   6   56.90    1.89
   2  -4  -6   13.38    1.05
  -2   4   6   12.95    0.92
   1  -4  -6    0.09    0.41
  -1   4   6    0.17    0.37
   0  -4  -6   25.54    1.21
   0   4   6   23.21    1.12
  -1  -4  -6   85.51    2.57
   1   4   6   88.90    2.49
   1   4   6   87.33    2.49
  -2  -4  -6   29.68    1.39
   2   4   6   27.53    1.28
   2   4   6   29.28    1.48
   2   4   6   30.72    1.47
  -3  -4  -6   -0.07    0.66
   3   4   6    0.32    0.62
   3   4   6   -0.97    0.72
  -4  -4  -6   10.34    1.32
   4   4   6   11.56    1.43
   4   4   6   11.25    1.14
  -5  -4  -6   10.72    1.59
   5   4   6   10.48    1.22
   6  -5  -6    0.31    0.91
   5  -5  -6   16.25    1.57
  -5   5   6   12.80    1.14
   4  -5  -6   28.65    1.73
  -4   5   6   26.45    1.35
   3  -5  -6   27.92    1.57
  -3   5   6   27.80    1.30
   2  -5  -6    5.66    0.79
  -2   5   6    5.12    0.69
   1  -5  -6   22.64    1.27
  -1   5   6   23.32    1.18
   0  -5  -6   56.30    1.95
   0   5   6   52.94    1.82
  -1  -5  -6    1.76    0.58
   1   5   6    2.07    0.57
   2   5   6   -0.33    0.55
   2   5   6    0.10    0.45
   3   5   6    8.61    1.05
   4   5   6   19.62    1.54
   6  -6  -6   12.23    1.47
   5  -6  -6   38.92    2.15
  -5   6   6   36.85    1.73
   4  -6  -6   30.13    1.85
  -4   6   6   26.33    1.41
   3  -6  -6   -0.06    0.66
  -3   6   6    0.43    0.55
   2  -6  -6   29.01    1.54
  -2   6   6   25.38    1.31
   1  -6  -6   67.55    2.31
  -1   6   6   63.82    2.12
   0  -6  -6   59.90    2.16
   0   6   6   61.75    2.04
  -1  -6  -6    0.08    0.52
   1   6   6    1.09    0.52
   3   6   6   27.51    1.70
   4   6   6    3.42    0.95
   6  -7  -6   13.86    1.61
   5  -7  -6    3.51    1.13
  -5   7   6    3.38    0.81
   4  -7  -6    0.90    0.94
  -4   7   6    1.21    0.67
   3  -7  -6   10.32    1.18
  -3   7   6    8.94    0.95
   2  -7  -6   36.57    1.81
  -2   7   6   37.93    1.62
   1  -7  -6   43.47    1.91
  -1   7   6   41.87    1.71
   0  -7  -6    0.06    0.57
   0   7   6   -0.41    0.50
  -1  -7  -6    9.19    1.03
   1   7   6    9.32    0.93
  -2  -7  -6   15.74    1.33
   3   7   6   12.36    1.34
   5  -8  -6    0.21    1.09
  -5   8   6    0.54    0.73
   4  -8  -6    2.06    1.09
  -4   8   6    2.29    0.76
   3  -8  -6   21.41    1.70
  -3   8   6   21.57    1.37
   2  -8  -6    9.05    1.14
  -2   8   6    9.73    0.99
   1  -8  -6    2.34    0.80
  -1   8   6    1.55    0.64
   0  -8  -6   11.79    1.23
   0   8   6   11.21    1.09
  -1  -8  -6   15.71    1.38
   1   8   6   17.05    1.22
  -2  -8  -6   18.10    1.47
   5  -9  -6    2.99    1.29
  -5   9   6    2.52    0.88
   4  -9  -6   13.17    1.60
  -4   9   6   13.31    1.30
   3  -9  -6   10.12    1.33
  -3   9   6   11.91    1.16
   2  -9  -6    0.30    0.76
  -2   9   6    0.19    0.62
   1  -9  -6    4.09    0.97
  -1   9   6    3.05    0.74
   0  -9  -6   18.23    1.53
   0   9   6   18.40    1.31
  -1  -9  -6   11.46    1.27
   1   9   6   10.36    1.49
   4 -10  -6    9.99    1.57
  -4  10   6    9.79    1.17
   3 -10  -6   -0.58    0.90
  -3  10   6    0.28    0.71
   2 -10  -6    4.06    1.03
  -2  10   6    5.38    0.92
   1 -10  -6   12.56    1.38
  -1  10   6   12.97    1.23
   0 -10  -6    6.04    1.11
   0  10   6    7.73    0.97
  -1  15  -7   -0.28    0.99
   0  14  -7    0.53    0.66
  -1  14  -7    5.23    0.93
  -2  14  -7   10.29    1.20
  -3  14  -7    7.59    1.18
   0  13  -7    6.78    0.90
  -1  13  -7   14.18    1.34
  -2  13  -7   19.18    1.54
  -3  13  -7    0.23    0.82
  -4  13  -7    4.78    1.09
   3  12  -7   12.01    1.74
  -3 -12   7   13.07    1.48
  -2 -12   7    7.51    1.31
   0  12  -7   24.82    1.47
  -1  12  -7   28.99    1.62
  -2  12  -7    6.09    0.98
  -3  12  -7    2.12    0.87
  -4  12  -7   12.89    1.33
  -5  12  -7    8.53    1.28
   3  11  -7    5.61    0.99
  -3 -11   7    5.43    1.00
   2  11  -7    3.13    0.80
  -2 -11   7    3.27    0.80
   1  11  -7   35.38    1.66
  -1 -11   7   38.42    1.69
   0  11  -7   14.21    1.22
   0 -11   7   17.44    1.18
  -1  11  -7    5.82    0.87
   1 -11   7    4.12    0.75
  -2  11  -7    1.85    0.77
   2 -11   7    2.78    0.73
  -3  11  -7    8.94    1.15
  -4  11  -7   19.66    1.64
  -5  11  -7    1.27    0.98
   4  10  -7    1.22    0.79
  -4 -10   7    0.57    0.83
   3  10  -7    1.33    0.67
  -3 -10   7    1.55    0.78
   2  10  -7   33.91    1.63
  -2 -10   7   32.63    1.63
   1  10  -7   46.54    1.71
  -1 -10   7   44.78    1.76
   0  10  -7    2.35    0.66
   0 -10   7    2.74    0.64
  -1  10  -7   11.87    1.10
   1 -10   7   14.55    1.09
  -2  10  -7   31.64    1.64
   2 -10   7   32.36    1.57
  -3  10  -7   18.64    1.39
   3 -10   7   20.10    1.47
  -4  10  -7    5.41    1.07
   4 -10   7    4.91    0.94
  -5  10  -7    0.78    0.94
   5 -10   7    1.66    1.30
   4   9  -7    1.55    0.74
  -4  -9   7    1.77    0.85
   3   9  -7   16.98    1.26
  -3  -9   7   15.44    1.34
   2   9  -7   99.37    2.85
  -2  -9   7   93.60    2.85
   1   9  -7   19.02    1.11
   1   9  -7   16.56    1.06
  -1  -9   7   17.45    1.12
   0   9  -7    3.27    0.70
   0  -9   7    2.82    0.61
  -1   9  -7   47.17    1.83
   1  -9   7   49.54    1.83
  -2   9  -7   37.74    1.73
   2  -9   7   41.47    1.76
  -3   9  -7   14.03    1.27
   3  -9   7   13.42    1.29
  -4   9  -7    3.67    0.96
   4  -9   7    2.01    0.81
  -5   9  -7   10.65    1.28
   5  -9   7    9.46    1.24
   6  -9   7    6.90    1.31
   5   8  -7   10.31    1.23
  -5  -8   7   13.39    1.46
   4   8  -7   19.15    1.38
  -4  -8   7   19.39    1.45
   3   8  -7   24.56    1.34
  -3  -8   7   24.54    1.47
   2   8  -7   28.37    1.28
  -2  -8   7   27.36    1.34
   1   8  -7    8.39    0.79
   1   8  -7    7.17    0.70
  -1  -8   7    7.30    0.78
   0  -8   7   28.98    1.29
   1  -8   7   82.19    2.49
   2  -8   7   22.28    1.30
   3  -8   7   -0.01    0.65
  -4   8  -7   20.00    1.48
   4  -8   7   21.72    1.64
  -5   8  -7   12.96    1.31
   5  -8   7   16.38    1.63
   6  -8   7    4.95    1.25
   5   7  -7   33.22    1.79
  -5  -7   7   31.50    1.87
   4   7  -7   42.19    1.78
  -4  -7   7   37.98    1.82
   3   7  -7   25.86    1.28
  -3  -7   7   25.35    1.38
   2   7  -7    8.26    0.78
  -2  -7   7    8.81    0.85
   1   7  -7   41.19    1.35
  -1  -7   7   41.05    1.51
   0  -7   7   79.80    2.32
   1  -7   7   75.60    2.33
   2  -7   7   -0.54    0.47
   3  -7   7   29.59    1.63
   4  -7   7   35.84    1.93
  -5   7  -7    4.81    1.00
   5  -7   7    5.67    1.12
   6  -7   7    0.68    1.05
   5   6  -7   37.92    1.84
  -5  -6   7   38.47    1.92
   4   6  -7   20.32    1.26
  -4  -6   7   18.91    1.41
   3   6  -7    3.61    0.58
  -3  -6   7    3.86    0.74
   2   6  -7   75.27    2.08
  -2  -6   7   75.65    2.23
   1   6  -7   46.73    1.37
  -1  -6   7   49.48    1.60
   0  -6   7   25.96    1.11
   1  -6   7    0.00    0.37
   2  -6   7   24.26    1.33
   3  -6   7   48.95    2.11
   4  -6   7   20.21    1.52
   5  -6   7    1.56    0.94
   6  -6   7    3.67    1.25
   6   5  -7   27.50    1.73
  -6  -5   7   25.28    2.15
   5   5  -7   27.31    1.55
  -5  -5   7   24.24    1.58
   4   5  -7   -0.02    0.48
  -4  -5   7    0.29    0.65
   3   5  -7   32.95    1.32
  -3  -5   7   33.24    1.43
   2   5  -7   77.50    2.08
  -2  -5   7   79.07    2.24
  -1  -5   7   26.50    1.08
   0  -5   7   -0.11    0.29
   1  -5   7   62.39    1.98
   2  -5   7   55.09    2.02
   3  -5   7   43.64    1.91
   4  -5   7    2.14    0.84
   5  -5   7   19.11    1.68
   6  -5   7   17.03    1.79
   6   4  -7   11.27    1.26
  -6  -4   7    9.06    1.27
   5   4  -7    0.61    0.63
  -5  -4   7    0.05    0.72
   4   4  -7   11.42    1.01
  -4  -4   7   13.48    1.15
   3   4  -7  136.37    3.36
  -3  -4   7  130.79    3.44
   2   4  -7  118.74    2.86
  -2  -4   7  118.22    3.02
  -1  -4   7    0.14    0.29
   0  -4   7   53.34    1.67
   1  -4   7  104.16    2.86
   2  -4   7   53.38    1.96
   3  -4   7   13.14    1.20
   4  -4   7   16.45    1.53
   5  -4   7   13.17    1.43
   6  -4   7   12.45    1.59
   6   3  -7    0.78    0.74
  -6  -3   7   -0.47    0.82
   5   3  -7   26.73    1.53
  -5  -3   7   26.47    1.58
   4   3  -7   46.86    1.76
  -4  -3   7   43.98    1.73
   3   3  -7   43.77    1.50
  -3  -3   7   41.31    1.52
   2   3  -7    2.33    0.38
  -2  -3   7    2.83    0.42
  -2  -3   7    2.46    0.46
  -1  -3   7   54.22    1.65
  -1  -3   7   56.41    1.63
   0  -3   7  105.23    2.80
   0  -3   7  111.87    2.76
   1  -3   7   62.97    1.99
   2  -3   7   11.66    1.05
   3  -3   7   20.57    1.36
   4  -3   7   28.40    1.72
   5  -3   7    7.67    1.26
  -6   3  -7    2.25    0.97
   6  -3   7   -1.46    1.05
   6   2  -7   19.28    1.48
  -6  -2   7   16.39    1.43
   5   2  -7   44.10    1.90
  -5  -2   7   43.46    1.86
   4   2  -7   62.55    2.08
  -4  -2   7   62.18    2.08
   3   2  -7   14.49    0.91
  -3  -2   7   14.02    0.77
  -3  -2   7   13.96    0.94
   2   2  -7   57.85    1.63
  -2  -2   7   61.45    1.73
  -2  -2   7   57.37    1.73
  -1  -2   7  101.69    2.63
  -1  -2   7  105.70    2.66
   0  -2   7   96.38    2.50
   0  -2   7   94.05    2.53
   1  -2   7    0.12    0.39
   1  -2   7    0.12    0.33
   2  -2   7   23.07    1.28
   3  -2   7   69.81    2.43
   4  -2   7   22.84    1.69
   5  -2   7    1.33    1.02
  -6   2  -7    5.71    1.33
   6  -2   7    2.93    1.51
  -7  -1   7    3.05    1.29
   6   1  -7   30.65    1.75
  -6  -1   7   27.20    1.60
   5   1  -7   45.96    1.94
  -5  -1   7   47.06    1.83
   4   1  -7   17.97    1.17
  -4  -1   7   16.45    1.12
   3   1  -7   20.32    1.06
  -3  -1   7   22.03    1.00
  -3  -1   7   22.54    1.06
   2   1  -7   89.95    2.37
  -2  -1   7   94.31    2.43
  -2  -1   7   96.28    2.47
   1   1  -7   82.62    2.07
  -1  -1   7   82.87    2.21
  -1  -1   7   86.43    2.28
   0  -1   7   20.09    0.93
   0  -1   7   21.83    0.99
   1  -1   7   10.32    0.89
   1  -1   7   10.79    0.78
   2  -1   7   44.81    1.78
   2  -1   7   45.00    1.57
   3  -1   7   34.86    1.76
   4  -1   7    2.09    0.89
   5  -1   7    0.44    0.98
  -7   0   7   16.25    1.60
   6   0  -7   13.94    1.35
  -6   0   7   12.20    1.18
   5   0  -7    0.75    0.68
  -5   0   7    0.90    0.62
   4   0  -7   10.69    1.06
  -4   0   7   11.09    0.95
   3   0  -7   53.07    1.79
  -3   0   7   57.56    1.73
  -3   0   7   57.05    1.75
   2   0  -7   52.82    1.61
  -2   0   7   52.35    1.57
  -2   0   7   51.81    1.64
   1   0  -7   10.36    0.65
  -1   0   7   10.37    0.74
  -1   0   7   10.58    0.65
   0   0  -7   42.01    1.26
   0   0   7   45.92    1.48
   0   0   7   44.59    1.48
  -1   0  -7   73.46    1.98
   1   0   7   79.97    2.33
   1   0   7   77.64    2.23
   2   0   7   45.89    1.63
   2   0   7   44.13    1.77
   3   0   7    3.29    0.60
   3   0   7    2.54    0.78
   4   0   7    6.41    1.11
  -5   0  -7   18.58    1.69
   5   0   7   14.81    1.61
   6  -1  -7    1.86    0.86
  -6   1   7    0.84    0.73
   5  -1  -7   13.36    1.24
  -5   1   7   12.71    1.12
   4  -1  -7   51.63    1.90
  -4   1   7   49.82    1.69
  -4   1   7   50.39    1.70
   3  -1  -7   64.21    2.04
  -3   1   7   64.19    1.95
  -3   1   7   62.96    1.83
   2  -1  -7   24.35    1.11
  -2   1   7   25.40    0.98
  -2   1   7   25.65    1.12
   1  -1  -7   37.02    1.27
  -1   1   7   38.19    1.24
  -1   1   7   38.36    1.36
   0  -1  -7  125.04    3.12
   0   1   7  130.66    3.28
   0   1   7  132.01    3.27
  -1  -1  -7   73.30    2.04
   1   1   7   75.69    2.20
   1   1   7   74.71    2.25
   2   1   7   10.77    0.83
   2   1   7   10.77    1.08
   2   1   7    9.81    0.86
   3   1   7    3.12    0.59
   3   1   7    2.56    0.80
   3   1   7    2.10    0.59
   4   1   7   11.60    1.33
  -5  -1  -7   12.99    1.48
   5   1   7   12.41    1.60
   6  -2  -7    7.00    1.09
   5  -2  -7   40.33    1.91
   4  -2  -7   41.18    1.78
  -4   2   7   37.99    1.50
  -4   2   7   37.88    1.49
   3  -2  -7    6.58    0.81
  -3   2   7    7.89    0.65
  -3   2   7    8.61    0.79
   2  -2  -7    9.41    0.89
  -2   2   7    8.05    0.60
  -2   2   7    8.20    0.74
   1  -2  -7   57.06    1.78
  -1   2   7   58.14    1.82
  -1   2   7   58.44    1.67
   0  -2  -7   91.41    2.46
   0   2   7   91.98    2.45
   0   2   7   87.95    2.48
  -1  -2  -7   30.52    1.23
   1   2   7   28.79    1.29
   1   2   7   32.20    1.37
   2   2   7    9.05    0.87
   2   2   7    9.38    0.86
   2   2   7    8.93    0.95
   3   2   7   39.04    1.92
   3   2   7   37.63    1.59
  -4  -2  -7   16.18    1.49
   4   2   7   14.60    1.51
  -5  -2  -7    0.20    0.97
   5   2   7   -0.35    1.19
   6  -3  -7   24.40    1.77
   5  -3  -7   36.76    1.91
   4  -3  -7    8.38    1.03
  -4   3   7    9.09    0.87
   3  -3  -7    0.83    0.63
  -3   3   7    1.47    0.54
   2  -3  -7   46.63    1.73
  -2   3   7   45.91    1.65
   1  -3  -7   36.25    1.43
  -1   3   7   37.30    1.42
   0  -3  -7   19.82    1.08
   0   3   7   18.66    1.06
   0   3   7   20.63    0.98
  -1  -3  -7   11.65    0.92
   1   3   7   12.63    0.99
   1   3   7   12.32    0.95
   2   3   7   45.38    1.69
   2   3   7   45.27    1.84
   2   3   7   44.37    1.74
  -3  -3  -7   31.49    1.65
   3   3   7   31.71    1.80
   3   3   7   31.80    1.56
  -4  -3  -7    3.98    0.97
   4   3   7    0.93    1.03
  -5  -3  -7    0.39    1.12
   5   3   7   -0.57    1.31
   6  -4  -7   17.41    1.72
   5  -4  -7   13.15    1.34
   4  -4  -7    4.30    0.94
  -4   4   7    3.20    0.68
   3  -4  -7   45.77    1.95
  -3   4   7   46.78    1.75
   2  -4  -7   32.83    1.55
  -2   4   7   31.47    1.39
   1  -4  -7   13.43    1.03
  -1   4   7   12.32    0.92
   0  -4  -7    1.95    0.58
   0   4   7    2.60    0.60
  -1  -4  -7   12.47    1.02
   1   4   7   12.73    0.96
   2   4   7   26.89    1.34
  -3  -4  -7    9.55    1.12
   3   4   7    9.35    1.03
   3   4   7    8.58    1.40
  -4  -4  -7    1.43    0.94
   4   4   7   -1.02    1.02
   6  -5  -7    3.24    1.10
   5  -5  -7    5.54    1.15
  -5   5   7    5.49    0.88
   4  -5  -7   23.57    1.74
  -4   5   7   21.72    1.32
   3  -5  -7   34.51    1.78
  -3   5   7   32.18    1.50
   2  -5  -7    5.10    0.85
  -2   5   7    5.48    0.74
   1  -5  -7    4.24    0.76
  -1   5   7    3.97    0.68
   0  -5  -7   65.21    2.25
   0   5   7   69.14    2.21
  -1  -5  -7   32.59    1.53
   1   5   7   29.87    1.41
   2   5   7    7.83    0.90
   3   5   7    0.14    0.66
   4   5   7    5.05    1.21
   6  -6  -7   -1.64    0.96
   5  -6  -7   14.91    1.54
  -5   6   7   14.43    1.29
   4  -6  -7   34.08    2.07
  -4   6   7   35.13    1.65
   3  -6  -7   11.60    1.25
  -3   6   7   11.53    1.09
   2  -6  -7    3.66    0.85
  -2   6   7    3.43    0.71
   1  -6  -7   37.00    1.73
  -1   6   7   36.53    1.57
   0  -6  -7   44.21    1.86
   0   6   7   39.37    1.68
  -1  -6  -7    8.20    0.97
   1   6   7    8.29    0.87
  -2  -6  -7    0.74    0.60
   5  -7  -7   10.81    1.49
   4  -7  -7   12.58    1.48
  -4   7   7   13.31    1.22
   3  -7  -7    0.19    0.78
  -3   7   7    0.73    0.65
   2  -7  -7    7.09    1.06
  -2   7   7    7.40    0.91
   1  -7  -7   41.67    1.93
  -1   7   7   41.47    1.76
   0  -7  -7   11.92    1.22
   0   7   7   12.51    1.09
  -1  -7  -7   -0.31    0.60
   1   7   7    0.36    0.58
  -2  -7  -7    6.30    0.95
   5  -8  -7    1.84    1.23
  -5   8   7    4.75    0.94
   4  -8  -7   -0.16    0.98
  -4   8   7   -0.52    0.66
   3  -8  -7    9.04    1.24
  -3   8   7    8.31    1.03
   2  -8  -7   15.66    1.51
  -2   8   7   17.90    1.29
   1  -8  -7   12.82    1.30
  -1   8   7   11.83    1.14
   0  -8  -7   -0.58    0.67
   0   8   7    0.05    0.57
  -1  -8  -7   11.10    1.26
   1   8   7   10.64    1.04
  -2  -8  -7    8.90    1.13
  -5   9   7   -0.30    0.83
   4  -9  -7    7.14    1.43
  -4   9   7    6.92    1.08
   3  -9  -7    9.13    1.34
  -3   9   7    9.64    1.11
   2  -9  -7    4.44    1.06
  -2   9   7    7.40    0.98
   1  -9  -7    0.16    0.75
  -1   9   7    0.01    0.60
   0  -9  -7    3.66    0.98
   0   9   7    3.94    0.82
  -1  -9  -7   12.49    1.37
   3 -10  -7    4.57    1.65
   2 -10  -7   -1.75    0.79
  -2  10   7    0.72    0.78
   1 -10  -7    5.65    1.16
  -1  10   7    7.33    1.06
   0  10   7   17.88    1.82
   0  14  -8    8.12    1.07
  -1  14  -8    0.63    0.74
  -2  14  -8    8.78    1.18
   0  13  -8   -0.41    0.61
  -1  13  -8    8.64    1.11
  -2  13  -8   16.49    1.55
  -3  13  -8   10.24    1.30
  -4  13  -8    0.76    0.98
  -3 -12   8   18.43    1.54
  -2 -12   8   11.74    1.25
  -1 -12   8    0.52    0.62
   0  12  -8    5.64    0.90
   0 -12   8    6.35    0.93
  -1  12  -8   38.64    1.86
  -2  12  -8   11.27    1.24
  -3  12  -8    0.54    0.88
  -4  12  -8    3.94    1.14
  -5  12  -8    8.94    1.37
  -3 -11   8   15.11    1.44
  -2 -11   8    1.10    0.69
   1  11  -8    7.98    0.91
  -1 -11   8    8.56    1.02
   0  11  -8   22.19    1.39
   0 -11   8   24.15    1.38
  -1  11  -8    9.31    1.08
   1 -11   8    9.04    1.03
  -2  11  -8    2.58    0.87
   2 -11   8    1.54    0.70
  -3  11  -8    1.46    0.88
   3 -11   8    0.57    0.74
  -4  11  -8   14.26    1.45
  -5  11  -8    5.95    1.23
   4  10  -8   17.51    1.54
  -4 -10   8   15.73    1.49
  -3 -10   8    3.22    0.86
  -2 -10   8    9.72    1.08
   1  10  -8   40.19    1.62
  -1 -10   8   40.35    1.71
   0  10  -8   45.71    1.81
   0 -10   8   42.84    1.75
  -1  10  -8   -0.17    0.66
   1 -10   8    0.63    0.60
  -2  10  -8   12.40    1.21
   2 -10   8    9.56    1.08
  -3  10  -8   19.02    1.59
   3 -10   8   22.21    1.59
  -4  10  -8   13.06    1.37
   4 -10   8   12.07    1.33
  -5  10  -8   -1.11    0.91
   5 -10   8   -1.03    0.83
   4   9  -8    1.28    0.72
  -4  -9   8    2.04    0.86
   3   9  -8    5.81    0.85
  -3  -9   8    4.73    0.89
  -2  -9   8   40.95    1.78
   1   9  -8   46.14    1.71
  -1  -9   8   45.67    1.77
   0  -9   8    3.05    0.65
   1  -9   8    8.82    0.98
   2  -9   8   42.59    1.88
  -3   9  -8   29.57    1.72
   3  -9   8   30.80    1.74
  -4   9  -8    4.61    1.07
   4  -9   8    6.03    1.10
  -5   9  -8    1.29    0.99
   5  -9   8    1.54    0.99
   6  -9   8    7.40    1.35
   5   8  -8    1.38    0.75
   4   8  -8    5.09    0.84
  -4  -8   8    4.50    0.95
   3   8  -8   37.37    1.60
  -3  -8   8   38.45    1.78
  -2  -8   8   25.47    1.35
  -1  -8   8   12.20    0.94
   0  -8   8    7.84    0.85
   1  -8   8   51.08    1.89
   2  -8   8   36.72    1.75
   3  -8   8    3.93    0.91
   4  -8   8    3.14    0.98
  -5   8  -8   10.80    1.30
   5  -8   8   10.94    1.38
   6  -8   8    7.19    1.37
   5   7  -8    6.02    0.98
  -5  -7   8    6.25    1.10
   4   7  -8   30.58    1.54
  -4  -7   8   30.74    1.71
   3   7  -8   51.59    1.83
  -3  -7   8   54.36    2.02
   2   7  -8   13.99    0.87
  -2  -7   8   15.14    1.01
  -1  -7   8   10.90    0.86
   0  -7   8   57.95    1.93
   1  -7   8   64.08    2.14
   2  -7   8    3.95    0.79
   3  -7   8    0.64    0.73
   4  -7   8   25.46    1.74
  -5   7  -8   12.30    1.33
   5  -7   8   13.99    1.48
   6  -7   8    2.37    1.15
   5   6  -8   26.91    1.61
  -5  -6   8   25.92    1.75
   4   6  -8   44.53    1.76
  -4  -6   8   39.69    1.82
   3   6  -8    7.54    0.76
  -3  -6   8    9.05    0.97
   2   6  -8    2.87    0.46
  -2  -6   8    2.61    0.58
  -1  -6   8   45.29    1.60
   0  -6   8   94.93    2.67
   1  -6   8    6.98    0.80
   2  -6   8    1.68    0.67
   3  -6   8   17.10    1.42
   4  -6   8   31.29    1.92
   5  -6   8    0.55    0.93
   6  -6   8    0.21    1.11
   6   5  -8   18.88    1.55
   5   5  -8   32.34    1.67
  -5  -5   8   31.50    1.82
   4   5  -8   16.37    1.14
  -4  -5   8   19.20    1.31
   3   5  -8   -0.06    0.38
  -3  -5   8   -0.13    0.49
   2   5  -8   55.78    1.62
  -2  -5   8   57.80    1.85
  -1  -5   8   73.81    2.17
   0  -5   8   37.94    1.42
   1  -5   8   22.79    1.18
   2  -5   8   42.39    1.82
   3  -5   8   57.72    2.30
   4  -5   8    3.81    0.96
   5  -5   8    0.04    0.94
   6  -5   8    5.98    1.43
   6   4  -8   20.07    1.57
  -6  -4   8   18.00    1.72
   5   4  -8    3.81    0.81
  -5  -4   8    5.35    0.99
   4   4  -8    3.73    0.70
  -4  -4   8    3.68    0.78
   3   4  -8   31.15    1.29
  -3  -4   8   32.31    1.41
   2   4  -8   60.70    1.70
  -2  -4   8   61.84    1.91
  -1  -4   8   36.10    1.35
   0  -4   8    5.24    0.65
   1  -4   8   61.28    2.05
   2  -4   8   72.61    2.48
   3  -4   8   43.42    1.96
   4  -4   8    0.15    0.77
   5  -4   8    6.73    1.26
   6   3  -8   10.49    1.21
  -6  -3   8    7.52    1.18
   5   3  -8    3.80    0.82
  -5  -3   8    3.58    0.86
   4   3  -8   38.71    1.66
  -4  -3   8   41.48    1.68
   3   3  -8  100.52    2.69
  -3  -3   8  100.15    2.78
   2   3  -8    2.65    0.42
  -2  -3   8    2.37    0.45
  -2  -3   8    2.53    0.48
  -1  -3   8    0.73    0.38
  -1  -3   8    1.54    0.42
   0  -3   8   47.09    1.60
   0  -3   8   46.73    1.58
   1  -3   8   80.15    2.45
   2  -3   8   33.76    1.58
   3  -3   8    4.33    0.85
   4  -3   8   14.76    1.48
   5  -3   8   10.71    1.41
   6   2  -8    0.34    0.72
  -6  -2   8   -0.60    0.76
   5   2  -8   25.90    1.56
  -5  -2   8   25.00    1.51
   4   2  -8   82.91    2.55
  -4  -2   8   86.55    2.54
   3   2  -8   53.62    1.74
  -3  -2   8   55.57    1.71
  -3  -2   8   51.63    1.77
   2   2  -8    2.98    0.45
  -2  -2   8    4.14    0.57
  -2  -2   8    2.85    0.52
  -1  -2   8   41.56    1.46
  -1  -2   8   40.53    1.40
   0  -2   8  109.34    2.91
   0  -2   8  108.54    2.88
   1  -2   8   21.90    1.07
   1  -2   8   20.93    1.20
   2  -2   8    4.17    0.75
   3  -2   8   31.21    1.68
   4  -2   8   31.54    1.87
   5  -2   8    9.43    1.42
   6   1  -8   11.01    1.29
  -6  -1   8    9.65    1.14
   5   1  -8   32.26    1.69
  -5  -1   8   33.79    1.62
   4   1  -8   62.71    2.12
  -4  -1   8   61.79    2.01
   3   1  -8    4.30    0.64
  -3  -1   8    4.07    0.59
  -3  -1   8    4.99    0.66
   2   1  -8   36.45    1.30
  -2  -1   8   36.92    1.39
  -2  -1   8   36.97    1.34
   1   1  -8   75.10    1.96
  -1  -1   8   75.19    2.19
  -1  -1   8   77.27    2.15
   0  -1   8   47.84    1.62
   0  -1   8   45.60    1.62
   1  -1   8    0.42    0.50
   1  -1   8    1.05    0.50
   2  -1   8   15.23    1.17
   2  -1   8   17.25    1.09
   3  -1   8   50.52    2.15
   4  -1   8   19.19    1.72
   5  -1   8    0.02    0.99
  -7   0   8    5.73    1.44
   6   0  -8   21.47    1.62
  -6   0   8   18.99    1.43
   5   0  -8   15.30    1.38
  -5   0   8   13.85    1.17
   4   0  -8    2.46    0.69
  -4   0   8    2.46    0.61
   3   0  -8   31.17    1.38
  -3   0   8   30.70    1.26
  -3   0   8   30.92    1.33
   2   0  -8   81.64    2.31
  -2   0   8   82.55    2.38
  -2   0   8   86.43    2.30
   1   0  -8   51.81    1.56
  -1   0   8   50.85    1.62
  -1   0   8   50.65    1.70
   0   0  -8   15.35    0.77
   0   0   8   19.44    0.99
   0   0   8   17.03    0.97
  -1   0  -8   25.38    1.00
   1   0   8   25.55    1.23
   1   0   8   26.83    1.28
   2   0   8   47.57    1.76
   2   0   8   47.73    1.91
   3   0   8   20.67    1.46
   3   0   8   19.84    1.23
   4   0   8    0.89    0.88
  -5   0  -8    7.34    1.19
   5   0   8    4.67    1.30
   6  -1  -8    7.02    1.12
   5  -1  -8    0.57    0.73
  -5   1   8   -0.05    0.58
   4  -1  -8   18.39    1.29
  -4   1   8   20.40    1.17
  -4   1   8   19.21    1.08
   3  -1  -8   59.33    2.02
  -3   1   8   60.08    1.96
  -3   1   8   59.82    1.82
   2  -1  -8   42.18    1.54
  -2   1   8   40.12    1.36
  -2   1   8   40.93    1.54
   1  -1  -8    2.71    0.49
  -1   1   8    2.05    0.43
  -1   1   8    3.52    0.57
   0  -1  -8   46.53    1.53
   0   1   8   47.55    1.67
   0   1   8   50.58    1.69
  -1  -1  -8   66.98    2.00
   1   1   8   72.42    2.24
   1   1   8   71.24    2.20
   2   1   8   35.24    1.66
   2   1   8   35.47    1.51
   3   1   8   -0.14    0.72
   3   1   8    0.23    0.54
   4   1   8    5.43    1.14
  -5  -1  -8   19.30    1.78
   5   1   8   10.88    1.59
   6  -2  -8    0.59    0.85
   5  -2  -8   14.21    1.33
   4  -2  -8   51.80    2.09
  -4   2   8   51.47    1.86
   3  -2  -8   57.00    2.04
  -3   2   8   54.58    1.91
   2  -2  -8    1.36    0.56
  -2   2   8    1.08    0.39
  -2   2   8    1.24    0.51
   1  -2  -8   22.05    1.11
  -1   2   8   21.54    0.97
  -1   2   8   22.66    1.13
   0  -2  -8   64.22    1.99
   0   2   8   65.29    2.06
   0   2   8   63.95    1.97
  -1  -2  -8   58.57    1.87
   1   2   8   57.42    1.97
   1   2   8   57.41    1.97
   2   2   8    1.26    0.65
   2   2   8    1.76    0.60
   3   2   8   11.60    1.26
  -4  -2  -8   15.16    1.45
   4   2   8   11.10    1.41
  -5  -2  -8    9.81    2.19
   6  -3  -8    5.12    1.13
   5  -3  -8   28.55    1.82
   4  -3  -8   39.02    1.89
  -4   3   8   34.93    1.58
   3  -3  -8    3.78    0.81
  -3   3   8    2.64    0.65
   2  -3  -8    6.41    0.82
  -2   3   8    6.70    0.79
   1  -3  -8   39.86    1.59
  -1   3   8   41.34    1.59
   0  -3  -8   67.47    2.15
   0   3   8   68.35    2.17
  -1  -3  -8    5.08    0.69
   1   3   8    4.59    1.14
   1   3   8    5.06    0.73
   2   3   8    7.37    0.94
   2   3   8    7.13    0.85
   3   3   8   25.95    1.72
  -4  -3  -8   16.22    1.59
   4   3   8    9.09    1.38
   6  -4  -8   11.62    1.42
   5  -4  -8   17.47    1.58
   4  -4  -8    5.24    1.02
  -4   4   8    4.68    0.80
   3  -4  -8   20.41    1.51
  -3   4   8   20.42    1.27
   2  -4  -8   22.68    1.40
  -2   4   8   22.34    1.22
   1  -4  -8   22.33    1.28
  -1   4   8   21.01    1.22
   0  -4  -8    8.02    0.87
   0   4   8    5.37    0.77
  -1  -4  -8    8.68    0.91
   1   4   8    9.17    0.93
  -2  -4  -8   25.62    1.45
   2   4   8   28.03    1.44
   6  -5  -8   11.78    1.53
   5  -5  -8    2.16    1.04
  -5   5   8    1.13    0.71
   4  -5  -8    7.91    1.25
  -4   5   8    8.63    0.99
   3  -5  -8   39.80    2.01
  -3   5   8   39.29    1.72
   2  -5  -8   19.43    1.41
  -2   5   8   20.98    1.23
   1  -5  -8    5.80    0.86
  -1   5   8    6.44    0.82
   0  -5  -8   16.15    1.26
   0   5   8   15.57    1.16
  -1  -5  -8   23.46    1.42
   1   5   8   24.95    1.34
  -2  -5  -8   22.13    1.43
   2   5   8   22.99    1.87
   5  -6  -8    0.04    1.05
  -5   6   8    0.62    0.71
   4  -6  -8   20.16    1.85
  -4   6   8   21.68    1.41
   3  -6  -8   29.78    1.86
  -3   6   8   26.91    1.46
   2  -6  -8    4.72    0.94
  -2   6   8    5.08    0.83
   1  -6  -8    2.63    0.76
  -1   6   8    1.90    0.69
   0  -6  -8   31.34    1.70
   0   6   8   30.26    1.52
  -1  -6  -8   19.93    1.43
   1   6   8   22.40    1.32
  -2  -6  -8    7.71    1.03
  -3  -6  -8    3.86    1.10
   5  -7  -8   11.46    1.65
  -5   7   8   14.12    1.34
   4  -7  -8   17.95    1.75
  -4   7   8   22.31    1.49
   3  -7  -8    2.25    1.00
  -3   7   8    1.68    0.74
   2  -7  -8    0.55    0.77
  -2   7   8    0.13    0.64
   1  -7  -8   17.06    1.41
  -1   7   8   15.89    1.26
   0  -7  -8   22.69    1.59
   0   7   8   24.42    1.41
  -1  -7  -8    9.40    1.14
   1   7   8    7.76    0.94
  -2  -7  -8    0.68    0.71
  -5   8   8   12.77    1.32
   4  -8  -8    7.74    1.47
  -4   8   8    7.77    1.12
   3  -8  -8    1.71    1.02
  -3   8   8    1.89    0.79
   2  -8  -8    5.81    1.10
  -2   8   8    7.26    0.98
   1  -8  -8   16.39    1.48
  -1   8   8   15.54    1.29
   0  -8  -8    4.99    1.05
   0   8   8    5.05    0.86
  -1  -8  -8    0.00    0.76
   1   8   8    0.61    0.65
   3  -9  -8    5.68    1.26
  -3   9   8    9.65    1.33
   2  -9  -8    7.54    1.26
  -2   9   8   10.26    1.14
   1  -9  -8    1.57    0.86
  -1   9   8    3.48    0.83
   0  -9  -8    1.33    0.95
   0   9   8    2.57    0.82
   0  14  -9   12.27    1.24
  -1  14  -9    5.95    1.04
  -2  14  -9    1.03    0.93
   0  13  -9    8.82    1.08
  -1  13  -9    0.86    0.83
  -2  13  -9   12.66    1.38
  -3  13  -9   12.09    1.44
  -3 -12   9   11.30    1.53
  -2 -12   9   19.06    1.52
  -1 -12   9    6.40    0.97
   0  12  -9    0.09    0.67
   0 -12   9    0.45    0.62
  -1  12  -9    9.63    1.17
   1 -12   9   10.20    1.14
  -2  12  -9   16.08    1.47
   2 -12   9   17.54    1.50
  -3  12  -9    8.02    1.24
  -4  12  -9   -0.73    0.98
  -3 -11   9   25.74    1.74
  -2 -11   9   14.57    1.31
   1  11  -9    0.03    0.62
  -1 -11   9    0.66    0.59
   0  11  -9   20.31    1.44
   0 -11   9   23.23    1.42
  -1  11  -9   28.50    1.70
   1 -11   9   31.24    1.68
  -2  11  -9    6.80    1.13
   2 -11   9    8.76    1.11
  -3  11  -9   -0.94    0.90
   3 -11   9   -0.33    0.76
  -4  11  -9    5.73    1.22
   4 -11   9    4.39    1.04
  -5  11  -9    6.71    1.36
  -3 -10   9   11.71    1.25
  -2 -10   9    0.40    0.65
   1  10  -9   13.44    1.20
  -1 -10   9   13.86    1.15
   0  10  -9   33.74    1.66
   0 -10   9   33.40    1.62
   1 -10   9   18.89    1.36
  -2  10  -9    0.13    0.82
   2 -10   9   -0.09    0.64
  -3  10  -9   16.29    1.60
   3 -10   9   21.72    1.67
  -4  10  -9   11.04    1.38
   4 -10   9   10.99    1.37
  -5  10  -9    5.08    1.26
   5 -10   9    5.91    1.23
  -4  -9   9   12.11    1.32
  -3  -9   9    0.67    0.70
  -2  -9   9   16.66    1.30
  -1  -9   9   35.48    1.63
   0  -9   9   24.81    1.37
   1  -9   9    0.83    0.59
   2  -9   9   19.30    1.44
   3  -9   9   41.53    2.14
  -4   9  -9   10.93    1.36
   4  -9   9   12.08    1.38
  -5   9  -9   -2.19    0.97
   5  -9   9   -0.09    0.97
   5   8  -9   10.37    1.40
  -4  -8   9   -0.13    0.72
  -3  -8   9   19.94    1.35
  -2  -8   9   53.38    1.98
  -1  -8   9   21.08    1.23
   0  -8   9    1.81    0.56
   1  -8   9   16.48    1.21
   2  -8   9   46.06    2.05
   3  -8   9   24.63    1.76
   4  -8   9    2.80    0.98
  -5   8  -9    1.59    1.07
   5  -8   9    3.79    1.16
   5   7  -9    1.83    0.74
  -5  -7   9    1.37    0.88
   4   7  -9   11.99    1.10
  -4  -7   9   13.45    1.25
  -3  -7   9   50.01    1.95
  -2  -7   9   40.10    1.66
  -1  -7   9    1.51    0.53
   0  -7   9   11.20    0.95
   1  -7   9   40.69    1.74
   2  -7   9   18.87    1.42
   3  -7   9    6.00    1.04
   4  -7   9    4.60    1.07
   5  -7   9   15.92    1.66
   5   6  -9   13.49    1.28
  -5  -6   9   12.54    1.30
   4   6  -9   29.94    1.49
  -4  -6   9   33.52    1.67
   3   6  -9   59.86    2.32
  -3  -6   9   65.50    2.18
  -2  -6   9   10.38    0.90
  -1  -6   9   33.34    1.42
   0  -6   9  111.94    3.11
   1  -6   9   34.13    1.54
   2  -6   9    1.07    0.65
   3  -6   9    3.58    0.88
   4  -6   9   22.82    1.81
   5  -6   9   12.59    1.46
   6   5  -9    4.28    0.97
   5   5  -9   22.17    1.47
  -5  -5   9   22.40    1.55
   4   5  -9   20.19    1.23
  -4  -5   9   21.59    1.37
   3   5  -9   13.36    0.89
  -3  -5   9   13.69    1.12
  -2  -5   9   16.39    1.01
  -1  -5   9   70.28    2.18
   0  -5   9   82.87    2.50
   1  -5   9    1.96    0.60
   2  -5   9    6.91    0.96
   3  -5   9   59.52    2.41
   4  -5   9   23.94    1.82
   5  -5   9    2.17    1.02
   6   4  -9   29.73    1.83
  -6  -4   9   27.66    2.17
   5   4  -9   14.01    1.31
  -5  -4   9   13.75    1.31
   4   4  -9    5.02    0.75
  -4  -4   9    3.95    0.82
   3   4  -9    0.60    0.45
  -3  -4   9    1.42    0.59
  -2  -4   9   37.73    1.47
  -1  -4   9   60.48    1.95
   0  -4   9   10.60    0.85
   1  -4   9   23.05    1.26
   2  -4   9   49.75    2.04
   3  -4   9   33.65    1.86
   4  -4   9    3.93    1.03
   5  -4   9    1.27    1.01
   6   3  -9   24.01    1.68
  -6  -3   9   24.40    1.68
   5   3  -9    0.73    0.69
  -5  -3   9    1.32    0.77
   4   3  -9   15.27    1.15
  -4  -3   9   13.88    1.12
   3   3  -9  115.87    3.05
  -3  -3   9  116.63    3.17
  -3  -3   9  118.56    3.06
   2   3  -9   68.55    1.93
  -2  -3   9   74.19    2.16
  -2  -3   9   71.31    2.15
  -1  -3   9   31.55    1.29
  -1  -3   9   30.03    1.26
   0  -3   9   10.29    0.88
   0  -3   9   10.38    0.85
   1  -3   9   50.91    1.92
   2  -3   9   85.51    2.78
   3  -3   9   10.25    1.17
   4  -3   9    2.17    0.91
   5  -3   9    9.04    1.40
   6   2  -9    4.04    0.97
  -6  -2   9    3.15    0.97
   5   2  -9    5.27    0.94
  -5  -2   9    5.73    0.89
   4   2  -9   48.51    1.86
  -4  -2   9   46.64    1.82
   3   2  -9   71.78    2.18
  -3  -2   9   73.53    2.26
  -3  -2   9   73.58    2.21
   2   2  -9   18.75    0.92
  -2  -2   9   19.84    1.07
  -2  -2   9   19.83    1.09
  -1  -2   9    3.83    0.59
  -1  -2   9    3.22    0.60
   0  -2   9   82.23    2.44
   0  -2   9   81.95    2.43
   1  -2   9   68.64    2.31
   1  -2   9   68.12    2.19
   2  -2   9   22.86    1.43
   2  -2   9   23.85    1.31
   3  -2   9    2.07    0.80
   4  -2   9   18.38    1.64
   5  -2   9   13.59    1.60
   6   1  -9    1.63    0.86
  -6  -1   9    1.26    0.83
   5   1  -9   21.95    1.50
  -5  -1   9   17.61    1.29
   4   1  -9   57.04    2.05
  -4  -1   9   57.21    1.97
   3   1  -9   15.44    1.03
  -3  -1   9   16.35    0.99
  -3  -1   9   15.16    1.07
   2   1  -9    0.19    0.44
  -2  -1   9    0.22    0.40
  -2  -1   9    0.19    0.47
  -1  -1   9   98.75    2.67
  -1  -1   9   92.27    2.70
   0  -1   9   39.12    1.54
   0  -1   9   35.51    1.44
   1  -1   9   16.11    1.13
   1  -1   9   15.32    1.15
   2  -1   9    0.20    0.56
   2  -1   9   -0.04    0.55
   3  -1   9   31.97    1.81
   4  -1   9   26.25    1.89
   5  -1   9    7.09    1.37
   6   0  -9   23.31    1.70
  -6   0   9   16.70    1.80
   5   0  -9   34.82    1.80
  -5   0   9   29.76    1.51
   4   0  -9   16.38    1.28
  -4   0   9   18.00    1.50
  -4   0   9   17.18    1.10
   3   0  -9    0.18    0.54
  -3   0   9    0.66    0.48
  -3   0   9    0.62    0.52
   2   0  -9   45.08    1.63
  -2   0   9   45.91    1.70
  -2   0   9   47.78    1.60
   1   0  -9   93.62    2.53
  -1   0   9   97.78    2.64
  -1   0   9   95.93    2.72
   0   0   9   15.40    0.99
   0   0   9   16.36    1.08
   1   0   9    0.35    0.52
   1   0   9   -0.16    0.52
   2   0   9   30.38    1.48
   2   0   9   29.05    1.57
   3   0   9   45.98    1.87
   3   0   9   49.44    2.12
   4   0   9    5.91    1.18
  -5   0  -9    1.58    1.29
   5   0   9   -0.49    1.44
   6  -1  -9   19.77    1.67
   5  -1  -9   11.33    1.22
   4  -1  -9    1.17    0.70
  -4   1   9    1.61    0.60
   3  -1  -9   22.14    1.35
  -3   1   9   24.06    1.11
  -3   1   9   23.72    1.29
   2  -1  -9   91.44    2.67
  -2   1   9   93.21    2.71
  -2   1   9   96.06    2.57
   1  -1  -9    7.99    0.75
  -1   1   9    8.85    0.83
  -1   1   9    8.65    0.76
   0  -1  -9    2.02    0.65
   0   1   9    2.19    0.58
   0   1   9    2.69    0.58
   1   1   9   20.74    1.23
   1   1   9   20.74    1.21
   2   1   9   52.00    1.96
   2   1   9   52.92    2.03
   3   1   9   11.07    1.23
   3   1   9    9.65    1.45
   4   1   9   -0.78    0.90
   6  -2  -9    7.46    1.22
   5  -2  -9   -0.43    0.77
   4  -2  -9   34.81    1.81
  -4   2   9   32.26    1.58
   3  -2  -9   78.73    2.60
  -3   2   9   80.44    2.49
   2  -2  -9   50.30    1.90
  -2   2   9   51.92    1.88
   1  -2  -9    0.47    0.49
  -1   2   9    0.20    0.50
   0  -2  -9   22.85    1.19
   0   2   9   24.39    1.25
   0   2   9   25.12    1.31
   1   2   9   45.97    1.78
   1   2   9   47.37    1.80
   2   2   9   42.67    1.88
   2   2   9   41.32    1.77
   3   2   9   -0.44    0.78
  -4  -2  -9    9.37    1.21
   4   2   9    7.13    1.29
   6  -3  -9    0.66    0.96
   5  -3  -9   13.50    1.43
   4  -3  -9   33.47    1.92
  -4   3   9   38.59    1.70
   3  -3  -9   34.83    1.82
  -3   3   9   36.67    1.63
   2  -3  -9   -0.44    0.56
  -2   3   9    1.33    0.60
   1  -3  -9   16.77    1.18
  -1   3   9   18.89    1.13
   0  -3  -9   48.54    1.80
   0   3   9   47.57    1.81
   1   3   9   39.10    1.70
   2   3   9    1.27    0.65
  -4  -3  -9   12.44    2.04
   6  -4  -9    3.93    1.15
   5  -4  -9   11.52    1.42
   4  -4  -9   17.58    1.69
  -4   4   9   16.57    1.34
   3  -4  -9    1.36    0.82
  -3   4   9    1.31    0.67
   2  -4  -9   15.96    1.34
  -2   4   9   18.64    1.25
   1  -4  -9   32.03    1.58
  -1   4   9   34.40    1.57
   0  -4  -9    1.94    0.66
   0   4   9    1.45    0.64
  -1  -4  -9    0.91    0.59
   1   4   9    0.24    0.61
   2   4   9    7.33    0.93
   5  -5  -9    9.07    1.41
  -5   5   9    8.32    1.07
   4  -5  -9   -0.27    0.94
  -4   5   9    1.37    0.72
   3  -5  -9    6.81    1.17
  -3   5   9    7.72    0.96
   2  -5  -9   35.53    1.89
  -2   5   9   41.84    1.78
   1  -5  -9   33.37    1.67
  -1   5   9   32.26    1.56
   0  -5  -9    1.66    0.73
   0   5   9    1.60    0.65
  -1  -5  -9    9.82    1.06
   1   5   9   11.09    1.05
   5  -6  -9   -0.83    1.07
  -5   6   9    0.84    0.78
   4  -6  -9    4.70    1.24
  -4   6   9    4.53    0.93
   3  -6  -9   23.49    1.82
  -3   6   9   23.98    1.51
   2  -6  -9   25.75    1.70
  -2   6   9   26.43    1.53
   1  -6  -9    0.13    0.67
  -1   6   9   -0.01    0.61
   0  -6  -9    0.80    0.77
   0   6   9    3.55    0.77
  -1  -6  -9   26.61    1.67
   1   6   9   26.14    1.51
  -5   7   9    2.44    0.89
   4  -7  -9    9.94    1.53
  -4   7   9   14.82    1.40
   3  -7  -9   10.80    1.41
  -3   7   9   13.03    1.27
   2  -7  -9    1.27    0.86
  -2   7   9    2.09    0.76
   1  -7  -9    1.61    0.80
  -1   7   9    1.89    0.74
   0  -7  -9   11.15    1.31
   0   7   9   13.56    1.29
  -1  -7  -9   20.42    1.64
   1   7   9   21.70    1.49
   4  -8  -9   11.11    2.07
   3  -8  -9    0.83    1.03
  -3   8   9    1.11    0.81
   2  -8  -9    1.64    0.96
  -2   8   9    1.31    0.76
   1  -8  -9    4.52    1.03
  -1   8   9    7.35    1.01
   0  -8  -9   10.95    1.35
   0   8   9   13.75    1.27
   0  14 -10    9.23    1.22
  -1  14 -10    8.24    1.26
  -2 -13  10    3.78    0.95
  -1 -13  10   20.95    1.57
   0  13 -10   22.46    1.66
   0 -13  10   23.95    1.71
  -1  13 -10   -0.41    0.82
  -2  13 -10   -0.65    0.89
  -3  13 -10    7.42    1.50
  -2 -12  10   16.14    1.50
  -1 -12  10   22.56    1.52
   0  12 -10    5.17    0.98
   0 -12  10    6.52    1.03
  -1  12 -10    3.29    0.99
   1 -12  10    1.48    0.73
  -2  12 -10    8.31    1.27
   2 -12  10    9.44    1.22
  -3  12 -10   11.65    1.49
   3 -12  10   11.37    1.37
  -4  12 -10    4.42    1.33
  -3 -11  10   19.19    1.64
  -2 -11  10   18.84    1.45
   1  11 -10   11.24    1.14
  -1 -11  10   13.33    1.24
   0 -11  10    6.53    0.97
  -1  11 -10   18.07    1.58
   1 -11  10   20.01    1.47
  -2  11 -10   27.12    1.83
   2 -11  10   26.61    1.70
  -3  11 -10    2.00    1.09
   3 -11  10    3.14    0.96
  -4  11 -10   -0.70    1.10
   4 -11  10    1.21    0.95
   5 -11  10    5.42    1.25
  -3 -10  10   30.45    1.75
  -2 -10  10   15.66    1.37
  -1 -10  10    0.32    0.58
   0 -10  10   25.88    1.53
   1 -10  10   36.48    1.84
   2 -10  10   11.59    1.29
   3 -10  10    2.10    0.91
  -4  10 -10    4.80    1.23
   4 -10  10    8.02    1.29
  -5  10 -10    5.26    1.38
   5 -10  10    7.71    1.33
  -4  -9  10   22.46    1.66
  -3  -9  10    4.33    0.90
  -2  -9  10    0.94    0.67
  -1  -9  10   18.07    1.24
   0  -9  10   30.85    1.56
   1  -9  10   24.89    1.55
   2  -9  10   -0.17    0.66
   3  -9  10   22.91    1.80
   4  -9  10   13.97    1.54
  -5   9 -10    3.75    1.28
   5  -9  10    6.59    1.30
  -4  -8  10    9.50    1.17
  -3  -8  10    6.98    1.00
  -2  -8  10   25.91    1.44
  -1  -8  10   55.22    2.03
   0  -8  10   34.14    1.59
   1  -8  10    0.17    0.55
   2  -8  10   24.41    1.65
   3  -8  10   32.06    2.00
   4  -8  10   17.96    1.77
   5  -8  10    0.09    0.97
  -4  -7  10    1.01    0.76
  -3  -7  10   28.07    1.57
  -2  -7  10   60.52    2.14
  -1  -7  10   28.27    1.39
   0  -7  10    0.43    0.50
   1  -7  10   19.52    1.28
   2  -7  10   35.60    1.83
   3  -7  10   21.05    1.66
   4  -7  10    1.21    0.92
   5  -7  10    4.17    1.20
  -5  -6  10    0.31    0.80
  -4  -6  10   21.45    1.50
  -3  -6  10   47.55    1.90
  -2  -6  10   30.86    1.44
  -1  -6  10    2.92    0.61
   0  -6  10   35.23    1.55
   1  -6  10   58.18    2.16
   2  -6  10   22.40    1.51
   3  -6  10    0.37    0.74
   4  -6  10    8.44    1.21
   5  -6  10   22.30    2.03
  -5  -5  10   12.87    1.31
  -4  -5  10   41.63    1.83
  -3  -5  10   70.61    2.36
  -2  -5  10    7.07    0.84
  -1  -5  10   16.61    1.05
   0  -5  10   79.12    2.50
   1  -5  10   42.11    1.79
   2  -5  10    2.92    0.81
   3  -5  10    7.27    1.17
   4  -5  10   20.02    1.69
   5  -5  10   15.11    1.66
   6   4 -10   10.37    1.25
   5   4 -10   24.63    1.55
  -5  -4  10   24.02    1.55
  -4  -4  10   19.55    1.37
  -3  -4  10    2.61    0.67
  -2  -4  10   17.52    1.15
  -1  -4  10   58.38    1.97
   0  -4  10   76.65    2.42
   1  -4  10    2.17    0.65
   2  -4  10   10.32    1.16
   3  -4  10   29.69    1.77
   4  -4  10   20.94    1.81
   5  -4  10    2.03    1.13
   6   3 -10   26.85    1.78
  -6  -3  10   25.92    1.76
   5   3 -10   21.85    1.51
  -5  -3  10   18.68    1.45
   4   3 -10    6.57    0.84
  -4  -3  10    8.38    0.97
  -3  -3  10   36.69    1.49
  -3  -3  10   34.40    1.53
  -2  -3  10   78.09    2.41
  -2  -3  10   78.31    2.38
  -1  -3  10   76.76    2.35
  -1  -3  10   71.85    2.28
   0  -3  10    3.33    0.64
   0  -3  10    2.74    0.60
   1  -3  10   32.41    1.48
   1  -3  10   34.50    1.60
   2  -3  10   41.19    1.91
   3  -3  10   32.12    1.81
   4  -3  10    5.90    1.14
   5  -3  10    1.04    1.15
   6   2 -10   27.10    1.81
  -6  -2  10   23.55    1.65
   5   2 -10    5.95    0.96
  -5  -2  10    6.78    0.98
   4   2 -10   13.02    1.16
  -4  -2  10   12.63    1.11
  -3  -2  10   60.58    2.05
  -3  -2  10   59.32    2.01
  -2  -2  10   73.06    2.30
  -2  -2  10   75.70    2.36
  -1  -2  10   59.74    1.98
  -1  -2  10   52.99    1.96
   0  -2  10   24.07    1.30
   0  -2  10   22.12    1.21
   1  -2  10   36.37    1.70
   1  -2  10   35.95    1.58
   2  -2  10   34.69    1.64
   2  -2  10   34.29    1.74
   3  -2  10    9.49    1.15
   4  -2  10    0.05    0.88
   6   1 -10    0.73    0.81
  -6  -1  10   -0.12    0.74
   5   1 -10    4.26    0.93
  -5  -1  10    3.76    0.79
   4   1 -10   43.65    1.83
  -4  -1  10   43.36    1.75
   3   1 -10   43.33    1.67
  -3  -1  10   46.38    1.71
  -3  -1  10   44.43    1.77
  -2  -1  10   20.22    1.12
  -2  -1  10   19.18    1.24
  -1  -1  10    1.60    0.58
  -1  -1  10    1.29    0.50
   0  -1  10   81.15    2.53
   0  -1  10   84.61    2.58
   1  -1  10   34.85    1.63
   1  -1  10   36.11    1.67
   2  -1  10    6.02    0.88
   2  -1  10    5.71    0.89
   3  -1  10    3.68    0.93
   4  -1  10   11.30    1.40
   6   0 -10    4.25    1.03
   5   0 -10   27.39    1.74
   4   0 -10   37.60    1.76
  -4   0  10   35.24    2.06
  -4   0  10   39.32    1.59
   3   0 -10   12.54    1.12
  -3   0  10   11.01    0.93
  -3   0  10   11.47    1.01
  -2   0  10    0.72    0.45
  -2   0  10    0.12    0.54
  -1   0  10   70.41    2.27
  -1   0  10   70.48    2.18
   0   0  10   52.31    1.90
   0   0  10   53.99    1.95
   1   0  10   13.87    1.17
   1   0  10   12.73    1.12
   2   0  10   -1.09    0.58
   2   0  10    0.63    0.66
   3   0  10   15.72    1.39
   3   0  10   19.21    1.50
   4   0  10   13.94    1.50
   6  -1 -10   13.37    1.46
   5  -1 -10   27.44    1.81
   4  -1 -10    2.88    0.81
  -4   1  10    2.81    0.74
   3  -1 -10   13.64    1.25
  -3   1  10   13.63    1.16
   2  -1 -10   12.42    1.12
  -2   1  10   14.39    1.12
  -1   1  10   85.14    2.58
  -1   1  10   80.49    2.42
   0   1  10   19.08    1.15
   0   1  10   22.31    1.29
   1   1  10    1.89    0.61
   1   1  10    1.44    0.68
   2   1  10   31.28    1.60
   2   1  10   32.06    1.68
   3   1  10   26.17    1.75
   4   1  10    4.47    1.19
   6  -2 -10   20.05    1.84
   5  -2 -10   11.14    1.31
   4  -2 -10    3.75    0.96
  -4   2  10    2.72    0.77
   3  -2 -10   34.18    1.79
  -3   2  10   36.20    1.66
   2  -2 -10   39.45    1.77
  -2   2  10   45.03    1.79
  -1   2  10   16.07    1.17
   0   2  10    6.56    0.87
   1   2  10   21.01    1.34
   2   2  10   45.00    1.97
   2   2  10   45.74    2.66
   3   2  10    8.84    1.27
  -4  -2 -10    0.71    0.82
   4   2  10   -1.15    1.00
   6  -3 -10    8.40    1.42
   5  -3 -10   -0.40    0.89
   4  -3 -10   33.19    1.99
  -4   3  10   34.41    1.69
   3  -3 -10   26.67    1.76
  -3   3  10   28.33    1.52
   2  -3 -10   32.46    1.70
  -2   3  10   34.70    1.63
   1  -3 -10    1.62    0.82
  -1   3  10    1.39    0.65
   0   3  10    9.92    1.02
   1   3  10   16.91    1.26
   2   3  10   21.06    1.42
   5  -4 -10   10.24    1.48
   4  -4 -10   26.47    1.97
  -4   4  10   25.99    1.56
   3  -4 -10   11.82    1.33
  -3   4  10   12.31    1.21
   2  -4 -10   -0.70    0.67
  -2   4  10    0.84    0.64
   1  -4 -10   30.34    1.62
  -1   4  10   32.18    1.61
   0   4  10   20.33    1.34
   1   4  10    9.57    1.04
   2   4  10   -0.50    0.64
   5  -5 -10   15.05    1.71
  -5   5  10   18.19    1.56
   4  -5 -10    7.15    1.37
  -4   5  10    7.71    1.03
   3  -5 -10   -0.75    0.87
  -3   5  10   -0.35    0.65
   2  -5 -10   14.88    1.41
  -2   5  10   16.23    1.32
   1  -5 -10   32.82    1.75
  -1   5  10   31.98    1.64
   0   5  10    5.72    0.90
   1   5  10   -0.56    0.63
  -5   6  10    5.46    1.05
   4  -6 -10   -1.29    1.04
  -4   6  10   -0.24    0.76
   3  -6 -10    1.03    1.06
  -3   6  10    4.17    0.90
   2  -6 -10   23.07    1.76
  -2   6  10   21.31    1.48
   1  -6 -10   11.76    1.27
  -1   6  10   12.69    1.19
   0   6  10    0.72    0.70
   1   6  10    5.60    0.97
   4  -7 -10    7.99    1.55
   3  -7 -10   10.71    1.52
  -3   7  10   12.76    1.31
   2  -7 -10   10.67    1.38
  -2   7  10   10.99    1.20
   1  -7 -10    0.51    0.84
  -1   7  10    0.25    0.69
   0   7  10    3.63    0.90
   2  -8 -10   -0.14    0.92
   1  -8 -10    0.85    0.94
  -1 -13  11    4.85    1.01
   0  13 -11   22.45    1.72
   0 -13  11   26.89    1.80
  -1  13 -11    8.03    1.25
   1 -13  11   10.47    1.37
  -2  13 -11    1.37    1.19
   2 -13  11    0.03    0.88
  -2 -12  11    5.84    1.04
  -1 -12  11   18.94    1.54
   0  12 -11   11.18    1.33
   0 -12  11   13.27    1.40
  -1  12 -11    2.15    1.02
   1 -12  11    1.70    0.81
  -2  12 -11    0.63    1.07
   2 -12  11    1.23    0.81
  -3  12 -11   11.04    1.53
   3 -12  11   10.52    1.40
   4 -12  11    4.52    1.19
  -2 -11  11   22.78    1.62
   1  11 -11   32.08    1.79
  -1 -11  11   37.20    1.87
   0 -11  11    3.45    0.84
   1 -11  11    3.86    0.89
   2 -11  11   22.34    1.75
  -3  11 -11    8.73    1.42
   3 -11  11   11.03    1.43
  -4  11 -11   -0.43    1.19
   4 -11  11    1.89    1.01
  -3 -10  11   28.01    1.74
  -2 -10  11   30.80    1.70
  -1 -10  11    7.72    1.03
   0 -10  11    2.78    0.77
   1 -10  11   18.61    1.44
   2 -10  11   38.89    2.05
   3 -10  11    5.06    1.14
   4 -10  11    1.33    0.99
  -3  -9  11   19.75    1.56
  -2  -9  11   10.92    1.17
  -1  -9  11    3.89    0.82
   0  -9  11   25.93    1.56
   1  -9  11   31.56    1.72
   2  -9  11    7.17    1.13
   3  -9  11    2.07    0.92
   4  -9  11    6.06    1.24
  -4  -8  11   34.25    1.91
  -3  -8  11    9.10    1.14
  -2  -8  11    3.25    0.77
  -1  -8  11   38.22    1.77
   0  -8  11   38.56    1.81
   1  -8  11   17.41    1.38
   2  -8  11    1.16    0.76
   3  -8  11   20.02    1.72
   4  -8  11   13.33    1.50
  -4  -7  11    7.61    1.10
  -3  -7  11    1.02    0.68
  -2  -7  11   36.35    1.70
  -1  -7  11   60.67    2.19
   0  -7  11   18.33    1.26
   1  -7  11    0.31    0.55
   2  -7  11   17.60    1.55
   3  -7  11   25.93    1.91
   4  -7  11    2.91    1.05
  -4  -6  11    1.57    0.74
  -3  -6  11   25.77    1.53
  -2  -6  11   65.49    2.29
  -1  -6  11   33.90    1.58
   0  -6  11    0.81    0.57
   1  -6  11   24.72    1.51
   2  -6  11   57.93    2.40
   3  -6  11    2.72    0.95
   4  -6  11   -0.22    0.83
  -5  -5  11   -0.75    0.72
  -4  -5  11   14.74    1.35
  -3  -5  11   49.19    1.98
  -2  -5  11   26.12    1.38
  -1  -5  11    0.41    0.49
   0  -5  11    7.98    0.93
   1  -5  11   62.41    2.33
   2  -5  11   45.84    2.16
   3  -5  11   -0.03    0.75
   4  -5  11    5.67    1.12
  -5  -4  11   17.04    1.48
  -4  -4  11   42.08    1.88
  -3  -4  11   20.36    1.28
  -2  -4  11    1.38    0.59
  -1  -4  11   18.31    1.16
   0  -4  11   24.74    1.35
   1  -4  11   42.37    1.93
   2  -4  11    0.59    0.70
   3  -4  11    4.88    0.98
   4  -4  11   21.83    1.88
  -5  -3  11   36.27    1.78
  -4  -3  11   36.88    1.73
  -3  -3  11    0.19    0.51
  -3  -3  11   -0.60    0.54
  -2  -3  11   37.91    1.65
  -2  -3  11   38.28    1.65
  -1  -3  11   66.12    2.24
  -1  -3  11   65.85    2.25
   0  -3  11   33.00    1.57
   0  -3  11   33.97    1.57
   1  -3  11    6.28    0.87
   1  -3  11    5.04    0.84
   2  -3  11   13.60    1.35
   3  -3  11   23.63    1.74
   4  -3  11   12.18    1.40
   6   2 -11   17.60    2.28
  -6  -2  11   17.69    1.54
  -5  -2  11   21.47    1.49
  -4  -2  11    3.91    0.76
  -3  -2  11   18.52    1.23
  -3  -2  11   18.88    1.24
  -2  -2  11   86.62    2.74
  -2  -2  11   90.53    2.71
  -1  -2  11   42.19    1.78
  -1  -2  11   40.99    1.69
   0  -2  11   14.68    1.20
   0  -2  11   14.31    1.14
   1  -2  11   14.73    1.28
   1  -2  11   14.81    1.23
   2  -2  11   22.78    1.50
   2  -2  11   23.74    1.53
   3  -2  11   21.69    1.59
   4  -2  11    3.59    1.08
   6   1 -11   12.06    1.37
  -5  -1  11    0.97    0.68
  -4  -1  11    5.96    0.84
  -3  -1  11   45.84    1.90
  -3  -1  11   47.86    1.82
  -2  -1  11   62.28    2.11
  -2  -1  11   61.38    2.22
  -1  -1  11    1.83    0.67
  -1  -1  11    1.87    0.55
   0  -1  11    8.66    0.96
   0  -1  11    6.03    0.83
   1  -1  11   35.73    1.73
   1  -1  11   35.23    1.69
   2  -1  11   19.16    1.41
   2  -1  11   18.48    1.43
   3  -1  11    2.68    0.85
   4  -1  11    0.82    0.93
   6   0 -11    2.14    0.95
   5   0 -11    4.06    0.97
  -4   0  11   21.57    1.89
  -3   0  11   37.70    2.22
  -3   0  11   33.90    1.66
  -2   0  11    4.82    0.69
  -2   0  11    5.59    0.85
  -1   0  11    0.91    0.49
  -1   0  11    1.09    0.64
   0   0  11   49.06    1.92
   0   0  11   53.71    2.06
   1   0  11   27.66    1.54
   1   0  11   32.10    1.63
   2   0  11    1.91    0.75
   2   0  11    1.02    0.70
   3   0  11    1.92    0.86
   3   0  11    2.64    0.90
   4   0  11    7.35    1.27
   6  -1 -11    3.38    1.10
   5  -1 -11   21.26    1.77
   4  -1 -11   24.91    1.92
  -4   1  11   23.75    1.51
  -3   1  11    3.49    0.77
  -2   1  11    9.62    1.01
  -1   1  11   23.94    1.40
   0   1  11   33.89    1.66
   1   1  11    6.95    0.97
   1   1  11    6.40    0.87
   2   1  11    6.15    0.95
   2   1  11    5.90    0.99
   3   1  11    8.95    1.19
   5  -2 -11   15.06    1.52
   4  -2 -11    4.69    1.08
  -4   2  11    5.40    0.93
  -3   2  11    4.97    0.87
  -2   2  11   24.73    1.47
  -1   2  11   58.81    2.19
   0   2  11    9.92    1.06
   1   2  11    2.27    0.77
   2   2  11   16.10    1.35
   5  -3 -11    4.83    1.24
   4  -3 -11    1.90    0.99
  -4   3  11    2.70    0.86
  -3   3  11   18.67    1.39
  -2   3  11   23.93    1.47
  -1   3  11    7.94    0.97
   0   3  11    0.35    0.62
   1   3  11   14.18    1.27
   2   3  11   18.00    1.43
   5  -4 -11   -0.73    1.05
   4  -4 -11   13.05    1.55
   3  -4 -11   14.02    1.53
  -3   4  11   14.61    1.32
  -2   4  11   10.83    1.12
  -1   4  11    4.24    0.86
   0   4  11    9.47    1.08
   1   4  11   12.06    1.20
   2   4  11    1.48    1.15
   4  -5 -11   12.35    1.64
  -4   5  11   13.36    1.30
   3  -5 -11    3.85    1.18
  -3   5  11    7.22    1.04
  -2   5  11    0.21    0.70
  -1   5  11   10.11    1.13
   0   5  11   16.15    1.35
   1   5  11    8.97    1.09
   4  -6 -11   -1.12    1.17
   3  -6 -11   -2.25    0.96
  -3   6  11    0.07    0.87
  -2   6  11   11.67    1.22
  -1   6  11   10.87    1.22
   0  13 -12    6.33    1.19
   0 -13  12    6.80    1.19
   1 -13  12   13.47    1.52
   2 -13  12    7.85    1.33
  -1 -12  12    8.58    1.23
   0  12 -12   18.49    1.62
   0 -12  12   18.05    1.56
  -1  12 -12    8.73    1.39
   1 -12  12   10.06    1.33
  -2  12 -12    0.69    1.17
   2 -12  12    0.68    0.87
   3 -12  12    2.85    1.08
  -2 -11  12    7.80    1.14
  -1 -11  12   21.68    1.56
   0 -11  12   19.90    1.61
   1 -11  12    2.51    0.84
   2 -11  12    3.90    1.02
   3 -11  12   13.29    1.60
  -2 -10  12   22.63    1.56
  -1 -10  12   23.01    1.57
   0 -10  12    4.32    0.95
   1 -10  12    2.28    0.81
   2 -10  12   14.97    1.55
   3 -10  12   13.34    1.57
   4 -10  12    2.17    1.26
  -3  -9  12   28.61    1.74
  -2  -9  12   21.52    1.47
  -1  -9  12    3.01    0.80
   0  -9  12    8.09    1.07
   1  -9  12   11.26    1.26
   2  -9  12   20.58    1.67
   3  -9  12    3.26    1.07
   4  -9  12    0.86    0.97
  -3  -8  12   26.62    1.62
  -2  -8  12    7.45    1.03
  -1  -8  12    9.30    1.12
   0  -8  12   32.19    1.71
   1  -8  12   13.60    1.34
   2  -8  12    9.31    1.25
   3  -8  12    1.25    0.96
   4  -8  12    7.43    1.33
  -4  -7  12   31.22    1.79
  -3  -7  12   11.00    1.23
  -2  -7  12    1.67    0.69
  -1  -7  12   64.56    2.36
   0  -7  12   31.50    1.66
   1  -7  12    7.91    1.09
   2  -7  12    2.94    0.88
   3  -7  12    8.31    1.27
   4  -7  12    8.87    1.36
  -4  -6  12   10.33    1.19
  -3  -6  12    3.84    0.85
  -2  -6  12   27.17    1.55
  -1  -6  12   60.44    2.25
   0  -6  12   10.30    1.09
   1  -6  12   -0.57    0.57
   2  -6  12   30.73    1.87
   3  -6  12   18.55    1.68
   4  -6  12    1.37    0.99
  -4  -5  12    0.05    0.69
  -3  -5  12    8.41    1.04
  -2  -5  12   41.67    1.85
  -1  -5  12   15.98    1.25
   0  -5  12    0.25    0.53
   1  -5  12   13.96    1.36
   2  -5  12   26.22    1.80
   3  -5  12    4.19    0.99
   4  -5  12   -0.94    0.85
  -5  -4  12    0.99    0.80
  -4  -4  12   41.27    1.90
  -3  -4  12   27.79    1.57
  -2  -4  12   19.82    1.28
  -1  -4  12    1.05    0.59
   0  -4  12   13.65    1.15
   1  -4  12   40.02    1.97
   2  -4  12   13.02    1.38
   3  -4  12   -0.25    0.74
   4  -4  12    5.63    1.23
  -5  -3  12   15.07    1.34
  -4  -3  12   30.16    1.62
  -3  -3  12   18.94    1.29
  -3  -3  12   19.45    1.28
  -2  -3  12    1.42    0.62
  -2  -3  12    1.47    0.67
  -1  -3  12   39.33    1.71
  -1  -3  12   37.39    1.75
   0  -3  12   41.31    1.83
   0  -3  12   38.02    1.81
   1  -3  12   21.04    1.51
   2  -3  12   -0.37    0.67
   3  -3  12    7.21    1.13
   4  -3  12   11.91    1.87
  -5  -2  12   28.70    1.66
  -4  -2  12   12.40    1.19
  -3  -2  12    0.54    0.64
  -3  -2  12    1.00    0.61
  -2  -2  12   24.26    1.37
  -2  -2  12   21.56    1.41
  -1  -2  12   43.91    1.91
  -1  -2  12   42.55    1.81
   0  -2  12   20.67    1.37
   0  -2  12   19.67    1.42
   1  -2  12    1.73    0.75
   1  -2  12    1.53    0.69
   2  -2  12    8.42    1.11
   3  -2  12   18.82    1.64
  -4  -1  12    2.14    1.13
  -3  -1  12   14.54    1.29
  -3  -1  12   17.36    1.20
  -2  -1  12   39.36    1.82
  -2  -1  12   39.53    1.70
  -1  -1  12   27.67    1.42
  -1  -1  12   24.72    1.50
   0  -1  12    3.37    0.74
   0  -1  12    2.44    0.78
   1  -1  12   11.22    1.18
   1  -1  12    9.35    1.09
   2  -1  12   20.41    1.52
   2  -1  12   21.95    1.56
   3  -1  12    9.56    1.25
  -4   0  12    7.96    1.57
  -3   0  12   24.86    1.55
  -2   0  12   13.28    1.26
  -1   0  12   -0.85    0.62
  -1   0  12    0.33    0.61
   0   0  12    7.17    0.92
   0   0  12    7.29    0.99
   1   0  12   17.85    1.38
   1   0  12   16.35    1.32
   2   0  12    7.01    1.03
   2   0  12    9.20    1.16
   3   0  12   -0.77    1.12
   3   0  12   -0.77    0.77
  -4   1  12   32.94    1.76
  -3   1  12   16.89    1.41
  -2   1  12    1.20    0.72
  -1   1  12   10.58    1.09
   0   1  12   30.60    1.69
   1   1  12   15.24    1.35
   2   1  12    0.50    0.76
  -4   2  12   14.14    1.34
  -3   2  12    1.52    0.73
  -2   2  12    8.49    1.03
  -1   2  12   39.03    1.83
   0   2  12   23.25    1.51
   1   2  12    2.09    0.80
   2   2  12    1.47    0.85
  -4   3  12    0.59    0.77
  -3   3  12    2.28    0.81
  -2   3  12   14.45    1.33
  -1   3  12   14.99    1.31
   0   3  12    1.85    0.77
   1   3  12    3.25    0.88
   2   3  12    3.96    0.97
  -4   4  12    1.51    0.85
  -3   4  12   10.43    1.19
  -2   4  12   18.75    1.40
  -1   4  12    3.45    0.88
   0   4  12    1.07    0.73
   1   4  12    9.59    1.23
   0 -12  13    7.92    1.24
   1 -12  13   18.67    1.68
   2 -12  13    3.91    1.22
  -1 -11  13    6.66    1.08
   0 -11  13   22.48    1.74
   1 -11  13   17.18    1.68
   2 -11  13    0.20    0.84
  -2 -10  13    9.27    1.22
  -1 -10  13   13.84    1.42
   0 -10  13   13.97    1.38
   1 -10  13    1.75    0.84
   2 -10  13    3.58    1.04
   3 -10  13   12.89    1.61
  -2  -9  13   25.24    1.68
  -1  -9  13   18.80    1.45
   0  -9  13   -0.13    0.64
   1  -9  13    7.39    1.12
   2  -9  13    9.23    1.32
   3  -9  13   10.44    1.47
  -3  -8  13   25.21    1.71
  -2  -8  13   15.17    1.34
  -1  -8  13    0.45    0.63
   0  -8  13    7.71    1.08
   1  -8  13   19.55    1.56
   2  -8  13   19.57    1.74
   3  -8  13    0.84    0.92
  -3  -7  13   15.23    1.36
  -2  -7  13    3.37    0.84
  -1  -7  13   13.80    1.30
   0  -7  13   29.68    1.73
   1  -7  13   17.00    1.47
   2  -7  13    2.27    0.90
   3  -7  13    3.49    1.09
  -4  -6  13   33.94    1.86
  -3  -6  13    7.45    1.04
  -2  -6  13    3.17    0.81
  -1  -6  13   31.90    1.75
   0  -6  13   21.77    1.48
   1  -6  13    9.06    1.22
   2  -6  13    3.32    0.95
   3  -6  13    7.49    1.24
  -4  -5  13    2.91    0.85
  -3  -5  13    3.37    0.82
  -2  -5  13   26.31    1.57
  -1  -5  13   29.36    1.60
   0  -5  13    7.96    1.08
   1  -5  13    1.39    0.75
   2  -5  13   12.62    1.42
   3  -5  13   10.42    1.34
  -4  -4  13    3.18    0.85
  -3  -4  13   24.68    1.50
  -2  -4  13   35.43    1.77
  -1  -4  13    1.18    0.63
   0  -4  13    5.96    0.94
   1  -4  13   26.07    1.67
   2  -4  13   10.74    1.33
   3  -4  13    2.52    0.92
  -5  -3  13    2.41    0.83
  -4  -3  13   12.60    1.24
  -3  -3  13   31.91    1.74
  -3  -3  13   30.54    1.62
  -2  -3  13   14.71    1.18
  -2  -3  13   13.09    1.29
  -1  -3  13    5.27    0.92
  -1  -3  13    5.50    0.88
   0  -3  13   23.50    1.59
   0  -3  13   22.58    1.47
   1  -3  13   31.53    1.85
   2  -3  13    4.16    0.98
   3  -3  13    0.37    0.85
  -4  -2  13   18.30    1.38
  -3  -2  13   12.41    1.18
  -3  -2  13    9.10    1.09
  -2  -2  13    2.32    0.69
  -2  -2  13    2.70    0.80
  -1  -2  13   15.97    1.38
  -1  -2  13   18.45    1.28
   0  -2  13   36.69    1.78
   0  -2  13   32.37    1.75
   1  -2  13    9.01    1.12
   1  -2  13    9.63    1.16
   2  -2  13    2.41    0.84
   3  -2  13    4.77    1.06
  -3  -1  13    1.50    0.75
  -2  -1  13   19.85    1.57
  -2  -1  13   17.61    1.40
  -1  -1  13   21.63    1.35
  -1  -1  13   18.00    1.38
   0  -1  13   16.88    1.40
   0  -1  13   18.51    1.37
   1  -1  13   -0.49    0.73
   1  -1  13    0.41    0.65
   2  -1  13    9.39    1.24
   2  -1  13    7.60    1.09
   3  -1  13    8.53    1.23
  -3   0  13   15.18    1.42
  -2   0  13   17.82    1.44
  -1   0  13    9.58    1.13
   0   0  13    0.90    0.75
   1   0  13   15.05    1.45
   2   0  13   12.02    1.32
   2   0  13   14.43    2.01
  -4   1  13   12.96    1.32
  -3   1  13   22.02    1.57
  -2   1  13    3.98    0.90
  -1   1  13    3.63    0.88
   0   1  13   10.85    1.21
   1   1  13   22.15    1.63
   2   1  13    7.73    1.17
  -4   2  13   19.24    1.63
  -3   2  13   13.35    1.32
  -2   2  13    0.17    0.70
  -1   2  13    3.19    0.86
   0   2  13   17.05    1.46
   1   2  13    8.68    1.19
  -4   3  13    6.22    1.41
  -3   3  13    0.99    0.81
  -2   3  13   16.77    1.45
  -1   3  13    9.86    1.17
   0   3  13    8.23    1.68
  -1 -10  14   12.63    1.62
   0 -10  14   21.98    1.71
   1 -10  14    4.95    1.11
  -1  -9  14   22.57    1.63
   0  -9  14    6.52    1.11
   1  -9  14   -0.60    0.67
   2  -9  14    9.35    1.38
  -2  -8  14   20.02    1.59
  -1  -8  14   13.15    1.43
   0  -8  14    1.14    0.70
   1  -8  14    8.15    1.21
   2  -8  14   13.00    1.51
  -3  -7  14   17.52    1.56
  -2  -7  14   16.15    1.44
  -1  -7  14    0.98    0.69
   0  -7  14   12.75    1.41
   1  -7  14   32.52    1.93
   2  -7  14    7.80    1.28
  -3  -6  14   13.75    1.37
  -2  -6  14    2.15    0.76
  -1  -6  14   11.86    1.32
   0  -6  14   22.62    1.64
   1  -6  14   26.45    1.77
   2  -6  14    1.32    0.95
  -3  -5  14   -0.06    0.65
  -2  -5  14    8.88    1.11
  -1  -5  14   19.16    1.47
   0  -5  14    8.94    1.14
   1  -5  14    0.26    0.71
   2  -5  14    2.87    0.96
  -4  -4  14    2.45    0.80
  -3  -4  14    6.65    1.00
  -2  -4  14   44.25    2.08
  -1  -4  14   15.09    1.29
   0  -4  14    0.70    0.68
   1  -4  14    5.49    1.04
   2  -4  14   18.52    1.65
  -4  -3  14    3.53    0.84
  -3  -3  14   24.51    1.73
  -3  -3  14   27.99    1.64
  -2  -3  14   33.71    1.88
  -2  -3  14   37.39    1.85
  -1  -3  14    1.56    0.66
  -1  -3  14    2.36    0.83
   0  -3  14    8.07    1.08
   0  -3  14    8.95    1.17
   1  -3  14   17.41    1.50
   2  -3  14    9.23    1.20
  -3  -2  14   25.45    1.70
  -2  -2  14    2.21    0.81
  -2  -2  14    3.97    0.85
  -1  -2  14    4.65    0.98
  -1  -2  14    4.34    0.85
   0  -2  14   26.99    1.69
   0  -2  14   24.32    1.68
   1  -2  14   21.41    1.56
   1  -2  14   21.03    1.69
   2  -2  14    3.81    0.93
  -3  -1  14    7.31    1.11
  -2  -1  14    2.09    0.82
  -1  -1  14   19.14    1.54
   0  -1  14   18.68    1.49
   1  -1  14    4.22    0.94
   1  -1  14    3.43    0.96
   2  -1  14    0.17    0.79
   2  -1  14   -0.42    1.26
  -3   0  14    2.81    0.92
  -2   0  14   13.18    1.34
  -1   0  14   15.34    1.43
   0   0  14    3.43    0.93
   1   0  14    1.84    0.93
  -3   1  14   16.48    1.57
  -2   1  14   22.48    1.60
  -1   1  14    6.61    1.05
   0   1  14   -1.21    0.84
  -1  -8  15   22.76    2.19
   0  -8  15    6.53    1.11
  -2  -7  15   18.89    2.55
  -1  -7  15   14.13    1.41
   0  -7  15    0.10    0.69
   1  -7  15   19.94    1.72
  -2  -6  15    9.46    1.21
  -1  -6  15    0.63    0.67
   0  -6  15   11.82    1.37
   1  -6  15   18.40    1.75
  -3  -5  15   10.58    1.51
  -2  -5  15    0.80    0.67
  -1  -5  15    8.94    1.20
   0  -5  15   20.81    1.68
   1  -5  15    9.52    1.33
  -3  -4  15    1.53    0.75
  -2  -4  15   10.81    1.25
  -1  -4  15   28.63    1.76
   0  -4  15    9.52    1.28
   1  -4  15    0.47    0.81
  -3  -3  15    6.67    1.03
  -3  -3  15    4.57    1.04
  -2  -3  15   24.94    1.65
  -2  -3  15   22.53    1.74
  -1  -3  15   15.81    1.43
  -1  -3  15   15.09    1.47
   0  -3  15    0.47    0.84
   0  -3  15    2.15    0.83
   1  -3  15    6.35    1.11
  -3  -2  15   12.11    1.36
  -2  -2  15   20.95    1.74
  -1  -2  15    0.20    0.80
   0  -2  15    3.58    0.95
   0  -2  15    2.14    0.94
   1  -2  15   19.71    1.67
  -3  -1  15   12.94    1.43
  -2  -1  15    0.78    0.86
  -1  -1  15    1.59    1.02
  -1  -5  16    0.74    1.06
  -2  -4  16    0.27    1.08
  -1  -4  16    8.18    1.17
   0  -4  16   17.11    2.00
  -1  -3  16   24.33    1.78
   0  -3  16    5.73    1.14
   0   0   0    0.00    0.00
;
_shelx_hkl_checksum              93001
loop_
_space_group_symop_operation_xyz
'x, y, z'
'-x, -y, -z'
loop_
_atom_site_label
_atom_site_type_symbol
_atom_site_fract_x
_atom_site_fract_y
_atom_site_fract_z
_atom_site_U_iso_or_equiv
_atom_site_adp_type
_atom_site_occupancy
_atom_site_site_symmetry_order
_atom_site_calc_flag
_atom_site_refinement_flags_posn
_atom_site_refinement_flags_adp
_atom_site_refinement_flags_occupancy
_atom_site_disorder_assembly
_atom_site_disorder_group
Dy1 Dy 1.12282(4) 1.11489(2) 0.40418(2) 0.02623(14) Uani 1 1 d . . . . .
O1W O 0.7481(8) 0.9925(5) 0.3103(4) 0.0393(11) Uani 1 1 d . . . . .
H1WA H 0.6662 0.9784 0.3594 0.059 Uiso 1 1 d R U . . .
H1WB H 0.7563 0.9231 0.2617 0.059 Uiso 1 1 d R U . . .
O2 O 0.4341(8) 0.2058(5) 0.3201(4) 0.0426(12) Uani 1 1 d . . . . .
O2W O 0.9177(10) 1.2647(5) 0.3992(6) 0.0569(16) Uani 1 1 d . . . . .
H2WA H 0.9159 1.3170 0.4698 0.085 Uiso 1 1 d R U . . .
H2WB H 0.7695 1.2271 0.3649 0.085 Uiso 1 1 d R U . . .
O3 O 0.1048(8) 0.0947(5) 0.1999(4) 0.0452(12) Uani 1 1 d . . . . .
O4 O 1.0633(8) 0.8959(4) 0.4409(4) 0.0361(11) Uani 1 1 d . . . . .
O5 O 1.2417(9) 0.9297(4) 0.3043(4) 0.0366(11) Uani 1 1 d . . . . .
O6 O 1.5431(8) 0.8543(4) 0.4599(4) 0.0330(10) Uani 1 1 d . . . . .
O7 O 1.6447(9) 0.6844(5) 0.4461(5) 0.0492(13) Uani 1 1 d . . . . .
N16 N 0.4218(18) 0.1298(7) -0.0784(6) 0.095(4) Uani 1 1 d . . . . .
O1 O 0.7625(16) 0.4485(8) 0.0566(7) 0.045(3) Uani 0.569(8) 1 d . . P A 1
C1 C 0.541(2) 0.2468(13) -0.0629(11) 0.045(4) Uani 0.569(8) 1 d . . P A 1
H1 H 0.5632 0.2705 -0.1257 0.054 Uiso 0.569(8) 1 calc R U P A 1
C2 C 0.629(2) 0.3315(11) 0.0475(10) 0.032(3) Uani 0.569(8) 1 d . . P A 1
C3 C 0.560(2) 0.3007(12) 0.1384(10) 0.034(3) Uani 0.569(8) 1 d . . P A 1
H3 H 0.6084 0.3611 0.2125 0.041 Uiso 0.569(8) 1 calc R U P A 1
O1A O 1.0192(19) 0.3465(9) 0.0902(10) 0.039(3) Uani 0.431(8) 1 d . . P A 2
C2A C 0.791(3) 0.2709(13) 0.0694(13) 0.031(4) Uani 0.431(8) 1 d . . P A 2
C1A C 0.688(3) 0.1986(15) -0.0442(14) 0.039(4) Uani 0.431(8) 1 d . . P A 2
H1A H 0.7804 0.1911 -0.1014 0.047 Uiso 0.431(8) 1 calc R U P A 2
C3A C 0.670(3) 0.2632(16) 0.1567(13) 0.034(4) Uani 0.431(8) 1 d . . P A 2
H3A H 0.7397 0.3055 0.2335 0.041 Uiso 0.431(8) 1 calc R U P A 2
C4 C 0.4222(14) 0.1845(7) 0.1240(7) 0.0458(19) Uani 1 1 d . . . . .
C5 C 0.3306(15) 0.1113(7) 0.0090(6) 0.052(2) Uani 1 1 d . . . . .
H5 H 0.1968 0.0451 -0.0075 0.062 Uiso 1 1 calc R U . . .
C6 C 0.9198(17) 0.5227(8) 0.1485(7) 0.058(3) Uani 1 1 d . . . . .
H6 H 0.7895 0.4756 0.0917 0.070 Uiso 0.431(8) 1 calc R U P A 2
C7 C 0.9464(13) 0.6495(7) 0.2064(6) 0.0425(17) Uani 1 1 d . . . . .
H7 H 0.8379 0.6874 0.1862 0.051 Uiso 1 1 calc R U . . .
C8 C 1.1347(11) 0.7200(6) 0.2944(5) 0.0296(14) Uani 1 1 d . . . . .
C9 C 1.2988(11) 0.6631(6) 0.3221(6) 0.0325(15) Uani 1 1 d . . . . .
C10 C 1.2688(16) 0.5342(7) 0.2612(8) 0.054(2) Uani 1 1 d . . . . .
H10 H 1.3762 0.4951 0.2802 0.065 Uiso 1 1 calc R U . . .
C11 C 1.0797(18) 0.4652(8) 0.1727(8) 0.063(3) Uani 1 1 d . . . . .
H11 H 1.0627 0.3807 0.1306 0.075 Uiso 0.569(8) 1 calc R U P A 1
C12 C 0.3130(12) 0.1583(6) 0.2184(6) 0.0328(15) Uani 1 1 d . . . . .
C13 C 1.1522(10) 0.8565(6) 0.3514(5) 0.0257(13) Uani 1 1 d . . . . .
C14 C 1.5092(11) 0.7373(6) 0.4149(6) 0.0321(15) Uani 1 1 d . . . . .
O3W O 0.242(4) 0.5179(14) 0.5400(17) 0.198(7) Uani 1 1 d G . . . .
H3WA H 0.2778 0.4506 0.5047 0.298 Uiso 1 1 d G U . . .
H3WB H 0.2049 0.5174 0.6040 0.298 Uiso 1 1 d G U . . .
loop_
_atom_site_aniso_label
_atom_site_aniso_U_11
_atom_site_aniso_U_22
_atom_site_aniso_U_33
_atom_site_aniso_U_23
_atom_site_aniso_U_13
_atom_site_aniso_U_12
Dy1 0.0235(2) 0.0288(2) 0.0251(2) 0.01147(13) 0.00757(12) 0.00143(13)
O1W 0.028(2) 0.048(3) 0.040(3) 0.019(2) 0.011(2) 0.000(2)
O2 0.032(3) 0.058(3) 0.034(3) 0.024(2) 0.003(2) -0.005(2)
O2W 0.043(3) 0.041(3) 0.078(4) 0.015(3) -0.004(3) 0.011(3)
O3 0.032(3) 0.062(3) 0.039(3) 0.026(2) 0.007(2) -0.004(2)
O4 0.031(3) 0.038(3) 0.030(2) 0.005(2) 0.012(2) 0.003(2)
O5 0.046(3) 0.032(2) 0.032(3) 0.015(2) 0.012(2) 0.005(2)
O6 0.031(2) 0.023(2) 0.037(3) 0.0065(19) 0.0001(19) 0.0011(18)
O7 0.049(3) 0.034(3) 0.063(4) 0.014(2) 0.005(3) 0.016(2)
N16 0.129(8) 0.062(5) 0.035(4) -0.008(4) 0.032(5) -0.050(5)
O1 0.049(6) 0.042(5) 0.027(4) 0.015(4) -0.014(4) -0.018(4)
C1 0.035(7) 0.055(8) 0.022(6) 0.007(6) 0.003(5) -0.020(6)
C2 0.031(6) 0.033(6) 0.022(6) 0.009(5) -0.001(5) -0.006(5)
C3 0.041(8) 0.033(6) 0.023(6) 0.008(5) 0.001(5) 0.003(6)
O1A 0.042(7) 0.016(5) 0.045(7) -0.001(4) 0.018(5) -0.006(4)
C2A 0.038(9) 0.020(7) 0.029(8) 0.007(6) 0.007(6) 0.000(6)
C1A 0.030(9) 0.036(9) 0.029(8) 0.000(7) 0.000(7) -0.010(7)
C3A 0.035(10) 0.034(9) 0.015(7) 0.006(6) -0.002(7) -0.019(8)
C4 0.050(4) 0.035(4) 0.038(4) 0.007(3) 0.018(3) -0.011(3)
C5 0.062(5) 0.041(4) 0.035(4) 0.012(3) 0.013(4) -0.017(4)
C6 0.067(6) 0.042(4) 0.031(4) -0.002(3) 0.015(4) -0.032(4)
C7 0.040(4) 0.046(4) 0.028(4) 0.011(3) 0.004(3) -0.008(3)
C8 0.029(3) 0.031(3) 0.022(3) 0.007(3) 0.011(3) -0.003(3)
C9 0.031(3) 0.022(3) 0.035(4) 0.003(3) 0.012(3) -0.003(3)
C10 0.051(5) 0.025(4) 0.072(6) 0.003(4) 0.020(4) 0.002(3)
C11 0.071(6) 0.028(4) 0.058(6) -0.008(4) 0.035(5) -0.016(4)
C12 0.037(4) 0.035(3) 0.029(3) 0.018(3) 0.012(3) 0.003(3)
C13 0.019(3) 0.029(3) 0.022(3) 0.004(3) 0.002(2) 0.001(2)
C14 0.028(3) 0.032(3) 0.037(4) 0.012(3) 0.017(3) 0.005(3)
O3W 0.28(2) 0.098(9) 0.229(19) 0.064(11) 0.026(17) 0.072(11)
loop_
_atom_type_symbol
_atom_type_description
_atom_type_scat_dispersion_real
_atom_type_scat_dispersion_imag
_atom_type_scat_source
C C 0.0033 0.0016 'International Tables Vol C Tables 4.2.6.8 and 6.1.1.4'
H H 0.0000 0.0000 'International Tables Vol C Tables 4.2.6.8 and 6.1.1.4'
Dy Dy -0.1892 4.4098 'International Tables Vol C Tables 4.2.6.8 and 6.1.1.4'
N N 0.0061 0.0033 'International Tables Vol C Tables 4.2.6.8 and 6.1.1.4'
O O 0.0106 0.0060 'International Tables Vol C Tables 4.2.6.8 and 6.1.1.4'
loop_
_geom_angle_atom_site_label_1
_geom_angle_atom_site_label_2
_geom_angle_atom_site_label_3
_geom_angle
_geom_angle_site_symmetry_1
_geom_angle_site_symmetry_3
O1W Dy1 O4 78.50(16) . 2_776
O1W Dy1 O2W 76.27(19) . .
O4 Dy1 O2W 85.7(2) 2_776 .
O1W Dy1 O6 147.05(17) . 2_876
O4 Dy1 O6 80.81(16) 2_776 2_876
O2W Dy1 O6 127.35(18) . 2_876
O1W Dy1 O5 84.78(17) . .
O4 Dy1 O5 114.00(16) 2_776 .
O2W Dy1 O5 149.5(2) . .
O6 Dy1 O5 80.56(16) 2_876 .
O1W Dy1 O2 126.96(16) . 1_665
O4 Dy1 O2 153.04(17) 2_776 1_665
O2W Dy1 O2 91.9(2) . 1_665
O6 Dy1 O2 79.45(16) 2_876 1_665
O5 Dy1 O2 80.56(17) . 1_665
O1W Dy1 O7 145.26(18) . 2_876
O4 Dy1 O7 80.89(17) 2_776 2_876
O2W Dy1 O7 74.55(19) . 2_876
O6 Dy1 O7 53.18(16) 2_876 2_876
O5 Dy1 O7 129.39(17) . 2_876
O2 Dy1 O7 72.60(18) 1_665 2_876
O1W Dy1 O3 73.61(16) . 1_665
O4 Dy1 O3 150.54(17) 2_776 1_665
O2W Dy1 O3 78.8(2) . 1_665
O6 Dy1 O3 128.40(16) 2_876 1_665
O5 Dy1 O3 72.98(17) . 1_665
O2 Dy1 O3 53.36(15) 1_665 1_665
O7 Dy1 O3 117.94(18) 2_876 1_665
O1W Dy1 O4 73.77(16) . .
O4 Dy1 O4 64.06(17) 2_776 .
O2W Dy1 O4 140.77(18) . .
O6 Dy1 O4 74.19(14) 2_876 .
O5 Dy1 O4 49.97(14) . .
O2 Dy1 O4 126.50(16) 1_665 .
O7 Dy1 O4 120.67(17) 2_876 .
O3 Dy1 O4 115.46(16) 1_665 .
O1W Dy1 C14 159.01(18) . 2_876
O4 Dy1 C14 80.55(17) 2_776 2_876
O2W Dy1 C14 100.9(2) . 2_876
O6 Dy1 C14 26.75(17) 2_876 2_876
O5 Dy1 C14 105.09(18) . 2_876
O2 Dy1 C14 73.56(17) 1_665 2_876
O7 Dy1 C14 26.45(18) 2_876 2_876
O3 Dy1 C14 126.73(17) 1_665 2_876
O4 Dy1 C14 98.14(17) . 2_876
O1W Dy1 C12 99.95(18) . 1_665
O4 Dy1 C12 170.88(18) 2_776 1_665
O2W Dy1 C12 85.2(2) . 1_665
O6 Dy1 C12 104.28(19) 2_876 1_665
O5 Dy1 C12 74.60(17) . 1_665
O2 Dy1 C12 27.02(18) 1_665 1_665
O7 Dy1 C12 96.0(2) 2_876 1_665
O3 Dy1 C12 26.35(18) 1_665 1_665
O4 Dy1 C12 124.37(17) . 1_665
C14 Dy1 C12 100.53(19) 2_876 1_665
O1W Dy1 C13 76.19(17) . .
O4 Dy1 C13 89.52(16) 2_776 .
O2W Dy1 C13 152.46(18) . .
O6 Dy1 C13 78.28(15) 2_876 .
O5 Dy1 C13 24.65(16) . .
O2 Dy1 C13 104.17(17) 1_665 .
O7 Dy1 C13 131.36(17) 2_876 .
O3 Dy1 C13 92.86(17) 1_665 .
O4 Dy1 C13 25.50(15) . .
C14 Dy1 C13 105.02(18) 2_876 .
C12 Dy1 C13 98.88(17) 1_665 .
Dy1 O1W H1WA 109.4 . .
Dy1 O1W H1WB 109.3 . .
H1WA O1W H1WB 109.4 . .
C12 O2 Dy1 93.9(4) . 1_445
Dy1 O2W H2WA 111.7 . .
Dy1 O2W H2WB 111.0 . .
H2WA O2W H2WB 107.3 . .
C12 O3 Dy1 91.9(4) . 1_445
C13 O4 Dy1 157.2(4) . 2_776
C13 O4 Dy1 86.7(4) . .
Dy1 O4 Dy1 115.94(17) 2_776 .
C13 O5 Dy1 102.0(4) . .
C14 O6 Dy1 94.4(4) . 2_876
C14 O7 Dy1 91.2(4) . 2_876
C5 N16 C1 117.7(8) . .
C5 N16 C1A 112.2(10) . .
C6 O1 C2 122.0(9) . .
N16 C1 C2 118.8(12) . .
N16 C1 H1 120.6 . .
C2 C1 H1 120.6 . .
C3 C2 C1 119.1(11) . .
C3 C2 O1 125.0(10) . .
C1 C2 O1 115.5(11) . .
C4 C3 C2 122.5(10) . .
C4 C3 H3 118.8 . .
C2 C3 H3 118.8 . .
C11 O1A C2A 119.5(10) . .
C3A C2A C1A 119.8(14) . .
C3A C2A O1A 122.5(13) . .
C1A C2A O1A 117.7(14) . .
C2A C1A N16 121.7(14) . .
C2A C1A H1A 119.2 . .
N16 C1A H1A 119.2 . .
C2A C3A C4 117.7(13) . .
C2A C3A H3A 121.2 . .
C4 C3A H3A 121.2 . .
C3 C4 C5 112.5(8) . .
C3 C4 C12 122.2(8) . .
C5 C4 C12 121.5(6) . .
C5 C4 C3A 119.8(8) . .
C12 C4 C3A 115.9(9) . .
N16 C5 C4 124.1(7) . .
N16 C5 H5 118.0 . .
C4 C5 H5 118.0 . .
O1 C6 C11 112.1(9) . .
O1 C6 C7 125.7(11) . .
C11 C6 C7 121.6(8) . .
C11 C6 H6 119.2 . .
C7 C6 H6 119.2 . .
C6 C7 C8 120.0(8) . .
C6 C7 H7 120.0 . .
C8 C7 H7 120.0 . .
C7 C8 C9 119.5(6) . .
C7 C8 C13 116.6(6) . .
C9 C8 C13 123.8(6) . .
C8 C9 C10 119.3(7) . .
C8 C9 C14 121.1(5) . .
C10 C9 C14 119.6(7) . .
C11 C10 C9 120.3(9) . .
C11 C10 H10 119.8 . .
C9 C10 H10 119.8 . .
C6 C11 O1A 106.4(10) . .
C6 C11 C10 119.2(8) . .
O1A C11 C10 134.1(12) . .
C6 C11 H11 120.4 . .
C10 C11 H11 120.4 . .
O3 C12 O2 120.7(6) . .
O3 C12 C4 120.7(6) . .
O2 C12 C4 118.5(6) . .
O3 C12 Dy1 61.7(3) . 1_445
O2 C12 Dy1 59.1(3) . 1_445
C4 C12 Dy1 177.6(5) . 1_445
O5 C13 O4 120.6(6) . .
O5 C13 C8 118.5(5) . .
O4 C13 C8 120.7(6) . .
O5 C13 Dy1 53.4(3) . .
O4 C13 Dy1 67.8(3) . .
C8 C13 Dy1 165.0(4) . .
O7 C14 O6 121.1(6) . .
O7 C14 C9 120.9(6) . .
O6 C14 C9 118.0(6) . .
O7 C14 Dy1 62.3(4) . 2_876
O6 C14 Dy1 58.9(3) . 2_876
C9 C14 Dy1 175.7(4) . 2_876
H3WA O3W H3WB 109.5 . .
loop_
_geom_bond_atom_site_label_1
_geom_bond_atom_site_label_2
_geom_bond_distance
_geom_bond_site_symmetry_2
Dy1 O1W 2.325(4) .
Dy1 O4 2.336(4) 2_776
Dy1 O2W 2.379(5) .
Dy1 O6 2.392(4) 2_876
Dy1 O5 2.408(5) .
Dy1 O2 2.422(5) 1_665
Dy1 O7 2.468(5) 2_876
Dy1 O3 2.481(5) 1_665
Dy1 O4 2.723(5) .
Dy1 C14 2.786(7) 2_876
Dy1 C12 2.817(6) 1_665
Dy1 C13 2.935(6) .
O1W H1WA 0.8507 .
O1W H1WB 0.8506 .
O2 C12 1.282(8) .
O2 Dy1 2.422(5) 1_445
O2W H2WA 0.8908 .
O2W H2WB 0.8896 .
O3 C12 1.251(8) .
O3 Dy1 2.482(5) 1_445
O4 C13 1.266(7) .
O4 Dy1 2.336(4) 2_776
O5 C13 1.251(8) .
O6 C14 1.258(8) .
O6 Dy1 2.392(4) 2_876
O7 C14 1.241(9) .
O7 Dy1 2.468(5) 2_876
N16 C5 1.322(10) .
N16 C1 1.337(15) .
N16 C1A 1.556(18) .
O1 C6 1.319(12) .
O1 C2 1.387(15) .
C1 C2 1.375(17) .
C1 H1 0.9300 .
C2 C3 1.373(17) .
C3 C4 1.368(14) .
C3 H3 0.9300 .
O1A C11 1.370(12) .
O1A C2A 1.394(18) .
C2A C3A 1.37(2) .
C2A C1A 1.39(2) .
C1A H1A 0.9300 .
C3A C4 1.490(17) .
C3A H3A 0.9300 .
C4 C5 1.390(10) .
C4 C12 1.483(10) .
C5 H5 0.9300 .
C6 C11 1.359(15) .
C6 C7 1.384(12) .
C6 H6 0.9300 .
C7 C8 1.386(10) .
C7 H7 0.9300 .
C8 C9 1.390(10) .
C8 C13 1.494(9) .
C9 C10 1.407(9) .
C9 C14 1.505(10) .
C10 C11 1.389(14) .
C10 H10 0.9300 .
C11 H11 0.9300 .
C12 Dy1 2.817(6) 1_445
C14 Dy1 2.786(7) 2_876
O3W H3WA 0.8498 .
O3W H3WB 0.8498 .
loop_
_geom_torsion_atom_site_label_1
_geom_torsion_atom_site_label_2
_geom_torsion_atom_site_label_3
_geom_torsion_atom_site_label_4
_geom_torsion
_geom_torsion_site_symmetry_1
C5 N16 C1 C2 21(2) .
N16 C1 C2 C3 -11(2) .
N16 C1 C2 O1 176.1(13) .
C6 O1 C2 C3 31(2) .
C6 O1 C2 C1 -156.5(12) .
C1 C2 C3 C4 6(2) .
O1 C2 C3 C4 178.1(12) .
C11 O1A C2A C3A -43(2) .
C11 O1A C2A C1A 139.4(15) .
C3A C2A C1A N16 13(3) .
O1A C2A C1A N16 -169.0(13) .
C5 N16 C1A C2A -22(2) .
C1A C2A C3A C4 -5(3) .
O1A C2A C3A C4 176.8(13) .
C2 C3 C4 C5 -10.2(18) .
C2 C3 C4 C12 -168.7(11) .
C2A C3A C4 C5 7(2) .
C2A C3A C4 C12 168.5(14) .
C1 N16 C5 C4 -28.2(19) .
C1A N16 C5 C4 25.0(16) .
C3 C4 C5 N16 21.9(16) .
C12 C4 C5 N16 -179.4(10) .
C3A C4 C5 N16 -19.3(18) .
C2 O1 C6 C11 55.5(13) .
C2 O1 C6 C7 -133.3(11) .
O1 C6 C7 C8 -173.0(8) .
C11 C6 C7 C8 -2.5(12) .
C6 C7 C8 C9 1.5(10) .
C6 C7 C8 C13 179.2(6) .
C7 C8 C9 C10 -0.9(10) .
C13 C8 C9 C10 -178.5(7) .
C7 C8 C9 C14 178.3(6) .
C13 C8 C9 C14 0.7(9) .
C8 C9 C10 C11 1.3(12) .
C14 C9 C10 C11 -177.9(7) .
C7 C6 C11 O1A -171.5(8) .
O1 C6 C11 C10 174.5(8) .
C7 C6 C11 C10 2.9(13) .
C2A O1A C11 C6 -52.3(15) .
C2A O1A C11 C10 134.5(13) .
C9 C10 C11 C6 -2.3(13) .
C9 C10 C11 O1A 170.3(10) .
Dy1 O3 C12 O2 -2.2(7) 1_445
Dy1 O3 C12 C4 -179.8(6) 1_445
Dy1 O2 C12 O3 2.3(7) 1_445
Dy1 O2 C12 C4 179.9(6) 1_445
C3 C4 C12 O3 136.5(11) .
C5 C4 C12 O3 -20.2(12) .
C3A C4 C12 O3 178.9(11) .
C3 C4 C12 O2 -41.2(14) .
C5 C4 C12 O2 162.2(8) .
C3A C4 C12 O2 1.3(13) .
Dy1 O5 C13 O4 -10.0(7) .
Dy1 O5 C13 C8 164.9(5) .
Dy1 O4 C13 O5 -178.9(7) 2_776
Dy1 O4 C13 O5 8.7(6) .
Dy1 O4 C13 C8 6.3(15) 2_776
Dy1 O4 C13 C8 -166.2(5) .
Dy1 O4 C13 Dy1 172.5(11) 2_776
C7 C8 C13 O5 -82.2(8) .
C9 C8 C13 O5 95.4(8) .
C7 C8 C13 O4 92.7(8) .
C9 C8 C13 O4 -89.7(8) .
C7 C8 C13 Dy1 -28.7(19) .
C9 C8 C13 Dy1 149.0(13) .
Dy1 O7 C14 O6 3.2(7) 2_876
Dy1 O7 C14 C9 -176.7(5) 2_876
Dy1 O6 C14 O7 -3.3(7) 2_876
Dy1 O6 C14 C9 176.6(5) 2_876
C8 C9 C14 O7 173.8(6) .
C10 C9 C14 O7 -7.0(10) .
C8 C9 C14 O6 -6.1(9) .
C10 C9 C14 O6 173.2(6) .
