#------------------------------------------------------------------------------
#$Date: 2019-11-24 16:21:06 +0200 (Sun, 24 Nov 2019) $
#$Revision: 238540 $
#$URL: file:///home/coder/svn-repositories/cod/cif/7/23/77/7237705.cif $
#------------------------------------------------------------------------------
#
# This file is available in the Crystallography Open Database (COD),
# http://www.crystallography.net/
#
# All data on this site have been placed in the public domain by the
# contributors.
#
data_7237705
loop_
_publ_author_name
'Shao, Bo'
'Jin, Rihua'
'Li, Aisen'
'Liu, Yingjie'
'Li, Bao'
'Xu, Shuping'
'Xu, Weiqing'
'Xu, Bin'
'Tian, Wenjing'
_publ_section_title
;
 Luminescent switching and structural transition through multiple external
 stimuli based on organic molecular polymorphs
;
_journal_issue                   11
_journal_name_full               'Journal of Materials Chemistry C'
_journal_page_first              3263
_journal_paper_doi               10.1039/C9TC00051H
_journal_volume                  7
_journal_year                    2019
_chemical_formula_moiety         'C40 H34 Cl2 N2 O2'
_chemical_formula_sum            'C40 H34 Cl2 N2 O2'
_chemical_formula_weight         645.59
_space_group_crystal_system      triclinic
_space_group_IT_number           2
_space_group_name_Hall           '-P 1'
_space_group_name_H-M_alt        'P -1'
_atom_sites_solution_hydrogens   mixed
_audit_creation_method           SHELXL-2014/7
_audit_update_record
;
2017-10-24 deposited with the CCDC.	2019-02-13 downloaded from the CCDC.
;
_cell_angle_alpha                94.934(2)
_cell_angle_beta                 91.571(2)
_cell_angle_gamma                98.421(2)
_cell_formula_units_Z            1
_cell_length_a                   4.9686(2)
_cell_length_b                   8.1389(4)
_cell_length_c                   20.8828(10)
_cell_measurement_reflns_used    5713
_cell_measurement_temperature    293(2)
_cell_measurement_theta_max      68.45
_cell_measurement_theta_min      4.26
_cell_volume                     831.59(7)
_computing_cell_refinement       'Bruker D8 Venture'
_computing_data_collection       'Bruker D8 Venture'
_computing_data_reduction        'Bruker D8 Venture'
_computing_molecular_graphics    'Bruker SHELXTL'
_computing_publication_material  'Bruker SHELXTL'
_computing_structure_refinement  'SHELXL-2014/7 (Sheldrick, 2014)'
_computing_structure_solution    'SHELXS-2014/7 (Sheldrick, 2014)'
_diffrn_ambient_temperature      293(2)
_diffrn_measured_fraction_theta_full 0.981
_diffrn_measured_fraction_theta_max 0.978
_diffrn_measurement_device_type  'D8 VENTURE PHOTON II'
_diffrn_measurement_method       'phi and omega scans'
_diffrn_radiation_type           CuK\a
_diffrn_radiation_wavelength     1.54178
_diffrn_reflns_av_R_equivalents  0.0908
_diffrn_reflns_av_unetI/netI     0.0596
_diffrn_reflns_Laue_measured_fraction_full 0.981
_diffrn_reflns_Laue_measured_fraction_max 0.978
_diffrn_reflns_limit_h_max       5
_diffrn_reflns_limit_h_min       -5
_diffrn_reflns_limit_k_max       9
_diffrn_reflns_limit_k_min       -9
_diffrn_reflns_limit_l_max       25
_diffrn_reflns_limit_l_min       -25
_diffrn_reflns_number            14982
_diffrn_reflns_point_group_measured_fraction_full 0.981
_diffrn_reflns_point_group_measured_fraction_max 0.978
_diffrn_reflns_theta_full        67.679
_diffrn_reflns_theta_max         68.439
_diffrn_reflns_theta_min         2.125
_diffrn_source                   'fine-focus sealed tube'
_exptl_absorpt_coefficient_mu    2.051
_exptl_absorpt_correction_T_max  0.821
_exptl_absorpt_correction_T_min  0.776
_exptl_absorpt_correction_type   multi-scan
_exptl_crystal_colour            orange
_exptl_crystal_density_diffrn    1.289
_exptl_crystal_description       slice
_exptl_crystal_F_000             338
_exptl_crystal_recrystallization_method 'Vapour deposition'
_exptl_crystal_size_max          0.130
_exptl_crystal_size_mid          0.120
_exptl_crystal_size_min          0.100
_refine_diff_density_max         0.183
_refine_diff_density_min         -0.303
_refine_diff_density_rms         0.057
_refine_ls_extinction_method     none
_refine_ls_goodness_of_fit_ref   1.085
_refine_ls_hydrogen_treatment    constr
_refine_ls_matrix_type           full
_refine_ls_number_parameters     208
_refine_ls_number_reflns         2982
_refine_ls_number_restraints     3
_refine_ls_restrained_S_all      1.084
_refine_ls_R_factor_all          0.0960
_refine_ls_R_factor_gt           0.0632
_refine_ls_shift/su_max          0.000
_refine_ls_shift/su_mean         0.000
_refine_ls_structure_factor_coef Fsqd
_refine_ls_weighting_details
'w=1/[\s^2^(Fo^2^)+(0.0683P)^2^+0.3226P] where P=(Fo^2^+2Fc^2^)/3'
_refine_ls_weighting_scheme      calc
_refine_ls_wR_factor_gt          0.1467
_refine_ls_wR_factor_ref         0.1611
_reflns_Friedel_coverage         0.000
_reflns_number_gt                2204
_reflns_number_total             2982
_reflns_threshold_expression     'I > 2\s(I)'
_cod_data_source_file            c9tc00051h2.cif
_cod_data_source_block           cu_3sahcl_0m
_cod_database_code               7237705
_shelx_shelxl_version_number     2014/7
_shelx_space_group_comment
;
The symmetry employed for this shelxl refinement is uniquely defined
by the following loop, which should always be used as a source of
symmetry information in preference to the above space-group names.
They are only intended as comments.
;
_shelx_estimated_absorpt_t_min   0.776
_shelx_estimated_absorpt_t_max   0.821
_shelx_res_file
;

    cu_3sahcl_0m.res created by SHELXL-2014/7


TITL cu_3sahcl_0m in P-1
CELL 1.54178   4.9686   8.1389  20.8828  94.934  91.571  98.421
ZERR   1.00   0.0002   0.0004   0.0010   0.002   0.002   0.002
LATT 1
SFAC C  H  N  O  Cl
UNIT 40 34 2 2 2
L.S. 4
ACTA
BOND $h
FMAP 2
PLAN 20
size 0.10 0.12 0.13
temp 20
dfix 0.85 0.01 o1 h1b o1 h1c
dfix 1.5 0.02 h1b h1c
WGHT    0.068300    0.322600
FVAR       0.22612
MOLE 1

C1    1    1.025707    0.274016    0.446530    11.00000    0.06023    0.08411 =
         0.04389    0.00575   -0.01789    0.01659
AFIX  43
H1    2    1.148082    0.274129    0.481045    11.00000   -1.20000
AFIX   0
C2    1    0.815127    0.146179    0.433449    11.00000    0.07373    0.07532 =
         0.05788    0.02267   -0.01970    0.00558
AFIX  43
H2    2    0.793752    0.056964    0.458780    11.00000   -1.20000
AFIX   0
C3    1    0.634439    0.150272    0.382438    11.00000    0.05791    0.05984 =
         0.04871    0.01228   -0.01429    0.00036
AFIX  43
H3    2    0.491061    0.063221    0.373860    11.00000   -1.20000
AFIX   0
C4    1    0.661776    0.280598    0.343897    11.00000    0.03939    0.04815 =
         0.03535    0.00200   -0.00136    0.01056
C5    1    0.879379    0.405787    0.358867    11.00000    0.04252    0.05580 =
         0.04610    0.00553   -0.00620    0.00955
AFIX  43
H5    2    0.906669    0.496056    0.334133    11.00000   -1.20000
AFIX   0
C6    1    0.467002    0.292935    0.289633    11.00000    0.03768    0.04734 =
         0.03372    0.00498   -0.00164    0.00903
C7    1    0.286548    0.155002    0.263624    11.00000    0.05241    0.03968 =
         0.05049    0.00476   -0.01277    0.00905
AFIX  43
H7    2    0.290903    0.051756    0.279233    11.00000   -1.20000
AFIX   0
C8    1    0.101192    0.169903    0.214897    11.00000    0.05173    0.04487 =
         0.05116    0.00134   -0.01433    0.00212
AFIX  43
H8    2   -0.017566    0.075866    0.198304    11.00000   -1.20000
AFIX   0
C9    1    0.086478    0.321359    0.189809    11.00000    0.04040    0.04923 =
         0.03558    0.00606   -0.00256    0.00996
C10   1    0.265622    0.458624    0.216653    11.00000    0.05804    0.04644 =
         0.04944    0.01568   -0.01019    0.00349
AFIX  43
H10   2    0.259743    0.562223    0.201479    11.00000   -1.20000
AFIX   0
C11   1    0.451463    0.444815    0.265153    11.00000    0.05279    0.04915 =
         0.05075    0.01115   -0.01262   -0.00129
AFIX  43
H11   2    0.569222    0.539101    0.281924    11.00000   -1.20000
AFIX   0
C12   1   -0.112666    0.332505    0.137779    11.00000    0.04312    0.05064 =
         0.04537    0.00951   -0.00779    0.00306
AFIX  43
H12   2   -0.249667    0.241866    0.128791    11.00000   -1.20000
AFIX   0
C13   1   -0.115159    0.459353    0.102580    11.00000    0.03501    0.05557 =
         0.04355    0.00730   -0.00559    0.00660
AFIX  43
H13   2    0.024475    0.548501    0.111544    11.00000   -1.20000
AFIX   0
C14   1   -0.313821    0.476118    0.050650    11.00000    0.03275    0.04898 =
         0.04191    0.01362   -0.00223    0.00567
C15   1   -0.445834    0.618837    0.053803    11.00000    0.03435    0.04415 =
         0.04245    0.00846   -0.00193    0.00274
C16   1   -0.404240    0.740753    0.108215    11.00000    0.04059    0.05495 =
         0.04594    0.00417   -0.00644    0.00196
AFIX  43
H16   2   -0.281561    0.727596    0.141152    11.00000   -1.20000
AFIX   0
C17   1   -0.537098    0.873805    0.113198    11.00000    0.05454    0.05121 =
         0.05609   -0.00393   -0.00279    0.00548
AFIX  43
H17   2   -0.503854    0.951353    0.148957    11.00000   -1.20000
AFIX   0
C18   1   -0.365505    0.357256   -0.003264    11.00000    0.03330    0.04727 =
         0.04009    0.01142   -0.00032    0.00627
C19   1   -0.226694    0.215316   -0.011594    11.00000    0.04843    0.05595 =
         0.04948    0.01298   -0.00177    0.01768
AFIX  43
H19   2   -0.100723    0.198930    0.020114    11.00000   -1.20000
AFIX   0
C20   1   -0.272897    0.104123   -0.064161    11.00000    0.05869    0.04972 =
         0.06534    0.00798    0.00240    0.01962
AFIX  43
H20   2   -0.179491    0.012973   -0.068054    11.00000   -1.20000
AFIX   0
CL1   5    0.489761    0.706693    0.422162    11.00000    0.06656    0.07725 =
         0.07235   -0.00400   -0.01347   -0.00683
N1    3    1.051230    0.398293    0.408648    11.00000    0.04082    0.06316 =
         0.05468   -0.00230   -0.01122    0.00466
AFIX  43
H1A   2    1.185147    0.477953    0.416566    11.00000   -1.20000
AFIX   0
O1    4    1.016113    0.805314    0.331062    11.00000    0.11548    0.10331 =
         0.18766    0.05917    0.01367    0.01086
AFIX   3
H1B   2    0.876393    0.798069    0.353912    11.00000   -1.50000
H1C   2    1.174542    0.794858    0.345296    11.00000   -1.50000
AFIX   0
HKLF 4

REM  cu_3sahcl_0m in P-1
REM R1 =  0.0632 for    2204 Fo > 4sig(Fo)  and  0.0960 for all    2982 data
REM    208 parameters refined using      3 restraints

END

WGHT      0.0631      0.3392

REM Highest difference peak  0.183,  deepest hole -0.303,  1-sigma level  0.057
Q1    1   0.3409  0.7369  0.4095  11.00000  0.05    0.18
Q2    1   1.1831  0.9360  0.4262  11.00000  0.05    0.18
Q3    1   1.0448  0.8611  0.4064  11.00000  0.05    0.17
Q4    1   0.8529  0.1608  0.5296  11.00000  0.05    0.16
Q5    1   0.4672  0.5305  0.1530  11.00000  0.05    0.16
Q6    1   0.7411  0.1550  0.4805  11.00000  0.05    0.16
Q7    1   0.6052  0.7267  0.3387  11.00000  0.05    0.16
Q8    1  -0.3619  0.4079 -0.0331  11.00000  0.05    0.16
Q9    1   0.5012  0.3352  0.2661  11.00000  0.05    0.15
Q10   1  -0.3878  0.7170  0.0707  11.00000  0.05    0.15
Q11   1  -0.3465  0.2741 -0.0026  11.00000  0.05    0.15
Q12   1  -0.3452  0.8487  0.1018  11.00000  0.05    0.15
Q13   1  -0.3190  0.1085 -0.0119  11.00000  0.05    0.15
Q14   1  -0.1089  0.2288  0.0616  11.00000  0.05    0.15
Q15   1  -0.5085 -0.0673 -0.0629  11.00000  0.05    0.15
Q16   1   0.1891  0.0234 -0.0847  11.00000  0.05    0.15
Q17   1   0.5070  0.0813  0.4701  11.00000  0.05    0.15
Q18   1  -0.2964  0.6232  0.1640  11.00000  0.05    0.15
Q19   1   0.0315  0.3017 -0.0278  11.00000  0.05    0.14
Q20   1   0.7360  0.6953  0.3998  11.00000  0.05    0.14
;
_shelx_res_checksum              24221
_shelx_hkl_file
;
  -1   0   0   22.54    1.35
  -1   0   0   26.77    1.86
  -1   0   0   24.48    1.26
   1   0   0   26.72    1.71
   1   0   0   22.79    1.28
  -2   0   0   51.62    3.95
  -2   0   0   54.39    2.91
  -2   0   0   45.38    3.20
   2   0   0   45.35    3.18
   2   0   0   51.12    2.55
   2   0   0   51.87    2.40
   2   0   0   54.38    2.50
  -3   0   0    4.37    1.32
  -3   0   0    2.89    0.36
  -3   0   0    2.39    0.21
   3   0   0    3.90    1.00
  -4   0   0    0.67    0.14
  -4   0   0    1.36    1.02
  -4   0   0    0.95    0.26
  -4   0   0    0.94    0.27
   4   0   0    0.60    0.23
   4   0   0   -1.65    1.38
  -5   0   0    6.36    0.50
  -5   0   0    6.18    0.39
   5   0   0    7.32    0.63
   5   0   0    6.19    0.52
   5  -1   0    8.63    0.70
  -5   1   0    8.64    0.65
  -5   1   0    8.22    0.46
  -5   1   0    8.55    0.57
   4  -1   0    3.74    1.72
   4  -1   0    1.82    0.35
  -4   1   0    1.59    0.18
  -4   1   0    1.77    0.27
  -4   1   0    1.07    1.29
  -4   1   0    1.04    0.30
   3  -1   0    6.97    1.06
   3  -1   0    5.71    0.38
  -3   1   0    5.30    1.18
  -3   1   0    5.92    0.38
  -3   1   0    4.74    1.63
  -3   1   0    5.97    0.58
   2  -1   0    7.86    0.75
   2  -1   0    8.93    1.41
  -2   1   0    8.18    1.07
  -2   1   0    9.82    1.72
   1  -1   0   30.76    2.03
   1  -1   0   25.47    1.41
  -1   1   0   26.40    1.51
  -1   1   0   32.27    2.12
  -1   1   0   26.90    1.50
  -1   1   0   27.22    1.77
   0  -1   0  134.68    4.96
   0   1   0  137.68    5.22
   0   1   0  126.62    5.06
   0   1   0  128.35    4.84
  -1  -1   0   32.62    1.98
   1   1   0   31.70    1.88
   1   1   0   29.61    1.91
  -2  -1   0   20.90    2.09
  -2  -1   0   19.93    1.33
   2   1   0   18.42    1.52
   2   1   0   20.27    0.95
   2   1   0   20.81    1.56
   2   1   0   18.88    1.82
   2   1   0   17.85    1.70
  -3  -1   0    1.32    0.22
  -3  -1   0    1.31    0.15
   3   1   0    1.59    0.24
   3   1   0    2.39    0.83
  -4  -1   0   -0.33    1.20
  -4  -1   0    0.16    0.06
  -4  -1   0    0.16    0.12
   4   1   0    1.04    1.30
   4   1   0    0.36    0.14
   4   1   0    0.16    0.16
  -5  -1   0    0.08    0.09
   5   1   0    0.52    0.15
   5   1   0    0.25    0.39
  -5   2   0    5.97    0.58
  -5   2   0    6.84    0.37
   4  -2   0   -0.46    2.14
   4  -2   0    0.53    0.19
  -4   2   0    0.50    0.18
  -4   2   0   -0.62    0.69
  -4   2   0    0.11    0.27
  -4   2   0    0.35    0.09
   3  -2   0    0.54    0.47
   3  -2   0    1.24    0.49
  -3   2   0    0.55    0.18
  -3   2   0    0.58    0.45
  -3   2   0    0.37    0.10
   2  -2   0   15.95    0.71
   2  -2   0   15.11    1.15
  -2   2   0   14.51    1.22
  -2   2   0   19.01    2.34
  -2   2   0   15.32    1.37
   1  -2   0    1.57    0.44
   1  -2   0    1.26    0.48
   1  -2   0    1.24    0.14
  -1   2   0    1.61    0.54
  -1   2   0    1.02    0.51
  -1   2   0    1.61    0.38
   0  -2   0  128.34    5.33
   0  -2   0  136.22    4.71
   0  -2   0  144.47    5.58
   0   2   0  132.76    5.79
   0   2   0  144.76    6.14
   0   2   0  116.61    5.58
  -1  -2   0   21.33    1.28
  -1  -2   0   22.32    2.08
   1   2   0   18.71    1.00
   1   2   0   18.79    1.45
   1   2   0   21.60    1.93
   1   2   0   19.80    1.73
   1   2   0   18.55    1.44
  -2  -2   0   41.74    3.74
   2   2   0   42.02    1.77
   2   2   0   38.63    3.19
   2   2   0   43.07    1.90
  -3  -2   0    2.57    0.33
  -3  -2   0    1.91    0.21
  -3  -2   0    2.62    0.35
   3   2   0    2.39    0.36
  -4  -2   0    7.54    2.32
  -4  -2   0    4.28    0.50
  -4  -2   0    4.43    0.35
   4   2   0    4.55    0.48
   4   2   0    3.75    0.53
  -5  -2   0    3.01    0.33
  -5  -2   0    3.00    0.23
   5   2   0    2.51    0.43
   5   2   0    3.25    0.35
   5  -3   0    0.85    0.24
  -5   3   0    0.47    0.08
  -5   3   0    0.33    0.20
   4  -3   0    0.28    0.18
  -4   3   0    0.28    0.08
  -4   3   0    0.23    0.14
  -4   3   0    1.03    0.68
  -4   3   0   -0.04    0.13
   3  -3   0    9.29    0.62
  -3   3   0    7.74    0.61
  -3   3   0    8.15    0.73
  -3   3   0    8.27    0.41
  -3   3   0    8.96    2.04
   2  -3   0   26.55    1.17
   2  -3   0   25.60    2.62
   2  -3   0   24.06    1.80
  -2   3   0   26.87    2.35
   1  -3   0   32.54    1.35
   1  -3   0   31.03    2.13
   1  -3   0   29.45    2.59
  -1   3   0   30.83    2.56
  -1   3   0   36.70    3.24
   0  -3   0    4.73    0.37
   0  -3   0    4.36    0.81
   0  -3   0    3.73    0.69
   0   3   0    6.03    0.95
   0   3   0    4.42    0.41
   0   3   0    4.10    0.71
   0   3   0    5.34    1.06
  -1  -3   0    5.75    1.21
  -1  -3   0    5.52    0.68
  -1  -3   0    4.66    0.58
   1   3   0    4.90    0.79
   1   3   0    5.41    0.61
   1   3   0    5.55    1.13
   1   3   0    4.88    1.14
  -2  -3   0   35.89    1.70
  -2  -3   0   35.89    1.78
  -2  -3   0   45.64    4.53
  -2  -3   0   35.26    1.46
   2   3   0   40.26    1.94
   2   3   0   38.16    2.88
   2   3   0   37.10    1.71
  -3  -3   0    1.06    0.28
  -3  -3   0    1.99    1.13
  -3  -3   0    0.59    0.13
   3   3   0    1.42    0.86
   3   3   0    0.96    0.28
   3   3   0    0.68    0.21
  -4  -3   0    0.33    0.15
  -4  -3   0   -0.54    1.18
  -4  -3   0    0.11    0.06
   4   3   0   -0.17    0.14
   4   3   0    0.25    0.11
  -5  -3   0    1.20    0.13
  -5  -3   0    1.35    0.21
   5   3   0    0.25    1.87
   5   3   0    1.78    0.29
   5   3   0    1.74    0.43
   5  -4   0    0.31    0.19
  -5   4   0    0.07    0.06
  -5   4   0   -0.28    0.15
   4  -4   0    0.66    0.15
   4  -4   0    0.38    0.19
  -4   4   0    0.42    0.08
  -4   4   0    0.27    0.16
  -4   4   0    0.10    0.82
  -4   4   0    0.54    0.25
   3  -4   0    0.26    0.11
  -3   4   0    0.15    0.15
  -3   4   0    0.45    0.23
  -3   4   0    0.37    0.13
   2  -4   0    4.69    0.42
   2  -4   0    5.37    0.38
   2  -4   0    3.89    1.01
  -2   4   0    4.48    0.46
  -2   4   0    6.95    1.92
  -2   4   0    4.46    0.45
  -2   4   0    3.16    1.70
   1  -4   0    4.20    1.00
   1  -4   0    3.52    0.29
   1  -4   0    2.02    0.72
   1  -4   0    3.22    0.34
  -1   4   0    4.97    1.43
  -1   4   0    5.34    1.13
  -1   4   0    2.54    1.03
   0  -4   0    0.54    0.15
   0  -4   0    0.44    0.41
   0  -4   0    0.37    0.42
   0  -4   0    0.66    0.40
   0   4   0    0.81    0.25
   0   4   0    0.58    0.15
   0   4   0    0.78    0.69
  -1  -4   0    0.74    0.61
  -1  -4   0    1.54    0.52
  -1  -4   0    1.13    0.31
  -1  -4   0    1.12    0.12
   1   4   0    1.51    1.03
   1   4   0    1.85    1.12
   1   4   0    1.01    0.27
   1   4   0    0.98    0.25
   1   4   0    0.91    0.61
  -2  -4   0    1.16    0.16
  -2  -4   0    0.55    0.76
  -2  -4   0    1.47    0.29
  -2  -4   0    1.35    0.17
  -2  -4   0    1.85    0.25
   2   4   0    1.62    0.43
   2   4   0    4.20    4.08
   2   4   0    1.74    0.73
   2   4   0    1.58    0.28
  -3  -4   0    0.08    0.05
  -3  -4   0    0.23    0.19
  -3  -4   0    0.31    1.08
  -3  -4   0    0.17    0.08
   3   4   0   -1.20    1.75
   3   4   0   -0.06    0.09
   3   4   0   -0.07    0.16
  -4  -4   0    1.10    0.31
  -4  -4   0    0.76    0.11
   4   4   0    0.90    0.30
   4   4   0    0.51    0.21
  -5  -4   0    0.15    0.03
  -5  -4   0    0.14    0.06
   5   4   0    0.37    0.13
   5  -5   0    2.15    0.29
   5  -5   0    2.11    0.22
  -5   5   0    1.94    0.31
   4  -5   0    4.45    0.46
   4  -5   0    4.80    0.41
  -4   5   0    3.90    0.23
  -4   5   0    4.35    0.60
  -4   5   0    1.23    1.54
  -4   5   0    4.37    0.48
   3  -5   0    1.50    0.28
   3  -5   0    1.82    0.24
  -3   5   0    1.86    0.33
  -3   5   0    1.64    0.32
  -3   5   0    1.70    0.17
  -3   5   0    1.08    0.25
   2  -5   0    8.61    0.57
   2  -5   0    7.68    0.64
  -2   5   0    9.40    2.64
  -2   5   0    8.95    0.68
  -2   5   0    8.53    0.71
   1  -5   0   24.72    2.49
   1  -5   0   23.10    1.12
   1  -5   0   22.49    2.83
  -1   5   0   22.38    1.36
  -1   5   0   29.77    3.24
   0  -5   0   11.11    1.65
   0  -5   0    9.63    1.59
   0  -5   0   10.46    0.75
   0  -5   0    9.82    0.62
   0  -5   0    9.79    0.46
   0  -5   0    9.15    0.77
   0   5   0    9.66    0.79
   0   5   0    9.85    3.10
   0   5   0    8.63    0.78
   0   5   0    9.75    0.66
  -1  -5   0   13.89    0.63
  -1  -5   0   12.76    1.59
  -1  -5   0   13.22    1.00
  -1  -5   0   15.66    2.42
  -1  -5   0   13.67    0.63
  -1  -5   0   13.36    0.84
   1   5   0   13.58    1.04
   1   5   0   13.32    1.08
   1   5   0   14.48    0.92
  -2  -5   0    0.19    0.14
  -2  -5   0    0.31    0.09
  -2  -5   0    0.35    0.10
  -2  -5   0    1.24    1.12
  -2  -5   0    0.20    0.06
   2   5   0    0.78    3.77
   2   5   0    0.49    0.18
   2   5   0    0.03    0.09
  -3  -5   0    0.30    0.15
  -3  -5   0    1.09    1.44
  -3  -5   0    0.29    0.08
  -3  -5   0    0.40    0.31
   3   5   0    0.24    0.19
   3   5   0    0.22    0.15
  -4  -5   0    0.03    0.05
  -4  -5   0    0.05    0.04
   4   5   0   -0.11    0.19
   4   5   0    0.12    0.09
   5  -6   0    0.99    0.25
  -5   6   0    1.18    0.22
  -5   6   0    0.88    0.16
   4  -6   0    0.03    0.06
   4  -6   0    0.32    0.15
  -4   6   0    0.01    0.10
  -4   6   0    0.00    0.08
   3  -6   0    0.24    0.10
   3  -6   0    0.14    0.12
  -3   6   0    0.16    0.10
  -3   6   0    0.20    0.13
  -3   6   0    0.37    0.26
   2  -6   0    0.87    0.22
  -2   6   0    1.60    0.34
  -2   6   0    1.29    0.23
  -2   6   0    1.98    1.57
   1  -6   0    3.38    1.21
   1  -6   0    1.68    1.57
   1  -6   0    1.18    0.49
   1  -6   0    0.97    0.18
   1  -6   0    1.03    0.29
  -1   6   0    1.81    0.47
  -1   6   0   -0.07    3.14
  -1   6   0    1.48    0.27
  -1   6   0    1.52    0.97
   0  -6   0    0.82    0.25
   0  -6   0    0.02    1.39
   0  -6   0    2.02    0.63
   0  -6   0    0.12    0.67
   0  -6   0    0.90    0.11
   0  -6   0    0.85    0.22
   0   6   0    0.76    0.28
   0   6   0   -1.21    1.64
   0   6   0    0.46    0.57
   0   6   0    1.84    0.92
  -1  -6   0   -0.71    0.59
  -1  -6   0    0.46    0.20
  -1  -6   0    0.28    0.15
  -1  -6   0    0.16    0.08
  -1  -6   0    0.20    0.07
  -1  -6   0    0.41    0.11
   1   6   0    0.25    0.12
   1   6   0    0.75    0.29
  -2  -6   0   -0.60    0.97
   2   6   0   -1.71    2.37
  -3  -6   0    0.22    0.16
  -3  -6   0    0.28    0.10
  -3  -6   0    0.19    0.09
   3   6   0    0.29    0.14
   3   6   0    0.57    0.21
  -4  -6   0    0.09    0.06
   4   6   0   -0.68    0.49
   4  -7   0    0.32    0.11
   4  -7   0    0.34    0.07
   4  -7   0    0.47    0.17
  -4   7   0    0.21    0.10
  -4   7   0    0.18    0.08
   3  -7   0    1.86    0.25
   3  -7   0    2.22    0.35
  -3   7   0    1.61    0.35
  -3   7   0    1.68    0.38
  -3   7   0   -0.69    1.29
  -3   7   0    1.60    0.28
   2  -7   0    2.41    0.19
   2  -7   0    1.73    0.28
   2  -7   0    2.70    0.40
  -2   7   0    0.82    1.35
  -2   7   0    2.61    0.32
  -2   7   0    3.13    0.42
   1  -7   0    1.16    0.14
   1  -7   0    0.70    0.24
   1  -7   0    3.00    1.87
   1  -7   0    1.05    0.26
  -1   7   0    1.54    0.49
  -1   7   0    0.42    0.95
   0  -7   0    7.26    0.58
   0  -7   0    7.87    0.45
   0  -7   0    7.91    0.80
   0  -7   0    7.96    2.50
   0  -7   0    8.11    0.43
   0  -7   0    7.60    0.83
   0   7   0    9.61    1.90
   0   7   0    7.63    0.83
   0   7   0    1.35    2.95
  -1  -7   0    5.25    0.37
  -1  -7   0    5.31    0.66
  -1  -7   0    5.43    0.36
   1   7   0    4.23    0.49
   1   7   0    5.77    1.68
   1   7   0    3.71    0.72
   1   7   0    5.76    0.77
  -2  -7   0    1.20    0.15
  -2  -7   0    1.42    0.42
   2   7   0    1.63    0.37
   2   7   0    0.97    0.38
  -3  -7   0    0.29    0.13
   3   7   0    0.80    0.40
   3   7   0    0.19    0.13
   3   7   0   -1.01    1.18
   4  -8   0   -0.01    0.08
  -4   8   0   -0.02    0.08
  -4   8   0    0.13    0.07
   3  -8   0    0.65    0.09
   3  -8   0    0.53    0.20
   3  -8   0    0.62    0.16
  -3   8   0    0.80    0.24
  -3   8   0    0.75    0.18
  -3   8   0    0.81    0.22
   2  -8   0    0.20    0.13
   2  -8   0    0.06    0.05
   2  -8   0    0.15    0.09
  -2   8   0    0.16    0.11
  -2   8   0    0.56    0.20
   0  -8   0    0.78    0.29
   0   8   0    0.39    0.32
  -1  -8   0    2.16    0.20
  -1  -8   0    2.13    0.40
   3  -9   0    0.53    0.15
   3  -9   0    0.80    0.11
  -3   9   0    0.81    0.20
   2  -9   0    0.69    0.30
   2  -9   0    0.35    0.13
   2  -9   0    0.42    0.08
   2  -9   0    0.34    0.08
  -2   9   0    0.37    0.19
  -2   9   0    0.31    0.13
   0  -9   0    0.89    0.40
   0  -9   0    0.44    0.11
   0  -9   0    0.36    0.09
   0   9   0    0.67    0.26
   0   9  -1    2.89    0.47
   0  -9   1    2.15    0.18
  -2   9  -1    0.12    0.07
  -2   9  -1    0.51    0.24
   2  -9   1    0.03    0.04
   2  -9   1    0.19    0.09
   2  -9   1   -0.39    0.28
   3  -9   1    0.13    0.08
   1   8  -1   11.93    0.98
  -1  -8   1   10.81    0.90
  -1  -8   1   10.53    0.55
   0   8  -1    1.46    4.61
   0   8  -1    3.31    0.82
   0  -8   1    2.22    0.20
   0  -8   1    2.67    0.48
   0  -8   1    2.31    0.21
  -1   8  -1   -1.20    1.40
  -1   8  -1    0.91    0.35
   1  -8   1    0.88    0.26
   1  -8   1    0.68    0.13
   1  -8   1    0.80    0.21
  -2   8  -1    0.28    0.20
  -2   8  -1    0.00    0.08
   2  -8   1    0.31    0.15
   2  -8   1    0.01    0.08
   2  -8   1    0.06    0.04
  -3   8  -1    1.37    0.32
  -3   8  -1    0.51    0.15
  -3   8  -1    0.87    0.20
   3  -8   1    0.86    0.10
   3  -8   1    0.81    0.24
   3  -8   1    0.57    0.17
  -4   8  -1    0.10    0.07
  -4   8  -1    0.04    0.06
   4  -8   1    0.16    0.08
   3   7  -1   -0.12    0.29
   3   7  -1    0.44    0.16
  -3  -7   1    0.48    0.18
   2   7  -1    0.90    0.33
  -2  -7   1    1.77    0.14
   1   7  -1    2.39    1.14
   1   7  -1    2.32    0.31
   1   7  -1    0.67    1.38
   1   7  -1    1.11    0.54
  -1  -7   1    1.87    0.20
  -1  -7   1    2.03    1.84
  -1  -7   1    1.80    0.20
  -1  -7   1    2.20    0.38
   0   7  -1    0.87    0.91
   0   7  -1    0.30    2.39
   0   7  -1    1.07    0.28
   0  -7   1    0.48    0.16
   0  -7   1    0.75    0.11
   0  -7   1    1.31    0.42
   0  -7   1    0.88    0.33
   0  -7   1    0.77    0.15
   0  -7   1    0.45    1.33
  -1   7  -1   -2.02    2.15
  -1   7  -1    0.21    0.18
  -1   7  -1    0.86    0.84
   1  -7   1    0.26    0.11
   1  -7   1    0.75    0.42
   1  -7   1    0.04    0.10
   1  -7   1    0.07    0.04
  -2   7  -1    3.85    1.40
  -3   7  -1    0.91    0.23
  -3   7  -1    1.55    0.40
  -3   7  -1    0.65    0.18
   3  -7   1    1.38    0.34
   3  -7   1    1.00    0.23
  -4   7  -1    0.07    0.10
  -4   7  -1    0.10    0.08
   4  -7   1    0.19    0.08
   4  -7   1    0.00    0.03
   4  -7   1    0.14    0.12
   4   6  -1    0.20    0.10
  -4  -6   1    0.08    0.05
   3   6  -1    0.15    0.10
   3   6  -1    0.26    0.17
  -3  -6   1    0.16    0.05
  -3  -6   1    0.01    0.12
   2   6  -1    1.03    2.98
  -2  -6   1    2.81    1.66
   1   6  -1    2.65    0.53
   1   6  -1    1.02    2.41
   1   6  -1    1.96    0.84
   1   6  -1    2.92    0.40
  -1  -6   1    2.88    0.31
  -1  -6   1    3.46    0.51
  -1  -6   1    3.57    0.27
  -1  -6   1    4.54    1.80
  -1  -6   1    3.54    0.27
   0   6  -1    1.50    0.47
   0   6  -1   -0.03    1.32
   0   6  -1    2.62    0.46
   0   6  -1    1.60    0.29
   0   6  -1    3.59    1.27
   0  -6   1    1.82    1.06
   0  -6   1    1.94    0.18
   0  -6   1    1.63    0.37
   0  -6   1    2.17    0.38
   0  -6   1    1.97    0.26
   0  -6   1    0.77    1.33
  -1   6  -1    0.62    3.31
   1  -6   1   -0.82    1.15
   1  -6   1    1.02    0.78
  -2   6  -1    2.07    0.52
  -2   6  -1    0.38    1.00
  -2   6  -1    1.10    0.21
   2  -6   1    0.94    0.26
   2  -6   1    1.09    0.24
  -3   6  -1   -0.02    0.15
  -3   6  -1   -0.06    0.07
  -3   6  -1    0.23    0.12
   3  -6   1   -0.07    0.05
   3  -6   1    0.05    0.08
  -4   6  -1    1.29    0.36
  -4   6  -1    1.14    0.28
   4  -6   1    1.06    0.21
   4  -6   1    0.85    0.20
  -5   6  -1    0.01    0.06
   5  -6   1    0.23    0.10
   4   5  -1    3.93    0.53
   4   5  -1    4.20    0.45
  -4  -5   1    5.18    0.44
  -4  -5   1    4.88    0.37
   3   5  -1    3.75    0.61
   3   5  -1    3.99    0.50
  -3  -5   1    3.76    0.50
  -3  -5   1    4.72    0.44
   2   5  -1    0.23    3.39
   2   5  -1    8.15    0.87
   2   5  -1    7.98    1.63
   2   5  -1    7.35    0.71
  -2  -5   1    8.05    0.60
  -2  -5   1    8.39    0.78
  -2  -5   1    7.62    0.46
  -2  -5   1    8.52    0.48
   1   5  -1   10.45    0.93
   1   5  -1   10.56    0.81
   1   5  -1   11.32    1.71
   1   5  -1   10.51    0.89
  -1  -5   1   11.34    0.54
  -1  -5   1   10.20    0.51
  -1  -5   1   10.40    0.86
  -1  -5   1    9.26    1.80
  -1  -5   1   11.55    0.65
   0   5  -1    0.88    0.22
   0   5  -1    2.24    1.88
   0   5  -1    0.19    0.40
   0   5  -1    0.45    0.16
   0   5  -1    1.02    1.29
   0   5  -1    0.33    0.37
   0  -5   1    0.34    0.45
   0  -5   1    0.14    0.67
   0  -5   1    0.98    0.42
  -1   5  -1   31.88    3.28
  -1   5  -1   27.88    1.57
   1  -5   1   30.14    1.36
   1  -5   1   32.26    3.24
   1  -5   1   29.09    2.53
   1  -5   1   31.23    1.54
   2  -5   1   -1.46    1.22
  -3   5  -1    1.45    0.14
  -3   5  -1    2.26    0.49
  -3   5  -1    1.80    0.31
  -3   5  -1    1.08    0.26
   3  -5   1    1.53    0.26
   3  -5   1    1.99    0.25
  -4   5  -1    0.67    0.24
  -4   5  -1    0.59    0.24
  -4   5  -1    0.58    0.08
  -4   5  -1   -0.95    1.10
   4  -5   1    0.69    0.22
   4  -5   1    0.83    0.20
  -5   5  -1    0.37    0.13
  -5   5  -1    0.23    0.17
   5  -5   1    0.56    0.20
   5   4  -1   -0.28    1.31
   5   4  -1    0.40    0.13
  -5  -4   1    0.14    0.04
  -5  -4   1    0.24    0.09
   4   4  -1    2.92    0.43
   4   4  -1    3.05    0.45
  -4  -4   1    3.29    0.26
  -4  -4   1    3.52    0.45
   3   4  -1    6.65    2.19
   3   4  -1    2.60    0.40
   3   4  -1    2.42    0.45
  -3  -4   1    2.81    1.80
  -3  -4   1    2.51    0.39
  -3  -4   1    2.49    0.25
  -3  -4   1    3.04    0.39
   2   4  -1    1.65    0.82
   2   4  -1    0.95    0.28
   2   4  -1    0.00    2.41
  -2  -4   1    1.69    1.06
  -2  -4   1    0.83    0.16
  -2  -4   1    1.23    0.27
  -2  -4   1    0.74    0.14
  -2  -4   1    1.28    0.22
   1   4  -1   20.11    3.11
   1   4  -1   16.88    1.12
   1   4  -1   17.69    1.87
   1   4  -1   21.54    2.80
   1   4  -1   17.94    0.99
  -1  -4   1   17.48    0.74
  -1  -4   1   16.12    1.05
  -1  -4   1   17.67    1.25
  -1  -4   1   15.16    2.20
   0   4  -1   13.99    0.91
   0   4  -1   12.34    0.76
   0   4  -1   15.51    2.15
   0   4  -1   12.20    2.65
   0  -4   1   14.81    1.65
   0  -4   1   14.30    0.71
   0  -4   1   14.43    1.67
  -1   4  -1   52.27    4.17
  -1   4  -1   56.91    4.37
  -1   4  -1   63.30    4.17
   1  -4   1   51.37    2.26
   1  -4   1   57.43    3.55
   1  -4   1   55.57    2.16
   1  -4   1   55.83    4.10
  -2   4  -1    6.05    0.55
  -2   4  -1    4.59    1.72
  -2   4  -1    5.07    0.51
   2  -4   1    5.93    0.48
   2  -4   1    6.14    0.44
   2  -4   1    7.90    1.06
  -3   4  -1    1.13    0.27
  -3   4  -1    1.42    0.34
  -3   4  -1    1.72    0.29
  -3   4  -1    1.18    0.12
   3  -4   1   -1.33    1.38
   3  -4   1    1.59    0.25
  -4   4  -1   -0.04    0.07
  -4   4  -1   -0.01    0.09
  -5   4  -1    0.62    0.09
  -5   4  -1    0.99    0.29
   5  -4   1    0.99    0.18
   5   3  -1    0.24    0.17
   5   3  -1    0.74    1.54
   5   3  -1    0.11    0.21
  -5  -3   1    0.48    0.08
  -5  -3   1    0.60    0.17
   4   3  -1    1.70    0.46
   4   3  -1    1.15    0.29
  -4  -3   1    1.80    0.19
  -4  -3   1    2.37    0.42
  -4  -3   1    3.36    1.63
   3   3  -1    4.24    0.58
   3   3  -1    4.28    0.48
   3   3  -1    6.40    1.33
  -3  -3   1    4.28    0.49
  -3  -3   1    4.79    0.35
  -3  -3   1    4.61    0.51
   2   3  -1    4.21    0.40
   2   3  -1    3.71    0.46
  -2  -3   1    4.13    0.29
  -2  -3   1    4.07    0.44
  -2  -3   1    4.04    0.40
  -2  -3   1    5.65    1.87
   1   3  -1    5.73    1.10
   1   3  -1    5.81    0.87
   1   3  -1    6.02    0.46
   1   3  -1    3.44    1.22
  -1  -3   1    6.58    1.24
  -1  -3   1    7.07    1.03
   0   3  -1    6.41    0.50
   0   3  -1    5.64    1.04
   0   3  -1    7.05    1.08
   0  -3   1    6.54    0.93
   0  -3   1    6.30    0.89
   0  -3   1    6.45    0.44
  -1   3  -1   22.95    2.14
  -1   3  -1   17.39    1.84
  -1   3  -1   18.30    1.87
   1  -3   1   18.69    0.90
   1  -3   1   18.07    1.52
  -2   3  -1    2.87    0.90
  -2   3  -1    5.91    1.36
   2  -3   1    3.80    0.35
   2  -3   1    3.82    0.59
   2  -3   1    3.71    0.88
  -3   3  -1    1.86    0.16
  -3   3  -1    1.75    0.39
  -3   3  -1    2.48    1.21
  -3   3  -1    2.04    0.30
   3  -3   1    3.78    1.19
   3  -3   1    2.06    0.29
  -4   3  -1    7.32    0.64
  -4   3  -1   11.30    2.49
  -4   3  -1    9.16    0.84
  -4   3  -1    8.66    0.45
   4  -3   1    9.71    0.60
   4  -3   1    9.09    0.69
  -5   3  -1    1.98    0.16
  -5   3  -1    1.30    0.30
   5   2  -1    0.04    0.18
  -5  -2   1    0.07    0.06
   4   2  -1    0.33    0.13
   4   2  -1    0.14    0.18
   4   2  -1   -2.60    1.99
  -4  -2   1    0.22    1.15
  -4  -2   1    0.11    0.11
  -4  -2   1    0.04    0.04
   3   2  -1    4.43    1.22
   3   2  -1    5.09    0.53
  -3  -2   1    4.57    1.53
  -3  -2   1    4.59    0.33
  -3  -2   1    4.07    0.46
  -3  -2   1    4.47    0.50
   2   2  -1   14.98    0.87
   2   2  -1   13.97    1.66
   2   2  -1   13.19    1.44
  -2  -2   1   12.62    1.90
  -2  -2   1   13.91    1.08
   1   2  -1   39.84    2.55
   1   2  -1   37.89    2.73
   1   2  -1   37.42    1.66
  -1  -2   1   44.14    3.17
  -1  -2   1   38.11    2.20
   0   2  -1    4.12    0.64
   0   2  -1    3.57    0.63
   0   2  -1    5.01    0.58
   0  -2   1    4.45    0.61
   0  -2   1    4.05    0.58
   0  -2   1    4.19    0.55
   0  -2   1    5.03    0.65
   0  -2   1    4.87    0.30
  -1   2  -1   52.48    2.99
  -1   2  -1   60.97    3.30
  -1   2  -1   49.63    2.78
   1  -2   1   54.98    2.03
   1  -2   1   51.86    3.15
   1  -2   1   49.23    2.74
   1  -2   1   53.90    2.55
  -2   2  -1   30.80    2.31
   2  -2   1   31.44    1.62
   2  -2   1   32.71    1.34
   2  -2   1   33.60    2.65
   2  -2   1   31.09    1.95
  -3   2  -1    9.39    2.00
  -3   2  -1    9.89    0.49
  -3   2  -1   10.48    0.81
   3  -2   1   10.92    0.66
  -4   2  -1    9.66    0.85
  -4   2  -1   10.10    2.21
  -4   2  -1   10.13    0.52
   4  -2   1   10.62    0.78
  -5   2  -1    2.51    0.20
  -5   2  -1    2.34    0.36
   5  -2   1    2.85    0.37
   5  -2   1    2.28    0.35
   5   1  -1    2.56    0.36
  -5  -1   1    2.32    0.29
  -5  -1   1    2.23    0.22
   4   1  -1    2.25    0.39
   4   1  -1    2.97    0.33
  -4  -1   1    3.59    1.33
  -4  -1   1    2.16    0.24
  -4  -1   1    2.15    0.33
  -4  -1   1    3.59    1.33
   3   1  -1    1.33    0.25
   3   1  -1    1.73    0.88
  -3  -1   1    1.37    0.17
  -3  -1   1    1.50    0.25
  -3  -1   1    1.18    0.68
   2   1  -1   12.71    1.38
   2   1  -1   11.94    1.23
   2   1  -1   12.14    1.09
   2   1  -1   12.64    0.65
  -2  -1   1   14.10    1.76
  -2  -1   1   12.58    1.17
   1   1  -1   64.24    3.16
   1   1  -1   65.40    3.00
   1   1  -1   64.40    2.98
  -1  -1   1   65.74    2.87
  -1  -1   1   65.13    3.40
  -1  -1   1   62.17    3.55
   0   1  -1   36.14    1.70
   0   1  -1   33.52    1.71
   0   1  -1   34.86    1.59
   0   1  -1   35.38    1.80
   0  -1   1   39.30    1.96
   0  -1   1   36.81    1.81
   0  -1   1   38.36    1.63
  -1   1  -1   11.02    0.81
  -1   1  -1   10.74    1.08
  -1   1  -1   10.40    0.92
  -1   1  -1   11.03    0.81
   1  -1   1    9.94    0.73
   1  -1   1   10.77    0.63
   1  -1   1    9.60    0.82
   1  -1   1   10.99    1.02
  -2   1  -1   20.03    1.60
  -2   1  -1   17.84    1.31
  -2   1  -1   21.18    2.27
   2  -1   1   19.67    1.66
   2  -1   1   15.43    1.15
  -3   1  -1    1.32    0.64
  -3   1  -1    0.96    0.57
  -3   1  -1    0.49    0.21
   3  -1   1    0.72    0.38
  -4   1  -1    2.51    0.41
  -4   1  -1    1.21    1.70
  -4   1  -1    3.10    0.25
  -4   1  -1    2.63    0.35
   4  -1   1    3.94    0.43
  -5   1  -1    0.70    0.14
  -5   1  -1    0.74    0.18
  -5   1  -1    0.87    0.24
   5  -1   1    1.24    0.29
   5   0  -1    7.69    0.64
  -5   0   1    6.44    0.41
  -5   0   1    6.20    0.52
   4   0  -1    2.33    0.37
  -4   0   1    2.67    0.26
  -4   0   1    2.73    0.37
  -4   0   1    2.64    1.39
  -4   0   1    2.49    0.38
   3   0  -1    2.47    0.66
   3   0  -1    1.28    0.48
   3   0  -1    2.38    0.83
  -3   0   1    1.54    0.31
  -3   0   1    1.84    0.69
  -3   0   1    1.21    0.16
   2   0  -1   38.30    2.14
  -2   0   1   42.48    3.11
  -2   0   1   40.76    3.00
  -2   0   1   42.71    2.61
   1   0  -1    0.72    0.10
   1   0  -1    0.79    0.13
   1   0  -1    0.96    0.28
  -1   0   1    0.37    0.21
  -1   0   1    0.61    0.24
   0   0   1    0.28    0.10
  -1   0  -1   19.82    1.27
  -1   0  -1   20.45    1.36
  -1   0  -1   19.41    1.24
   1   0   1   18.91    1.32
   1   0   1   19.36    0.86
   1   0   1   17.83    1.09
  -2   0  -1   48.79    3.14
  -2   0  -1   52.83    2.85
   2   0   1   51.88    3.45
   2   0   1   53.19    2.23
   2   0   1   50.60    2.63
   2   0   1   56.99    2.98
  -3   0  -1    1.94    0.30
  -3   0  -1    2.23    0.20
   3   0   1    2.59    0.30
   3   0   1    3.29    0.59
  -4   0  -1    4.74    0.35
  -4   0  -1    5.01    0.49
  -4   0  -1    4.54    0.51
  -4   0  -1    7.66    1.94
   4   0   1    6.41    1.87
   4   0   1    4.90    0.49
   4   0   1    4.49    0.53
  -5   0  -1    4.80    0.42
  -5   0  -1    5.63    0.35
   5   0   1    4.57    0.55
   5   0   1    5.92    0.50
   5  -1  -1    0.34    0.30
  -5   1   1    0.02    0.09
  -5   1   1    0.04    0.04
  -5   1   1    0.03    0.12
   4  -1  -1    8.12    0.60
  -4   1   1    8.52    1.98
  -4   1   1    7.33    0.46
  -4   1   1    8.26    0.65
  -4   1   1    8.24    0.71
   3  -1  -1    1.03    0.73
  -3   1   1    0.01    0.26
  -3   1   1    0.41    0.49
   2  -1  -1   16.02    1.37
  -2   1   1   14.95    1.79
  -2   1   1   17.82    1.63
  -2   1   1   16.93    1.72
   1  -1  -1   15.64    1.18
  -1   1   1   13.75    1.12
  -1   1   1   14.60    1.36
  -1   1   1   15.12    1.29
  -1   1   1   15.47    0.88
  -1   1   1   15.13    0.90
   0  -1  -1  108.86    4.23
   0  -1  -1  113.02    4.56
   0  -1  -1  106.69    4.28
   0  -1  -1  105.03    4.10
   0   1   1  111.03    4.11
   0   1   1  114.33    4.43
   0   1   1  107.54    4.54
  -1  -1  -1   23.80    1.75
  -1  -1  -1   24.87    1.77
  -1  -1  -1   22.44    1.16
   1   1   1   22.15    1.68
   1   1   1   21.39    1.36
  -2  -1  -1   27.28    2.51
  -2  -1  -1   30.26    2.29
   2   1   1   28.80    1.29
   2   1   1   26.58    1.85
   2   1   1   25.46    2.22
   2   1   1   28.64    2.36
  -3  -1  -1   16.01    0.96
  -3  -1  -1   13.96    0.87
  -3  -1  -1   15.34    0.72
   3   1   1   16.00    0.98
   3   1   1   14.96    1.96
   3   1   1   15.90    0.89
  -4  -1  -1   13.95    0.71
  -4  -1  -1   13.10    0.91
   4   1   1   18.32    2.57
   4   1   1   13.41    1.03
  -5  -1  -1    3.50    0.26
  -5  -1  -1    3.03    0.33
   5   1   1    3.80    0.42
   5   1   1    3.26    0.55
   5  -2  -1   10.27    0.91
  -5   2   1   10.08    0.49
  -5   2   1    8.92    0.71
   4  -2  -1    4.73    0.44
  -4   2   1    4.31    0.44
  -4   2   1    4.29    1.66
  -4   2   1    5.01    0.32
  -4   2   1    4.50    0.56
   3  -2  -1    0.54    0.56
   3  -2  -1    0.15    0.14
   3  -2  -1    0.52    0.33
  -3   2   1    0.77    0.53
  -3   2   1    0.32    0.12
  -3   2   1    0.38    0.08
  -3   2   1    0.27    0.17
   2  -2  -1   16.43    1.83
  -2   2   1   15.14    1.19
  -2   2   1   16.81    1.15
  -2   2   1   21.38    2.41
   1  -2  -1   11.71    1.08
  -1   2   1   13.61    1.37
  -1   2   1   11.67    1.19
  -1   2   1   11.81    1.43
  -1   2   1   12.77    1.10
   0  -2  -1  132.82    5.61
   0  -2  -1  144.63    4.98
   0  -2  -1  132.93    5.78
   0   2   1  151.46    6.51
   0   2   1  147.19    6.21
  -1  -2  -1    3.90    0.84
  -1  -2  -1    4.30    0.45
  -1  -2  -1    4.48    0.37
  -1  -2  -1    3.99    0.52
   1   2   1    3.59    0.62
   1   2   1    3.77    0.37
   1   2   1    3.27    0.88
  -2  -2  -1   36.23    3.71
   2   2   1   43.43    3.04
   2   2   1   46.84    1.96
   2   2   1   44.35    1.98
   2   2   1   45.00    3.54
  -3  -2  -1    0.47    0.19
  -3  -2  -1    1.80    0.74
  -3  -2  -1    0.38    0.12
   3   2   1    0.39    0.15
   3   2   1    0.25    0.17
  -4  -2  -1   -1.22    1.39
  -4  -2  -1    0.09    0.08
  -4  -2  -1    0.03    0.04
   4   2   1    0.06    0.11
   4   2   1    0.21    0.12
   5   2   1    0.49    0.18
   5  -3  -1    1.86    0.31
  -5   3   1    1.80    0.15
  -5   3   1    1.77    0.29
   4  -3  -1   10.47    0.70
  -4   3   1    6.21    2.26
  -4   3   1    9.01    0.84
  -4   3   1    9.62    0.71
  -4   3   1   10.33    0.49
   3  -3  -1    1.85    0.24
   3  -3  -1    1.64    0.61
   3  -3  -1    2.42    0.87
  -3   3   1    1.13    0.25
  -3   3   1    2.00    0.29
  -3   3   1    1.68    0.14
   2  -3  -1    1.39    0.17
   2  -3  -1    1.23    0.57
  -2   3   1    0.54    0.50
  -2   3   1    1.46    0.57
   1  -3  -1   10.12    0.56
  -1   3   1   11.79    1.39
  -1   3   1    9.98    1.28
  -1   3   1    9.23    1.39
   0  -3  -1   52.43    3.09
   0  -3  -1   53.68    2.08
   0   3   1   48.92    3.67
   0   3   1   48.34    3.34
   0   3   1   54.89    2.22
   0   3   1   54.87    3.04
  -1  -3  -1   21.11    1.45
  -1  -3  -1   18.41    1.34
  -1  -3  -1   21.93    2.71
   1   3   1   22.69    2.46
   1   3   1   21.17    1.74
   1   3   1   23.54    2.33
  -2  -3  -1   14.37    0.67
  -2  -3  -1   13.22    0.82
  -2  -3  -1   13.59    0.92
  -2  -3  -1   13.18    0.68
  -2  -3  -1   13.03    2.56
   2   3   1   14.51    1.02
   2   3   1   14.92    0.89
  -3  -3  -1    5.01    0.55
  -3  -3  -1    4.93    0.51
  -3  -3  -1    4.63    0.33
  -3  -3  -1    5.10    1.79
   3   3   1    5.14    0.52
   3   3   1    4.12    0.58
   3   3   1    6.20    1.42
  -4  -3  -1   -0.76    1.70
  -4  -3  -1    0.69    0.14
  -4  -3  -1    0.77    0.22
   4   3   1    0.77    0.30
   4   3   1    0.59    0.20
  -5  -3  -1    1.68    0.15
  -5  -3  -1    1.85    0.22
   5   3   1    2.08    0.34
   5  -4  -1    0.22    0.19
  -5   4   1   -0.11    0.07
  -5   4   1    0.01    0.04
  -5   4   1   -0.17    0.10
   4  -4  -1    1.96    0.27
   4  -4  -1    2.15    0.27
  -4   4   1    1.92    0.45
  -4   4   1    1.79    0.31
  -4   4   1    1.64    0.15
   3  -4  -1    0.61    0.16
   3  -4  -1    0.52    0.78
   3  -4  -1    0.43    0.16
  -3   4   1   -0.11    0.33
  -3   4   1    0.42    0.08
  -3   4   1    0.30    0.12
  -3   4   1    0.25    0.10
  -3   4   1    1.19    0.98
   2  -4  -1   11.64    1.98
   2  -4  -1   11.24    0.59
   2  -4  -1    9.71    0.62
   2  -4  -1   11.44    1.43
  -2   4   1    7.13    1.83
  -2   4   1   10.05    0.73
  -2   4   1   13.00    2.21
  -2   4   1    8.96    0.70
   1  -4  -1    0.30    0.08
   1  -4  -1    0.59    0.49
   1  -4  -1    0.25    0.09
  -1   4   1    0.22    0.53
  -1   4   1    1.07    0.54
   0  -4  -1    1.66    0.64
   0  -4  -1    1.17    0.22
   0  -4  -1    1.51    0.18
   0   4   1    1.75    0.29
   0   4   1    1.53    0.82
  -1  -4  -1    2.36    0.75
  -1  -4  -1    1.49    0.25
  -1  -4  -1    2.11    0.17
  -1  -4  -1    2.82    0.74
  -1  -4  -1    2.37    0.35
  -1  -4  -1    2.77    1.25
   1   4   1    1.85    0.73
   1   4   1    1.90    0.29
   1   4   1    2.21    0.35
  -2  -4  -1   10.42    0.56
  -2  -4  -1   10.93    0.86
  -2  -4  -1   14.66    2.98
  -2  -4  -1   10.60    0.71
   2   4   1   12.26    1.75
   2   4   1   12.08    1.00
   2   4   1   11.30    0.83
  -3  -4  -1    0.18    0.08
  -3  -4  -1    0.39    1.56
  -3  -4  -1    0.04    0.12
  -3  -4  -1    0.10    0.04
   3   4   1    1.64    1.48
   3   4   1   -0.07    0.13
   3   4   1    0.05    0.11
  -4  -4  -1    0.13    0.12
  -4  -4  -1    0.13    0.05
   4   4   1    0.24    0.16
  -5  -4  -1    0.14    0.06
   5   4   1    0.06    0.11
   5  -5  -1    0.68    0.16
   4  -5  -1    1.06    0.29
  -4   5   1    0.63    0.10
  -4   5   1    0.89    0.26
  -4   5   1    0.83    0.32
  -4   5   1   -0.36    1.09
   3  -5  -1    2.03    0.24
   3  -5  -1    1.46    0.27
  -3   5   1    2.05    0.35
  -3   5   1    1.42    0.16
  -3   5   1    1.03    1.08
  -3   5   1    1.65    0.37
  -3   5   1    2.44    0.46
   2  -5  -1    0.30    0.11
   2  -5  -1    0.62    0.60
   2  -5  -1    0.32    0.13
  -2   5   1    0.42    0.20
  -2   5   1   -0.06    0.49
  -2   5   1    0.56    0.14
   1  -5  -1    7.63    1.31
   1  -5  -1    6.37    0.57
   1  -5  -1    5.69    0.44
   1  -5  -1    6.65    1.56
  -1   5   1    6.12    0.60
  -1   5   1    8.12    1.76
   0  -5  -1    1.19    0.46
   0  -5  -1    1.47    0.34
   0  -5  -1    1.01    0.67
   0  -5  -1    1.47    0.21
   0  -5  -1    1.84    0.46
   0  -5  -1    1.20    0.13
   0   5   1    1.77    0.36
   0   5   1    1.55    0.29
   0   5   1   -2.31    1.89
  -1  -5  -1    2.74    1.29
  -1  -5  -1    1.41    1.11
  -1  -5  -1    2.93    0.25
  -1  -5  -1    3.42    0.24
  -1  -5  -1    3.19    0.29
  -1  -5  -1    3.05    0.23
  -1  -5  -1    6.11    1.48
  -1  -5  -1    3.50    0.46
   1   5   1    3.08    0.39
   1   5   1    3.15    0.66
   1   5   1    2.63    0.49
   1   5   1    1.49    3.20
   1   5   1    4.59    1.06
  -2  -5  -1    4.39    0.56
  -2  -5  -1    3.43    0.30
  -2  -5  -1    4.16    0.41
  -2  -5  -1    4.73    0.31
   2   5   1    5.15    0.68
   2   5   1    0.58    3.85
   2   5   1    3.25    0.48
  -3  -5  -1    2.11    0.30
  -3  -5  -1    2.52    0.39
  -3  -5  -1    2.73    1.57
  -3  -5  -1    2.12    0.21
   3   5   1    1.93    0.44
   3   5   1    1.53    0.44
  -4  -5  -1    0.09    0.06
  -4  -5  -1    0.07    0.04
   4   5   1   -0.02    0.07
   4   5   1    0.47    0.20
   5  -6  -1    0.28    0.13
  -5   6   1    0.20    0.08
   4  -6  -1    0.19    0.11
  -4   6   1    0.09    0.11
  -4   6   1    0.17    0.11
   3  -6  -1    2.53    0.37
   3  -6  -1    2.81    0.31
  -3   6   1    2.64    0.39
  -3   6   1    2.71    0.39
  -3   6   1    1.34    1.13
  -3   6   1    2.51    0.37
   2  -6  -1    0.67    0.23
   2  -6  -1    0.76    0.19
  -2   6   1   -0.01    1.18
  -2   6   1    0.81    0.22
  -2   6   1    0.73    0.30
   1  -6  -1    2.90    0.42
   1  -6  -1    4.47    1.51
   1  -6  -1    5.03    1.86
   1  -6  -1    3.29    0.37
  -1   6   1    3.30    0.46
  -1   6   1    0.32    2.26
  -1   6   1    3.72    0.37
  -1   6   1    3.86    1.68
   0  -6  -1    6.31    0.51
   0  -6  -1    3.43    1.65
   0  -6  -1    6.06    0.35
   0  -6  -1    5.47    0.62
   0  -6  -1    6.49    1.94
   0  -6  -1    6.32    0.62
   0   6   1    4.62    0.50
   0   6   1    5.36    0.67
   0   6   1    0.43    4.37
  -1  -6  -1    1.27    0.15
  -1  -6  -1    1.45    0.32
  -1  -6  -1    1.06    0.15
  -1  -6  -1    1.28    0.24
  -1  -6  -1    0.26    0.89
   1   6   1    1.45    0.31
   1   6   1   -0.73    2.70
   1   6   1    1.01    0.41
  -2  -6  -1    1.21    0.12
  -2  -6  -1    0.88    0.20
  -2  -6  -1    1.02    0.34
  -2  -6  -1    0.72    0.15
  -2  -6  -1    2.85    1.41
   2   6   1    1.24    0.32
   2   6   1    0.75    0.25
  -3  -6  -1    0.24    0.16
  -3  -6  -1    0.30    0.10
   3   6   1   -0.16    0.19
   3   6   1    0.21    0.11
   4   6   1    0.31    0.14
   4   6   1   -0.09    0.88
   4  -7  -1    0.17    0.13
   4  -7  -1   -0.07    0.07
  -4   7   1   -0.02    0.04
  -4   7   1    0.05    0.08
   3  -7  -1    0.04    0.06
   3  -7  -1    0.24    0.13
   3  -7  -1    0.03    0.03
  -3   7   1    0.03    0.10
  -3   7   1    0.00    0.07
  -3   7   1    0.10    0.17
   2  -7  -1    0.10    0.05
   2  -7  -1    0.19    0.10
   2  -7  -1   -0.01    0.08
  -2   7   1   -0.37    1.04
  -2   7   1    0.29    0.18
  -2   7   1    0.17    0.13
  -2   7   1    0.07    0.06
   1  -7  -1    1.54    0.28
   1  -7  -1   -0.43    1.24
   1  -7  -1    1.77    0.44
   1  -7  -1    2.10    0.18
  -1   7   1    2.18    0.40
  -1   7   1    2.09    1.06
   0  -7  -1   20.76    3.45
   0  -7  -1   23.68    1.54
   0  -7  -1   24.46    1.27
   0  -7  -1   23.14    1.51
   0  -7  -1   24.63    1.03
   0  -7  -1   24.74    1.01
   0   7   1   25.05    1.65
  -1  -7  -1    2.42    0.33
  -1  -7  -1    0.43    1.44
   1   7   1    2.02    1.11
   1   7   1    4.10    1.46
   1   7   1    1.81    0.32
  -2  -7  -1    0.13    0.06
  -2  -7  -1    0.26    0.21
   2   7   1   -0.05    0.32
   2   7   1    1.55    0.78
  -3  -7  -1    0.49    0.16
   3   7   1   -0.28    0.77
   3   7   1    0.58    0.20
   4  -8  -1    0.09    0.07
  -4   8   1    0.07    0.08
  -4   8   1    0.17    0.07
   3  -8  -1    0.97    0.18
   3  -8  -1    1.28    0.11
   3  -8  -1    0.60    0.20
  -3   8   1    1.00    0.17
  -3   8   1    1.11    0.28
   2  -8  -1    0.30    0.15
   2  -8  -1    0.39    0.18
   2  -8  -1    0.20    0.06
  -2   8   1    0.17    0.12
  -2   8   1    0.30    0.21
   1  -8  -1    0.61    0.21
   1  -8  -1    0.30    0.07
  -1   8   1    0.34    0.19
  -1   8   1    1.23    1.45
  -1   8   1    0.21    0.15
   0  -8  -1    0.10    0.05
   0  -8  -1    0.64    0.34
   0  -8  -1    0.13    0.06
   0   8   1    0.21    0.23
   0   8   1   -1.96    3.73
  -1  -8  -1    7.17    0.42
  -1  -8  -1    7.27    0.73
   1   8   1    8.23    0.82
   3  -9  -1    0.24    0.05
   3  -9  -1    0.48    0.12
  -3   9   1    0.31    0.09
   2  -9  -1    0.24    0.11
   2  -9  -1    0.37    0.38
  -2   9   1    0.52    0.18
   0  -9  -1    1.23    0.13
  -1  -9  -1   -0.09    0.14
   1   9  -2    3.92    0.51
  -1  -9   2    3.03    0.38
   0   9  -2    0.51    0.18
   0   9  -2    0.96    0.32
   0  -9   2    0.68    0.27
  -2   9  -2    0.78    0.24
  -2   9  -2    0.66    0.20
   2  -9   2    0.15    0.15
   2  -9   2    0.40    0.09
  -3   9  -2    0.55    0.13
   3  -9   2    0.22    0.10
   3  -9   2    0.47    0.10
   2   8  -2    0.97    3.01
  -2  -8   2    1.09    0.33
   1   8  -2    2.88    0.59
   1   8  -2    0.80    2.70
  -1  -8   2    2.74    0.22
  -1  -8   2    3.21    0.49
  -1  -8   2    2.37    0.23
   0   8  -2    0.09    0.21
   0  -8   2    0.03    0.04
   0  -8   2    0.00    0.03
   0  -8   2    0.06    0.24
  -1   8  -2    0.13    0.19
  -1   8  -2   -0.72    1.38
   1  -8   2   -0.04    0.19
   1  -8   2    0.35    0.15
  -2   8  -2    0.19    0.18
   2  -8   2   -0.09    0.14
   2  -8   2    0.15    0.08
  -3   8  -2    0.15    0.10
  -3   8  -2    0.89    0.38
  -3   8  -2    0.23    0.12
   3  -8   2    0.21    0.13
   3  -8   2    0.20    0.10
   3  -8   2    0.18    0.04
  -4   8  -2    0.99    0.15
  -4   8  -2    1.08    0.19
   4  -8   2    1.43    0.17
   4  -8   2    1.64    0.11
   3   7  -2   -0.02    0.10
  -3  -7   2    0.12    0.11
  -3  -7   2   -0.09    0.09
   2   7  -2    1.76    0.40
   2   7  -2    1.89    0.33
  -2  -7   2    2.00    0.19
  -2  -7   2    2.05    0.21
  -2  -7   2    2.20    0.19
  -2  -7   2    2.41    0.39
   1   7  -2   10.16    0.80
   1   7  -2   10.52    1.18
   1   7  -2   14.06    1.17
  -1  -7   2   12.15    0.63
  -1  -7   2   12.41    1.06
  -1  -7   2   11.38    0.59
  -1  -7   2    9.99    2.57
  -1  -7   2   11.66    0.63
   0   7  -2    3.68    1.26
   0   7  -2    0.18    2.01
   0   7  -2    5.40    0.66
   0  -7   2    4.76    0.33
   0  -7   2    5.44    0.64
   0  -7   2    4.09    0.42
  -1   7  -2   -0.17    1.98
  -1   7  -2   -0.50    0.71
   1  -7   2    0.55    0.23
   1  -7   2    0.31    0.07
   1  -7   2    0.29    0.13
  -2   7  -2    3.79    0.55
  -2   7  -2    3.76    0.37
   2  -7   2    3.12    0.37
   2  -7   2    3.54    0.48
  -3   7  -2    2.49    0.36
  -3   7  -2    2.40    0.34
  -3   7  -2    2.24    0.37
   3  -7   2    2.53    0.42
   3  -7   2    2.20    0.29
  -4   7  -2    0.66    0.19
  -4   7  -2    0.59    0.17
   4  -7   2    0.63    0.17
   4  -7   2    0.92    0.23
   4   6  -2    0.32    0.13
  -4  -6   2    0.14    0.05
  -4  -6   2    0.08    0.05
   3   6  -2    1.06    0.35
   3   6  -2    1.88    0.51
  -3  -6   2    1.44    0.21
  -3  -6   2    1.46    0.30
  -3  -6   2    1.61    0.16
   2   6  -2    0.75    2.06
   2   6  -2    1.12    0.36
   2   6  -2    0.89    0.29
  -2  -6   2    1.01    0.14
  -2  -6   2    1.40    0.45
  -2  -6   2    1.25    0.18
  -2  -6   2    1.07    0.15
   1   6  -2    3.79    0.62
   1   6  -2    6.11    0.76
   1   6  -2    4.20    0.48
   1   6  -2    1.70    2.71
  -1  -6   2    4.34    0.36
  -1  -6   2    4.41    0.57
  -1  -6   2    4.09    1.88
  -1  -6   2    4.51    0.31
  -1  -6   2    4.68    0.31
   0   6  -2    2.50    0.34
   0   6  -2    0.21    3.12
   0   6  -2    1.57    0.94
   0   6  -2    2.87    0.48
   0   6  -2    2.66    0.55
   0  -6   2    2.67    0.21
   0  -6   2    2.87    1.36
   0  -6   2    0.19    1.45
   0  -6   2    3.21    0.46
   0  -6   2    2.65    0.32
  -1   6  -2    0.37    0.21
  -1   6  -2    2.29    4.80
   1  -6   2    0.39    1.51
   1  -6   2    0.60    0.32
  -2   6  -2    1.40    0.31
   2  -6   2    0.62    0.25
   2  -6   2    0.83    0.20
  -3   6  -2    0.42    0.18
  -3   6  -2    0.44    0.30
   3  -6   2    0.30    0.17
   3  -6   2    0.57    0.17
  -4   6  -2    0.06    0.06
  -4   6  -2    0.07    0.09
   4  -6   2    0.16    0.06
   4  -6   2    0.04    0.14
  -5   6  -2    2.32    0.31
   5  -6   2    2.28    0.22
   4   5  -2    1.16    0.21
   4   5  -2    0.70    0.27
  -4  -5   2    0.77    0.21
  -4  -5   2    0.87    0.11
   3   5  -2    0.19    0.10
   3   5  -2    0.10    0.21
  -3  -5   2    0.21    0.15
   2   5  -2    0.80    0.24
   2   5  -2   -0.60    2.73
   2   5  -2    0.76    0.30
   2   5  -2    1.32    1.12
  -2  -5   2    0.54    0.14
  -2  -5   2    0.50    0.16
  -2  -5   2   -0.14    0.84
  -2  -5   2    0.77    0.29
   1   5  -2    2.78    0.57
   1   5  -2    3.35    3.28
   1   5  -2    3.29    0.50
   1   5  -2    3.07    0.39
  -1  -5   2    1.87    0.90
  -1  -5   2    3.11    0.24
  -1  -5   2    3.74    0.45
  -1  -5   2    3.01    0.31
  -1  -5   2    2.73    0.22
   0   5  -2   -0.19    0.14
   0   5  -2    0.43    0.28
   0   5  -2   -0.44    1.49
   0   5  -2   -0.11    0.34
   0   5  -2   -0.14    0.09
   0   5  -2   -0.69    1.41
   0  -5   2   -0.05    0.07
   0  -5   2    0.11    0.10
   0  -5   2   -0.47    0.70
   0  -5   2   -0.03    0.03
   0  -5   2    0.16    0.15
  -1   5  -2    0.23    1.87
  -1   5  -2    1.33    0.61
   1  -5   2    0.65    0.17
   1  -5   2    0.45    0.16
   1  -5   2    2.05    0.97
   1  -5   2    0.20    0.47
  -2   5  -2    2.28    0.16
  -2   5  -2    2.25    0.35
  -2   5  -2    3.82    1.65
  -2   5  -2    2.75    0.36
   2  -5   2    2.71    0.36
   2  -5   2    2.71    0.29
  -3   5  -2    0.42    0.21
  -3   5  -2    0.33    0.13
  -3   5  -2    0.51    0.07
   3  -5   2    0.42    0.16
   3  -5   2    0.32    0.10
  -4   5  -2    2.01    0.34
  -4   5  -2    3.12    0.52
  -4   5  -2    2.64    0.18
   4  -5   2    2.88    0.29
   4  -5   2    2.79    0.35
  -5   5  -2    0.18    0.15
   5  -5   2    0.73    0.19
   5  -5   2    0.33    0.11
   5   4  -2   -0.32    1.13
  -5  -4   2    0.45    0.07
  -5  -4   2    0.53    0.12
   4   4  -2    0.55    0.17
   4   4  -2    0.60    0.23
  -4  -4   2    0.80    0.27
  -4  -4   2    0.44    0.12
   3   4  -2    2.57    0.50
   3   4  -2    2.35    0.37
   3   4  -2    2.77    1.56
  -3  -4   2    3.53    0.43
  -3  -4   2    1.15    0.96
  -3  -4   2    3.32    0.42
  -3  -4   2    3.03    0.27
   2   4  -2    4.12    0.45
   2   4  -2    5.03    0.61
   2   4  -2    2.68    3.60
   2   4  -2    4.82    1.18
  -2  -4   2    4.08    0.43
  -2  -4   2    4.30    0.48
  -2  -4   2    6.17    2.09
  -2  -4   2    4.10    0.31
   1   4  -2   18.64    1.87
   1   4  -2   17.32    0.98
   1   4  -2   18.82    2.71
   1   4  -2   16.24    1.12
  -1  -4   2   17.04    0.73
  -1  -4   2   16.37    1.06
  -1  -4   2   17.52    2.48
   0   4  -2    0.37    0.34
   0   4  -2   -0.02    0.76
   0   4  -2    0.90    0.88
   0   4  -2    1.08    0.19
   0  -4   2    0.63    0.35
   0  -4   2    0.93    0.53
   0  -4   2    0.81    0.17
  -1   4  -2   48.62    3.94
  -1   4  -2   41.09    4.36
  -1   4  -2   47.59    3.45
   1  -4   2   43.18    2.67
   1  -4   2   47.01    1.98
   1  -4   2   49.09    3.65
   1  -4   2   46.18    1.85
  -2   4  -2    0.96    0.54
  -2   4  -2    1.08    0.22
  -2   4  -2    0.97    0.24
   2  -4   2    1.27    0.19
   2  -4   2    1.28    0.22
  -3   4  -2    6.56    0.66
  -3   4  -2    6.25    0.33
  -3   4  -2    6.29    0.54
   3  -4   2    6.95    0.57
   3  -4   2    7.20    0.50
  -4   4  -2    0.11    0.11
  -4   4  -2   -0.01    0.02
  -4   4  -2    0.05    0.12
   4  -4   2   -0.11    0.10
   4  -4   2   -0.07    0.12
  -5   4  -2    0.80    0.09
  -5   4  -2    1.09    0.30
   5   3  -2   -0.41    0.97
   5   3  -2    0.16    0.14
  -5  -3   2    0.14    0.06
  -5  -3   2    0.20    0.11
   4   3  -2    1.14    0.32
   4   3  -2    1.31    0.28
  -4  -3   2    0.95    0.25
  -4  -3   2    3.44    1.50
  -4  -3   2    1.44    0.18
   3   3  -2    0.48    0.18
   3   3  -2    0.98    0.89
   3   3  -2    1.14    0.34
  -3  -3   2    0.40    0.15
  -3  -3   2    0.48    0.26
  -3  -3   2    0.32    0.09
   2   3  -2    2.36    0.38
   2   3  -2    2.71    0.68
   2   3  -2    2.58    0.33
  -2  -3   2    3.68    1.79
  -2  -3   2    2.52    0.35
  -2  -3   2    2.72    0.22
  -2  -3   2    2.65    0.34
  -2  -3   2    3.25    0.67
   1   3  -2    0.86    0.59
   1   3  -2    0.28    0.36
  -1  -3   2    0.09    0.28
  -1  -3   2    0.22    0.34
   0   3  -2    3.20    0.35
   0   3  -2    3.55    0.80
   0   3  -2    3.27    0.93
   0  -3   2    3.69    0.63
   0  -3   2    2.67    0.57
   0  -3   2    3.31    0.29
  -1   3  -2    5.31    0.99
  -1   3  -2    5.90    0.98
   1  -3   2    5.70    0.79
   1  -3   2    4.56    0.84
   1  -3   2    5.20    0.39
   1  -3   2    5.73    0.98
  -2   3  -2    0.40    0.64
  -2   3  -2   -0.22    0.34
   2  -3   2    1.26    0.57
   2  -3   2   -0.16    0.33
   2  -3   2    0.10    0.10
   2  -3   2    0.16    0.11
   2  -3   2    0.26    0.31
  -3   3  -2   17.16    0.98
  -3   3  -2   19.79    0.82
  -3   3  -2   19.88    1.26
  -3   3  -2   22.72    3.77
  -3   3  -2   19.96    1.10
   3  -3   2   21.43    2.43
   3  -3   2   21.36    1.15
   3  -3   2   22.24    1.04
  -4   3  -2    8.30    0.68
  -4   3  -2    9.41    0.87
  -4   3  -2    9.45    0.46
   4  -3   2    9.94    0.76
   4  -3   2    8.93    0.65
  -5   3  -2    3.57    0.23
  -5   3  -2    3.37    0.45
   5  -3   2    3.72    0.34
   5  -3   2    4.43    0.62
   5   2  -2    1.65    0.39
   5   2  -2    2.26    0.30
  -5  -2   2    1.33    0.16
  -5  -2   2    1.70    0.25
   4   2  -2   10.87    2.86
   4   2  -2    6.35    0.57
   4   2  -2    5.77    0.66
   4   2  -2   10.92    2.88
  -4  -2   2    6.76    0.46
  -4  -2   2    8.13    0.77
  -4  -2   2    5.24    1.91
   3   2  -2    8.53    0.71
   3   2  -2    8.92    0.62
   3   2  -2    9.22    1.38
  -3  -2   2    8.30    0.68
  -3  -2   2    8.00    0.48
  -3  -2   2    7.20    0.61
   2   2  -2    5.76    0.83
   2   2  -2    4.90    0.97
   2   2  -2    5.29    0.46
  -2  -2   2    5.51    1.75
  -2  -2   2    5.52    1.75
  -2  -2   2    5.34    0.73
   1   2  -2  117.63    5.83
   1   2  -2  124.15    5.15
   1   2  -2  132.26    4.55
   1   2  -2  123.47    5.63
  -1  -2   2  119.24    6.48
  -1  -2   2  122.34    5.45
   0   2  -2   47.10    1.83
   0   2  -2   42.96    2.64
   0   2  -2   44.13    2.43
   0  -2   2   40.30    2.27
   0  -2   2   43.33    2.60
   0  -2   2   44.82    1.70
   0  -2   2   48.36    2.41
   0  -2   2   43.39    2.24
  -1   2  -2   34.51    2.00
  -1   2  -2   35.85    2.35
   1  -2   2   32.71    1.79
   1  -2   2   33.03    1.52
   1  -2   2   36.47    2.21
  -2   2  -2    1.06    0.59
  -2   2  -2    0.50    0.45
   2  -2   2    0.69    0.17
   2  -2   2    0.84    0.45
  -3   2  -2   18.26    1.16
  -3   2  -2   17.42    0.76
   3  -2   2   17.71    1.00
   3  -2   2   19.75    2.10
  -4   2  -2   -0.38    0.55
  -4   2  -2    0.51    0.19
  -4   2  -2    0.35    0.09
   4  -2   2    3.71    2.42
   4  -2   2    0.34    0.21
   4  -2   2    0.63    0.23
  -5   2  -2    2.42    0.19
  -5   2  -2    2.52    0.37
   5  -2   2    2.64    0.36
   5  -2   2    2.47    0.32
   5   1  -2    0.72    0.24
   5   1  -2    0.42    0.24
  -5  -1   2    0.14    0.10
   4   1  -2    1.50    0.33
   4   1  -2    2.41    1.69
   4   1  -2    1.91    0.33
  -4  -1   2    1.26    0.18
  -4  -1   2    1.38    0.35
  -4  -1   2    0.84    1.12
   3   1  -2    6.10    1.30
   3   1  -2    8.88    0.60
  -3  -1   2    8.04    0.47
  -3  -1   2    9.06    0.70
  -3  -1   2    8.69    1.69
   2   1  -2    0.69    0.36
   2   1  -2    1.34    0.47
   2   1  -2    1.32    0.43
   2   1  -2    0.60    0.15
  -2  -1   2    0.35    0.33
   1   1  -2  242.83    9.37
   1   1  -2  243.73    9.21
   1   1  -2  247.19    9.10
  -1  -1   2  221.92    9.53
  -1  -1   2  252.39    9.38
  -1  -1   2  283.01   10.68
   0   1  -2   18.22    1.16
   0   1  -2   20.87    1.40
   0   1  -2   22.32    1.17
   0  -1   2   25.85    1.31
   0  -1   2   22.03    1.14
   0  -1   2   23.92    1.42
   0  -1   2   21.52    1.36
  -1   1  -2   91.99    4.24
  -1   1  -2   84.58    4.07
  -1   1  -2   89.32    3.26
  -1   1  -2   81.40    4.07
  -1   1  -2   85.52    3.18
   1  -1   2   82.41    3.92
   1  -1   2   82.95    3.86
  -2   1  -2    4.55    0.73
  -2   1  -2    4.89    0.72
  -2   1  -2    6.78    1.33
   2  -1   2    3.85    0.72
   2  -1   2    4.96    0.71
  -3   1  -2   43.51    5.00
  -3   1  -2   37.10    2.87
  -3   1  -2   34.15    1.79
  -3   1  -2   34.88    1.39
   3  -1   2   35.60    1.62
   3  -1   2   35.92    2.69
  -4   1  -2    3.92    0.40
  -4   1  -2    4.07    0.51
  -4   1  -2    3.91    0.29
   4  -1   2    4.83    0.43
   4  -1   2    3.34    0.48
  -5   1  -2    4.25    0.28
  -5   1  -2    4.49    0.46
  -5   1  -2    3.62    0.33
   5  -1   2    4.17    0.44
   5  -1   2    4.35    0.51
  -5   0   2   -0.08    0.07
  -5   0   2    0.08    0.04
   4   0  -2    0.38    1.49
   4   0  -2    0.93    0.26
  -4   0   2    0.25    1.21
  -4   0   2    1.18    0.29
  -4   0   2    0.87    0.27
  -4   0   2    0.94    0.15
   3   0  -2   10.25    1.45
   3   0  -2    7.78    0.83
  -3   0   2    7.58    1.44
  -3   0   2    8.82    0.70
   2   0  -2    0.79    0.29
   2   0  -2    0.26    0.32
  -2   0   2    0.30    0.23
  -2   0   2    0.45    0.33
  -2   0   2    1.34    0.52
   1   0  -2    1.56    0.17
   1   0  -2    1.39    0.17
  -1   0   2    2.09    0.56
  -1   0   2    1.00    0.30
   0   0  -2   17.55    0.95
   0   0  -2   17.30    1.13
   0   0  -2   16.02    0.89
   0   0   2   16.91    0.73
   0   0   2   18.36    1.05
   0   0   2   18.19    1.15
  -1   0  -2   33.55    2.07
  -1   0  -2   31.58    1.82
  -1   0  -2   33.85    2.13
  -1   0  -2   32.83    1.75
   1   0   2   33.17    1.68
   1   0   2   35.41    1.40
   1   0   2   33.73    1.72
   1   0   2   35.42    2.16
  -2   0  -2    0.70    0.39
  -2   0  -2    0.13    0.27
   2   0   2    0.12    0.36
  -3   0  -2    5.54    0.53
  -3   0  -2    5.96    1.74
  -3   0  -2    4.64    0.47
  -3   0  -2    5.18    0.34
   3   0   2    5.23    0.50
   3   0   2    6.36    0.47
   3   0   2    6.01    0.82
   3   0   2    5.19    1.25
  -4   0  -2    2.25    1.38
   4   0   2    0.50    0.16
   4   0   2    1.31    1.52
  -5   0  -2    3.85    0.35
  -5   0  -2    4.24    0.29
   5   0   2    4.52    0.50
   5   0   2    4.03    0.44
  -5   1   2    2.67    0.33
  -5   1   2    2.68    0.30
  -5   1   2    2.74    0.23
   4  -1  -2    0.42    1.64
   4  -1  -2    0.18    0.21
  -4   1   2    0.11    0.13
  -4   1   2    0.09    0.04
  -4   1   2    0.02    0.17
  -4   1   2   -0.03    1.13
  -4   1   2    0.02    0.11
   3  -1  -2   10.41    1.66
   3  -1  -2   11.21    1.23
   3  -1  -2    9.61    1.27
  -3   1   2    8.95    0.72
  -3   1   2    9.31    0.50
  -3   1   2    9.22    1.76
  -3   1   2    9.49    1.61
   2  -1  -2   28.47    2.71
   2  -1  -2   24.22    2.02
  -2   1   2   22.44    2.22
  -2   1   2   26.68    2.31
  -2   1   2   25.73    2.67
   1  -1  -2   61.53    3.28
  -1   1   2   57.55    3.09
  -1   1   2   62.83    3.18
  -1   1   2   66.61    2.53
  -1   1   2   62.89    3.51
  -1   1   2   61.51    2.60
   0  -1  -2   11.22    0.83
   0  -1  -2   11.04    0.89
   0  -1  -2   10.00    0.96
   0   1   2   11.93    1.02
   0   1   2   12.17    1.04
   0   1   2   12.09    0.75
   0   1   2    9.64    0.76
  -1  -1  -2    2.40    0.37
  -1  -1  -2    2.71    0.37
  -1  -1  -2    2.79    0.58
   1   1   2    3.37    0.73
   1   1   2    3.15    0.62
   1   1   2    1.67    0.46
   1   1   2    2.61    0.26
  -2  -1  -2   19.97    2.01
  -2  -1  -2   17.08    2.00
  -2  -1  -2   21.70    1.62
   2   1   2   20.57    1.05
   2   1   2   20.74    2.03
   2   1   2   21.07    2.07
  -3  -1  -2    0.53    0.19
  -3  -1  -2    0.81    0.26
  -3  -1  -2    0.59    0.10
  -3  -1  -2    1.14    0.75
   3   1   2   -0.51    0.69
   3   1   2    0.48    0.19
   3   1   2    0.77    0.19
  -4  -1  -2    0.26    0.13
  -4  -1  -2    0.15    0.07
  -4  -1  -2    0.55    1.13
  -4  -1  -2   -0.06    0.23
   4   1   2    0.28    0.18
   4   1   2    2.36    1.30
  -5  -1  -2    2.52    0.29
  -5  -1  -2    2.74    0.22
   5   1   2    3.22    0.52
   5   1   2    3.16    0.35
  -5   2   2    1.60    0.15
  -5   2   2    1.73    0.27
   4  -2  -2    6.61    0.49
   4  -2  -2    3.93    2.86
  -4   2   2    5.64    0.50
  -4   2   2    5.10    0.54
  -4   2   2    5.88    0.36
  -4   2   2    5.51    0.61
  -4   2   2    7.25    2.60
   3  -2  -2    1.54    0.87
  -3   2   2    1.10    0.24
  -3   2   2    1.60    0.16
  -3   2   2    1.57    0.29
   2  -2  -2   29.37    2.19
   2  -2  -2   32.72    2.72
  -2   2   2   33.96    3.11
   1  -2  -2   44.85    2.60
   1  -2  -2   42.89    2.56
   1  -2  -2   37.13    2.19
   1  -2  -2   42.90    1.61
  -1   2   2   47.26    2.46
  -1   2   2   41.29    2.85
  -1   2   2   41.97    2.69
  -1   2   2   47.87    2.68
   0  -2  -2    3.09    0.25
   0  -2  -2    2.65    0.74
   0  -2  -2    2.95    0.48
   0  -2  -2    2.79    0.52
   0   2   2    3.93    0.72
   0   2   2    2.82    0.66
  -1  -2  -2    1.47    0.38
  -1  -2  -2    2.69    0.62
  -1  -2  -2    1.84    0.55
  -1  -2  -2    2.19    0.76
   1   2   2    1.96    0.25
   1   2   2    1.49    0.51
   1   2   2    2.77    0.79
   2   2   2    0.06    0.22
   2   2   2    1.06    0.64
   2   2   2    0.17    0.10
   2   2   2    0.22    0.14
  -3  -2  -2    2.74    0.34
  -3  -2  -2    2.29    0.22
  -3  -2  -2    2.18    0.34
  -3  -2  -2    2.77    1.02
   3   2   2    2.56    0.34
   3   2   2    2.53    0.39
   3   2   2    3.42    1.29
  -4  -2  -2    0.12    0.07
  -4  -2  -2    0.23    0.10
  -4  -2  -2    0.88    1.76
   4   2   2    0.45    0.20
  -5  -2  -2    3.02    0.21
  -5  -2  -2    2.75    0.29
   5   2   2    2.84    0.32
   5   2   2    3.15    0.43
  -5   3   2    0.57    0.19
  -5   3   2    0.55    0.08
   4  -3  -2    3.14    0.34
  -4   3   2    3.25    0.23
  -4   3   2    3.10    0.38
  -4   3   2    3.56    0.47
  -4   3   2    2.89    1.40
   3  -3  -2    5.93    1.51
   3  -3  -2    3.28    0.89
   3  -3  -2    4.01    0.33
  -3   3   2    2.77    0.35
  -3   3   2    3.87    0.32
  -3   3   2    3.24    1.40
  -3   3   2    3.85    0.45
   2  -3  -2   57.95    2.23
  -2   3   2   61.01    4.57
  -2   3   2   58.15    3.53
   1  -3  -2   40.30    1.54
   1  -3  -2   41.33    2.64
  -1   3   2   36.69    2.77
  -1   3   2   35.08    2.62
  -1   3   2   32.85    2.75
   0  -3  -2   81.63    3.11
   0  -3  -2   85.39    4.32
   0   3   2   87.82    5.12
   0   3   2   81.49    3.23
   0   3   2   77.37    4.62
  -1  -3  -2    2.34    0.89
  -1  -3  -2    2.13    0.34
  -1  -3  -2    2.04    0.54
  -1  -3  -2    2.58    0.62
   1   3   2    2.16    0.86
   1   3   2    2.55    0.36
  -2  -3  -2    8.06    0.58
  -2  -3  -2    7.76    0.43
  -2  -3  -2    6.98    0.44
  -2  -3  -2    7.13    0.65
   2   3   2    8.33    0.79
   2   3   2    7.86    0.73
  -3  -3  -2    4.75    1.64
  -3  -3  -2    1.88    0.36
  -3  -3  -2    2.12    0.22
  -3  -3  -2    2.98    0.39
   3   3   2    2.37    0.35
   3   3   2    2.10    0.50
  -4  -3  -2    1.97    0.19
  -4  -3  -2    2.16    0.33
  -4  -3  -2    1.64    0.31
   4   3   2    1.71    0.48
   4   3   2    1.75    0.38
  -5  -3  -2    0.41    0.12
  -5  -3  -2    0.27    0.06
   5   3   2    0.50    0.20
   5   3   2    0.00    0.19
   5  -4  -2    0.70    0.21
  -5   4   2    0.04    0.08
   4  -4  -2    1.17    0.22
   4  -4  -2    1.18    0.22
  -4   4   2    0.86    0.23
  -4   4   2    1.08    0.33
  -4   4   2   -0.29    0.76
  -4   4   2    0.85    0.11
   3  -4  -2    0.22    0.12
   3  -4  -2    0.92    1.57
  -3   4   2    0.02    0.17
   2  -4  -2    2.14    0.26
   2  -4  -2    2.03    0.23
   2  -4  -2    3.67    1.21
   2  -4  -2    2.90    0.84
  -2   4   2    1.77    0.92
  -2   4   2    2.21    0.32
  -2   4   2    1.99    0.33
   1  -4  -2    8.33    1.24
   1  -4  -2    7.72    0.48
   1  -4  -2    7.76    0.56
   1  -4  -2    8.81    1.55
  -1   4   2    8.37    1.49
  -1   4   2   10.08    1.60
   0  -4  -2    3.02    0.33
   0  -4  -2    2.58    0.26
   0  -4  -2    2.92    0.87
   0   4   2    2.70    0.37
   0   4   2    5.84    1.48
  -1  -4  -2    6.46    0.61
  -1  -4  -2    6.44    0.35
  -1  -4  -2    6.79    2.15
  -1  -4  -2    6.23    1.10
  -1  -4  -2    6.40    0.34
  -1  -4  -2    5.48    0.58
   1   4   2    6.64    0.54
   1   4   2    6.60    0.67
   1   4   2    3.68    1.29
   1   4   2    6.27    2.53
   1   4   2    5.78    1.11
  -2  -4  -2    7.45    0.46
  -2  -4  -2    8.04    0.70
  -2  -4  -2    8.27    0.59
  -2  -4  -2    8.47    0.46
  -2  -4  -2    9.75    2.18
   2   4   2    7.82    0.67
   2   4   2    9.27    0.88
   2   4   2    7.77    1.50
  -3  -4  -2    8.82    0.50
  -3  -4  -2    8.42    0.75
  -3  -4  -2    5.82    2.72
  -3  -4  -2    8.86    0.68
   3   4   2    8.65    0.93
   3   4   2    8.17    0.75
  -4  -4  -2    0.94    0.23
  -4  -4  -2    0.75    0.12
   4   4   2    0.97    0.31
   4   4   2    1.28    0.23
   5  -5  -2    0.39    0.18
   5  -5  -2    0.71    0.23
  -5   5   2    0.24    0.11
  -5   5   2    0.34    0.17
   4  -5  -2    0.23    0.10
   4  -5  -2    0.27    0.12
  -4   5   2    0.22    0.14
  -4   5   2   -0.49    0.86
  -4   5   2    0.37    0.13
   3  -5  -2    0.96    0.25
   3  -5  -2    3.44    1.60
   3  -5  -2    0.89    0.19
  -3   5   2    1.08    0.28
  -3   5   2    0.67    0.23
   2  -5  -2    2.83    0.29
   2  -5  -2    2.84    1.06
   2  -5  -2    2.66    0.33
  -2   5   2    3.01    0.37
  -2   5   2    2.66    1.22
  -2   5   2    3.00    0.41
   1  -5  -2    4.37    0.37
   1  -5  -2    2.40    1.45
   1  -5  -2    5.94    1.27
   1  -5  -2    3.87    0.24
   1  -5  -2    4.11    0.45
  -1   5   2    3.62    0.49
  -1   5   2    4.28    0.39
  -1   5   2    0.00    1.65
   0  -5  -2    1.42    0.14
   0  -5  -2    1.58    0.22
   0  -5  -2    0.43    0.87
   0  -5  -2    2.12    0.86
   0  -5  -2    1.84    0.30
   0  -5  -2    1.54    0.33
   0   5   2    1.81    0.31
   0   5   2    2.13    0.27
   0   5   2   -1.07    1.49
  -1  -5  -2    2.32    1.18
  -1  -5  -2    0.90    0.26
  -1  -5  -2    1.44    0.15
  -1  -5  -2    1.58    0.16
  -1  -5  -2    1.82    0.35
  -1  -5  -2    1.08    1.02
  -1  -5  -2    1.55    0.20
   1   5   2    3.50    3.25
   1   5   2    1.37    0.30
   1   5   2    1.24    0.35
   1   5   2    1.40    1.51
   1   5   2    1.40    0.34
  -2  -5  -2    1.32    0.41
  -2  -5  -2    0.79    0.14
  -2  -5  -2    1.22    0.19
  -2  -5  -2    1.05    0.15
   2   5   2    1.07    0.35
   2   5   2    1.00    1.18
  -3  -5  -2    0.05    0.10
  -3  -5  -2    0.05    0.06
  -3  -5  -2    0.09    0.05
   3   5   2   -0.04    0.09
   3   5   2    0.08    0.16
  -4  -5  -2    0.91    0.22
  -4  -5  -2    1.18    0.10
   4   5   2    0.79    0.24
   4   5   2    1.10    0.25
  -5   6   2    0.67    0.22
  -5   6   2    0.63    0.18
   4  -6  -2    0.81    0.22
   4  -6  -2    0.55    0.15
  -4   6   2    0.57    0.18
  -4   6   2    0.59    0.21
   3  -6  -2   -0.11    0.09
  -3   6   2   -0.05    0.09
  -3   6   2   -0.08    0.19
  -3   6   2   -0.19    1.28
  -3   6   2   -0.06    0.08
   2  -6  -2    0.10    0.10
  -2   6   2    0.21    0.10
  -2   6   2    0.98    1.10
  -2   6   2    0.10    0.19
   1  -6  -2    0.38    0.12
   1  -6  -2    0.44    0.48
   1  -6  -2    1.28    0.94
   1  -6  -2    0.52    0.15
   1  -6  -2    0.14    0.13
   1  -6  -2    1.62    1.57
  -1   6   2    0.21    0.22
  -1   6   2    0.62    0.50
  -1   6   2    0.18    0.13
   0  -6  -2    1.54    0.84
   0  -6  -2    0.47    0.21
   0  -6  -2    0.38    0.10
   0  -6  -2    0.18    0.11
   0   6   2    0.64    0.78
   0   6   2    0.62    0.25
   0   6   2   -0.58    2.63
  -1  -6  -2    5.34    0.36
  -1  -6  -2    5.79    0.36
  -1  -6  -2    6.15    2.24
  -1  -6  -2    5.05    0.63
   1   6   2    5.44    0.67
   1   6   2    5.46    0.54
   1   6   2    1.51    4.00
  -2  -6  -2    2.80    0.44
  -2  -6  -2    2.51    0.24
  -2  -6  -2    2.88    0.29
  -2  -6  -2    4.26    1.72
   2   6   2    2.14    0.36
  -3  -6  -2    4.33    0.47
  -3  -6  -2    3.65    0.36
  -3  -6  -2    5.08    0.27
   3   6   2    3.90    0.56
   3   6   2    4.39    0.50
   4   6   2    0.26    1.16
   4  -7  -2    0.17    0.13
   4  -7  -2    0.03    0.07
  -4   7   2    0.03    0.07
  -4   7   2    0.09    0.09
   3  -7  -2    0.55    0.08
   3  -7  -2    0.47    0.15
   3  -7  -2    0.29    0.14
  -3   7   2    0.42    0.13
  -3   7   2    0.24    0.12
  -3   7   2    0.87    0.28
   2  -7  -2    0.03    0.03
   2  -7  -2    0.07    0.08
   2  -7  -2   -0.06    0.15
  -2   7   2    0.00    0.11
  -2   7   2    0.14    0.14
  -2   7   2   -0.84    0.95
  -2   7   2    0.14    0.09
   1  -7  -2    0.76    1.14
  -1   7   2   -1.09    0.71
  -1   7   2    0.37    0.21
   0  -7  -2   19.45    1.35
   0  -7  -2   19.74    1.11
   0  -7  -2   20.12    0.88
   0  -7  -2   18.22    1.31
   0   7   2   21.23    1.50
  -1  -7  -2    0.32    0.24
  -1  -7  -2    0.39    0.12
   1   7   2   -0.21    0.19
   1   7   2   -0.44    1.10
   1   7   2   -0.21    1.46
   1   7   2    0.82    0.38
   2   7   2    0.03    0.63
  -3  -7  -2    0.29    0.10
   3   7   2    0.16    0.13
   4  -8  -2    0.66    0.14
  -4   8   2    0.62    0.11
  -4   8   2    0.60    0.17
   3  -8  -2    0.10    0.06
  -3   8   2    0.12    0.07
  -3   8   2    0.06    0.07
   2  -8  -2   -0.02    0.14
  -2   8   2   -0.06    0.05
  -2   8   2    0.22    0.16
  -2   8   2    0.52    0.23
   1  -8  -2    2.24    0.38
   1  -8  -2    1.71    0.17
   1  -8  -2    1.61    0.16
   1  -8  -2    1.76    0.29
  -1   8   2    1.77    0.50
  -1   8   2    1.88    0.29
   0  -8  -2    9.21    0.52
   0  -8  -2   10.81    0.87
   0  -8  -2    9.61    0.53
   0   8   2    9.82    0.95
   0   8   2   12.37    0.64
   1   8   2    0.26    0.33
   1   8   2    0.51    1.58
   2   8   2    0.50    2.08
   3  -9  -2    0.04    0.08
   2  -9  -2    0.11    0.05
   2  -9  -2    0.16    0.05
   2  -9  -2    0.38    0.14
  -2   9   2    0.38    0.11
  -2   9   2    0.13    0.18
   1  -9  -2    0.22    0.34
   1  -9  -2    0.79    0.10
   1  -9  -2    0.88    0.17
  -1   9   2    1.10    0.23
  -1  -9  -2    0.08    0.16
   1   9   2    0.91    0.34
   1   9  -3    2.25    0.50
   0   9  -3    0.42    0.28
   0  -9   3    0.41    0.25
  -2   9  -3    1.18    0.26
  -2   9  -3    1.79    0.49
   2  -9   3    1.65    0.27
   2  -9   3    1.52    0.14
  -3   9  -3   -0.06    0.07
   3  -9   3    0.05    0.03
   3  -9   3    0.15    0.08
  -2  -8   3    0.05    0.10
   1   8  -3    0.63    2.37
  -1  -8   3    1.12    0.14
  -1  -8   3    1.33    0.16
  -1  -8   3    1.66    0.53
   0   8  -3    0.00    0.23
   0   8  -3    2.15    2.65
   0  -8   3    0.32    0.22
  -1   8  -3   -0.56    1.57
  -1   8  -3    1.61    0.49
   1  -8   3    1.40    0.15
   1  -8   3    0.77    0.28
   1  -8   3    1.26    0.22
  -2   8  -3    4.24    0.51
   2  -8   3    3.61    0.26
   2  -8   3    3.36    0.41
   2  -8   3    3.58    0.48
  -3   8  -3    0.01    0.09
  -3   8  -3    0.07    0.10
   3  -8   3    0.02    0.07
   3  -8   3   -0.02    0.15
  -4   8  -3    0.69    0.11
  -4   8  -3    0.76    0.16
   4  -8   3    0.79    0.08
   4  -8   3    0.51    0.13
   3   7  -3    0.76    0.43
   3   7  -3    0.21    0.12
  -3  -7   3    0.15    0.06
   2   7  -3   -1.57    1.55
   1   7  -3    1.35    4.36
   1   7  -3    2.54    0.37
   1   7  -3    2.92    0.57
  -1  -7   3    3.71    0.40
  -1  -7   3    3.44    0.51
  -1  -7   3    3.44    0.26
  -1  -7   3    3.13    0.28
   0   7  -3    0.50    0.77
   0   7  -3    1.23    2.57
   0  -7   3    2.05    0.78
   0  -7   3    0.92    0.16
   0  -7   3    1.41    0.40
   0  -7   3    0.47    0.19
  -1   7  -3    1.79    4.29
  -1   7  -3    0.22    0.16
   1  -7   3    0.37    0.36
   1  -7   3    0.35    0.19
  -2   7  -3    0.44    0.13
  -2   7  -3    0.63    0.26
   2  -7   3    0.33    0.18
  -3   7  -3    0.28    0.11
  -3   7  -3    0.08    0.19
  -3   7  -3    0.87    1.36
   3  -7   3    0.17    0.08
   3  -7   3    0.04    0.13
  -4   7  -3    1.73    0.32
  -4   7  -3    1.39    0.35
   4  -7   3    1.23    0.19
   4  -7   3    1.40    0.27
   4   6  -3    0.17    0.11
  -4  -6   3    0.05    0.03
  -4  -6   3    0.05    0.05
   3   6  -3    0.17    0.19
   3   6  -3   -0.05    0.09
  -3  -6   3    0.01    0.03
  -3  -6   3   -0.03    0.07
  -3  -6   3    0.08    0.17
   2   6  -3   -0.13    2.16
   2   6  -3    2.21    0.56
   2   6  -3    1.96    0.33
  -2  -6   3    1.73    0.19
  -2  -6   3    1.86    0.25
  -2  -6   3    2.12    0.40
  -2  -6   3    0.75    1.53
  -2  -6   3    1.73    0.20
   1   6  -3   25.17    1.56
   1   6  -3   23.77    1.63
   1   6  -3   24.69    1.40
  -1  -6   3   24.36    1.02
  -1  -6   3   23.77    3.10
  -1  -6   3   23.48    3.25
  -1  -6   3   24.03    1.55
  -1  -6   3   24.16    1.04
   0   6  -3    2.33    0.91
   0   6  -3   -0.38    2.42
   0   6  -3    3.07    0.36
   0   6  -3    2.85    0.57
   0   6  -3    2.41    0.55
   0  -6   3    2.14    1.21
   0  -6   3    3.07    0.41
   0  -6   3    2.79    0.33
   0  -6   3    2.47    1.45
   0  -6   3    2.38    0.40
   0  -6   3    2.83    0.22
  -1   6  -3    2.90    1.10
  -1   6  -3    3.21    0.48
  -1   6  -3    0.43    2.09
   1  -6   3    4.28    1.59
   1  -6   3    3.63    0.37
   1  -6   3    3.23    0.47
   1  -6   3    4.24    1.34
  -2   6  -3    2.89    0.37
  -2   6  -3    3.11    0.45
  -2   6  -3    0.11    3.64
   2  -6   3    2.66    0.32
   2  -6   3    3.17    0.42
  -3   6  -3   -1.20    0.96
  -3   6  -3    0.32    0.16
  -3   6  -3    0.19    0.09
   3  -6   3    0.19    0.09
   3  -6   3   -0.03    0.09
  -4   6  -3   16.93    1.01
  -4   6  -3   13.59    1.10
   4  -6   3   15.37    1.03
   4  -6   3   16.03    0.89
  -5   6  -3    0.09    0.05
   5  -6   3    0.14    0.09
   4   5  -3    0.36    0.12
   4   5  -3    0.33    0.18
  -4  -5   3    0.19    0.09
  -4  -5   3    0.08    0.04
   3   5  -3    0.88    0.26
   3   5  -3    0.95    0.31
  -3  -5   3    1.67    0.56
  -3  -5   3    2.58    1.58
  -3  -5   3    0.78    0.23
  -3  -5   3    0.79    0.20
   2   5  -3   -0.02    2.62
   2   5  -3    1.70    1.15
   2   5  -3    1.27    0.37
   2   5  -3    1.75    0.40
  -2  -5   3    1.63    0.47
  -2  -5   3    1.71    0.20
  -2  -5   3    1.54    0.19
  -2  -5   3    1.60    0.24
  -2  -5   3    1.54    1.07
   1   5  -3   14.06    1.15
   1   5  -3   16.38    1.01
  -1  -5   3   14.99    0.85
  -1  -5   3   15.17    0.68
  -1  -5   3   16.29    1.10
  -1  -5   3   16.68    0.72
  -1  -5   3   13.21    2.00
   0   5  -3    5.34    2.40
   0   5  -3    7.23    0.59
   0   5  -3    7.79    0.73
   0   5  -3    7.56    0.77
   0   5  -3    4.98    2.19
   0   5  -3    7.73    0.51
   0  -5   3    7.33    1.51
   0  -5   3    7.78    0.39
   0  -5   3    6.99    0.62
   0  -5   3    8.68    1.39
  -1   5  -3   11.60    0.86
  -1   5  -3   10.74    1.67
   1  -5   3   10.51    0.77
   1  -5   3   12.15    0.69
   1  -5   3   10.15    1.46
  -2   5  -3   -1.48    2.43
   2  -5   3    0.26    0.15
  -3   5  -3    0.66    0.27
  -3   5  -3   -0.04    0.51
  -3   5  -3    0.63    0.09
  -3   5  -3    0.71    0.21
   3  -5   3    0.64    0.20
   3  -5   3    0.80    0.20
  -4   5  -3    0.43    0.17
  -4   5  -3    0.50    1.18
  -4   5  -3    0.33    0.15
  -4   5  -3    0.42    0.08
   4  -5   3    0.47    0.12
   4  -5   3    0.28    0.16
  -5   5  -3    0.59    0.07
  -5   5  -3    0.50    0.19
   5  -5   3    0.84    0.14
   5  -5   3    0.63    0.19
   5   4  -3    0.07    0.11
  -5  -4   3    0.08    0.06
   4   4  -3    0.21    0.23
   4   4  -3    0.07    0.12
  -4  -4   3    0.03    0.04
  -4  -4   3    0.00    0.06
   3   4  -3    1.36    0.38
   3   4  -3    2.46    1.74
   3   4  -3    1.15    0.31
  -3  -4   3    1.35    0.17
  -3  -4   3    1.37    0.28
  -3  -4   3    1.44    0.33
  -3  -4   3   -0.70    1.59
   2   4  -3    5.10    0.62
   2   4  -3    0.82    3.83
   2   4  -3    5.29    0.53
  -2  -4   3    5.67    0.37
  -2  -4   3    5.48    0.51
  -2  -4   3    6.06    2.18
  -2  -4   3    6.05    0.36
  -2  -4   3    4.97    0.36
  -2  -4   3    7.24    1.31
  -2  -4   3    5.07    0.55
   1   4  -3    2.82    0.74
   1   4  -3    2.66    0.33
   1   4  -3    2.58    0.39
  -1  -4   3    2.62    0.39
  -1  -4   3    2.96    0.21
   0   4  -3   22.99    2.72
   0   4  -3   16.06    2.52
   0   4  -3   17.97    0.95
   0  -4   3   15.85    1.83
   0  -4   3   17.96    1.77
   0  -4   3   18.52    0.86
  -1   4  -3   22.02    2.59
  -1   4  -3   13.77    1.71
   1  -4   3   18.20    2.08
   1  -4   3   16.72    0.85
   1  -4   3   18.18    1.77
  -2   4  -3    5.67    0.54
  -2   4  -3    5.36    0.31
  -2   4  -3    4.54    1.32
  -2   4  -3    5.83    0.53
   2  -4   3    6.69    0.46
   2  -4   3    6.55    1.39
   2  -4   3    6.37    0.53
  -3   4  -3    1.18    0.86
  -3   4  -3    0.14    0.13
  -3   4  -3    0.47    0.21
   3  -4   3    0.41    0.13
  -4   4  -3    0.30    0.07
  -4   4  -3    0.47    0.21
  -4   4  -3   -1.12    1.17
   4  -4   3    0.58    0.15
   4  -4   3    0.21    0.17
  -5   4  -3    0.57    0.20
  -5   4  -3    0.59    0.08
   5  -4   3    0.87    0.17
   5   3  -3    0.37    0.27
   5   3  -3    0.99    0.24
  -5  -3   3    0.58    0.09
  -5  -3   3    0.50    0.15
  -4  -3   3    2.98    1.65
   3   3  -3    7.21    0.72
   3   3  -3    5.39    1.34
   3   3  -3    6.79    0.61
  -3  -3   3    7.34    0.61
  -3  -3   3    7.57    0.67
  -3  -3   3    6.65    0.45
   2   3  -3    2.78    0.72
   2   3  -3    4.32    0.48
   2   3  -3    4.53    0.42
  -2  -3   3    3.89    0.83
  -2  -3   3    3.71    0.42
  -2  -3   3    3.62    1.33
  -2  -3   3    4.03    0.29
  -2  -3   3    4.17    0.42
   1   3  -3    2.34    0.85
   1   3  -3    1.89    0.47
  -1  -3   3    1.18    0.45
   0   3  -3    1.02    0.48
   0  -3   3    0.32    0.45
   0  -3   3    0.52    0.26
   0  -3   3    0.74    0.14
  -1   3  -3   59.01    3.51
  -1   3  -3   58.04    3.97
   1  -3   3   56.77    2.54
   1  -3   3   54.70    3.53
  -2   3  -3    3.37    1.05
  -2   3  -3    2.55    1.07
   2  -3   3    2.56    0.32
   2  -3   3    1.92    0.64
   2  -3   3    3.40    0.30
  -3   3  -3    1.90    0.16
  -3   3  -3    1.81    0.82
  -3   3  -3    1.27    0.27
  -3   3  -3    1.85    0.34
   3  -3   3    1.85    0.28
   3  -3   3    4.04    1.22
   3  -3   3    2.31    0.27
  -4   3  -3    7.95    0.40
  -4   3  -3    5.14    1.86
  -4   3  -3    8.35    0.84
  -4   3  -3    6.05    0.60
   4  -3   3    7.63    0.58
   4  -3   3    7.63    0.67
  -5   3  -3    0.35    0.14
  -5   3  -3    0.29    0.07
   5  -3   3    0.58    0.16
   5  -3   3    0.16    0.24
   5   2  -3    0.38    0.24
  -5  -2   3    0.42    0.15
  -5  -2   3    0.24    0.08
   4   2  -3    0.18    0.17
   4   2  -3   -0.08    0.18
  -4  -2   3    0.27    0.10
  -4  -2   3    0.35    1.13
  -4  -2   3    0.37    0.20
   3   2  -3    4.24    0.41
   3   2  -3    2.33    0.83
   3   2  -3    3.77    0.44
  -3  -2   3    3.71    0.46
  -3  -2   3    2.96    0.42
  -3  -2   3    3.44    0.30
   2   2  -3   20.44    1.66
   2   2  -3   18.24    1.92
   2   2  -3   18.34    1.02
  -2  -2   3   20.16    1.82
  -2  -2   3   19.97    2.75
   1   2  -3   65.68    3.11
   1   2  -3   66.25    2.60
   1   2  -3   63.13    3.69
   1   2  -3   59.23    3.57
  -1  -2   3   79.19    5.34
  -1  -2   3   70.53    3.73
   0   2  -3    5.60    0.43
   0   2  -3    6.51    0.78
   0   2  -3    5.51    0.87
   0  -2   3    5.94    0.69
   0  -2   3    6.24    0.76
   0  -2   3    5.90    0.68
   0  -2   3    5.94    0.37
   0  -2   3    6.82    0.89
   0  -2   3    4.88    0.70
  -1   2  -3   33.34    2.51
  -1   2  -3   32.25    1.86
  -1   2  -3   32.49    2.55
  -1   2  -3   32.09    2.24
   1  -2   3   36.20    2.32
   1  -2   3   30.71    1.39
   1  -2   3   37.06    2.78
  -2   2  -3   11.09    1.51
   2  -2   3    9.40    0.63
   2  -2   3   10.37    1.18
  -3   2  -3   16.95    1.14
  -3   2  -3   16.26    0.74
   3  -2   3   18.55    1.05
   3  -2   3   19.68    0.97
  -4   2  -3    1.43    1.13
  -4   2  -3    0.35    0.17
   4  -2   3    1.56    1.93
   4  -2   3    0.75    0.25
   4  -2   3    0.64    0.21
  -5   2  -3    0.24    0.13
   5  -2   3    0.16    0.21
   5  -2   3   -0.05    0.13
   5   1  -3    1.37    0.35
   4   1  -3    0.35    0.21
   4   1  -3   -1.22    1.55
  -4  -1   3   -0.97    0.76
  -4  -1   3    0.18    0.08
  -4  -1   3    0.21    0.15
   3   1  -3   19.98    1.03
   3   1  -3   19.78    1.94
  -3  -1   3   19.64    0.90
  -3  -1   3   20.88    2.74
  -3  -1   3   19.62    1.19
   2   1  -3   50.86    3.05
   2   1  -3   48.77    1.85
   2   1  -3   51.57    2.61
   2   1  -3   43.23    2.71
  -2  -1   3   54.32    4.41
   1   1  -3  656.30   22.29
  -1  -1   3  544.34   22.43
  -1  -1   3  687.59   22.21
   0   1  -3  139.52    5.27
   0   1  -3  132.66    6.19
   0   1  -3  132.10    5.69
   0  -1   3  146.53    5.71
   0  -1   3  121.84    5.18
   0  -1   3  139.83    5.19
  -1   1  -3   51.83    2.85
  -1   1  -3   54.94    2.02
   1  -1   3   52.05    2.00
   1  -1   3   49.06    2.68
   1  -1   3   51.23    2.95
  -2   1  -3   17.77    2.01
  -2   1  -3   14.71    2.04
  -2   1  -3   16.32    1.79
  -2   1  -3   16.98    1.32
   2  -1   3   17.70    1.65
   2  -1   3   17.34    0.87
   2  -1   3   15.68    1.51
  -3   1  -3   10.69    1.45
   3  -1   3   10.95    1.43
   3  -1   3    9.98    0.72
  -4   1  -3    7.72    0.58
  -4   1  -3    7.79    0.45
  -4   1  -3    8.25    0.75
   4  -1   3    7.37    0.68
   4  -1   3    9.16    2.45
   4  -1   3    8.48    0.63
  -5   1  -3    3.15    0.40
  -5   1  -3    2.49    0.28
  -5   1  -3    2.94    0.22
   5  -1   3    3.30    0.36
   5  -1   3    2.47    0.42
  -5   0   3    1.19    0.20
  -5   0   3    1.40    0.17
   4   0  -3    0.16    0.22
   4   0  -3   -1.32    1.50
  -4   0   3   -0.02    0.09
  -4   0   3   -0.19    0.15
  -4   0   3    0.09    0.05
   3   0  -3    1.24    0.36
  -3   0   3    1.26    0.65
  -3   0   3    0.49    0.59
  -3   0   3    0.86    0.17
   2   0  -3    0.00    0.18
   2   0  -3    0.29    0.33
  -2   0   3   -0.01    0.26
  -2   0   3    0.03    0.28
  -2   0   3   -0.03    0.22
   1   0  -3  230.04    8.54
   1   0  -3  235.85    8.57
  -1   0   3  236.92    9.52
  -1   0   3  257.68    8.43
  -1   0   3  248.62    9.40
  -1   0   3  219.64    8.98
   0   0  -3   43.81    2.68
   0   0   3   60.66    2.53
   0   0   3   50.16    2.36
   0   0   3   51.59    2.66
   0   0   3   46.47    1.91
  -1   0  -3   28.48    1.91
  -1   0  -3   27.51    1.15
  -1   0  -3   27.98    1.59
   1   0   3   28.69    2.10
   1   0   3   25.43    1.53
  -2   0  -3    4.76    0.86
  -2   0  -3    5.00    0.95
  -2   0  -3    5.67    1.29
   2   0   3    6.26    0.46
   2   0   3    6.10    0.74
  -3   0  -3   16.12    0.74
  -3   0  -3   13.65    2.28
  -3   0  -3   18.12    2.17
  -3   0  -3   16.41    0.92
   3   0   3   18.31    2.33
   3   0   3   17.61    0.93
   3   0   3   16.96    1.02
   3   0   3   15.89    1.53
  -4   0  -3    1.65    1.70
   4   0   3    0.21    0.13
   4   0   3    1.28    1.50
   4   0   3    0.20    0.16
  -5   0  -3    0.12    0.05
   5   0   3    0.30    0.19
   5   0   3   -0.04    0.15
  -5   1   3    0.12    0.14
  -5   1   3    0.14    0.14
  -5   1   3    0.01    0.04
   4  -1  -3    0.18    1.71
  -4   1   3    0.75    0.17
  -4   1   3    0.75    1.09
  -4   1   3    0.13    0.14
  -4   1   3    0.54    0.21
  -4   1   3    0.37    0.11
   3  -1  -3    9.97    1.37
   3  -1  -3   11.93    1.54
   3  -1  -3   10.62    1.44
  -3   1   3    9.89    1.67
  -3   1   3    8.29    1.69
  -3   1   3    9.97    0.52
  -3   1   3    9.46    0.75
  -3   1   3    9.94    0.74
   2  -1  -3    3.52    0.80
   2  -1  -3    2.85    0.65
  -2   1   3    3.58    1.02
  -2   1   3    4.65    1.20
  -2   1   3    3.14    1.03
   1  -1  -3  146.23    5.62
   1  -1  -3  128.39    6.48
  -1   1   3  146.79    5.76
  -1   1   3  149.89    6.13
  -1   1   3  161.94    6.98
  -1   1   3  153.11    6.42
   0  -1  -3   82.38    3.79
   0  -1  -3   80.40    3.62
   0  -1  -3   73.58    3.19
   0   1   3   71.83    3.80
   0   1   3   82.47    3.14
   0   1   3   75.34    3.74
   0   1   3   70.96    3.25
  -1  -1  -3   53.54    2.49
  -1  -1  -3   53.49    2.60
  -1  -1  -3   54.06    3.30
   1   1   3   50.89    2.75
   1   1   3   52.10    2.96
   1   1   3   51.19    3.26
   1   1   3   52.10    2.11
  -2  -1  -3   15.22    1.81
  -2  -1  -3   12.68    1.35
  -2  -1  -3   14.16    1.84
   2   1   3   13.01    1.66
   2   1   3   14.05    1.36
   2   1   3   12.46    2.48
  -3  -1  -3    8.89    0.67
  -3  -1  -3    9.95    0.68
  -3  -1  -3    9.64    0.51
   3   1   3    8.37    1.63
   3   1   3    9.86    0.68
   3   1   3    9.95    0.79
  -4  -1  -3   23.35    3.22
  -4  -1  -3   21.27    1.28
  -4  -1  -3   22.84    1.23
  -4  -1  -3   23.38    1.00
   4   1   3   20.39    1.42
   4   1   3   22.99    1.30
  -5  -1  -3    4.36    0.28
  -5  -1  -3    4.52    0.38
   5   1   3    4.37    0.44
  -5   2   3    3.43    0.39
  -5   2   3    3.64    0.24
   4  -2  -3    6.19    3.00
  -4   2   3    0.64    0.13
  -4   2   3    0.46    0.19
  -4   2   3    0.67    0.26
  -4   2   3    0.73    0.20
  -4   2   3    0.98    1.16
   3  -2  -3    6.27    1.14
  -3   2   3    4.70    0.30
  -3   2   3    4.64    0.50
  -3   2   3    3.01    1.17
  -3   2   3    4.27    0.47
   2  -2  -3    4.45    0.82
  -2   2   3    4.88    1.03
  -2   2   3    4.22    0.99
   1  -2  -3   97.07    4.22
   1  -2  -3   99.81    3.54
   1  -2  -3  103.99    4.96
  -1   2   3  100.90    5.25
  -1   2   3  107.52    4.63
  -1   2   3   94.55    4.68
  -1   2   3  101.37    4.80
   0  -2  -3    0.34    0.26
   0   2   3    0.02    0.18
  -1  -2  -3   64.25    4.22
  -1  -2  -3   69.63    3.44
  -1  -2  -3   65.64    3.64
   1   2   3   61.32    4.12
  -2  -2  -3    0.44    0.39
  -2  -2  -3    0.38    0.53
  -2  -2  -3   -0.71    0.54
   2   2   3   -0.07    0.30
   2   2   3    0.13    0.09
   2   2   3    0.13    0.12
  -3  -2  -3    1.89    0.27
  -3  -2  -3    1.99    0.31
  -3  -2  -3    4.02    1.53
  -3  -2  -3    1.67    0.19
   3   2   3    1.91    0.38
   3   2   3    2.00    0.32
  -4  -2  -3    3.98    0.29
  -4  -2  -3    2.74    0.34
  -4  -2  -3    3.69    0.42
   4   2   3    3.22    0.47
   4   2   3    3.78    0.54
  -5  -2  -3    0.06    0.04
  -5  -2  -3   -0.01    0.03
   5   2   3   -0.04    0.09
   5   2   3    0.12    0.15
  -5   3   3    0.43    0.08
  -5   3   3    0.28    0.13
   4  -3  -3    3.85    3.95
   4  -3  -3    1.78    0.24
  -4   3   3    1.69    0.27
  -4   3   3    1.40    0.14
  -4   3   3    0.90    0.25
   3  -3  -3    2.75    1.35
   3  -3  -3    1.69    0.19
  -3   3   3    0.46    0.87
  -3   3   3    1.56    0.25
  -3   3   3    1.16    0.14
  -3   3   3    1.20    0.32
   2  -3  -3    6.44    0.42
   2  -3  -3    7.82    1.09
  -2   3   3    7.07    1.07
  -2   3   3    5.12    1.44
   1  -3  -3    1.75    0.20
   1  -3  -3    2.73    0.58
  -1   3   3    1.92    0.68
  -1   3   3    1.74    0.59
  -1   3   3    1.68    0.66
   0  -3  -3   26.86    1.23
   0  -3  -3   25.91    2.12
   0   3   3   27.35    1.32
   0   3   3   27.80    2.03
   0   3   3   26.23    2.55
  -1  -3  -3   60.01    4.50
  -1  -3  -3   51.20    4.22
  -1  -3  -3   54.20    3.09
  -1  -3  -3   56.12    3.48
   1   3   3   55.15    4.36
   1   3   3   57.45    2.50
   1   3   3   57.83    3.54
  -2  -3  -3    5.24    0.51
  -2  -3  -3    4.49    0.33
  -2  -3  -3    7.74    1.60
  -2  -3  -3    5.36    0.37
  -2  -3  -3    5.02    0.44
   2   3   3    5.15    0.48
   2   3   3    5.23    0.60
   2   3   3    7.75    1.75
  -3  -3  -3    1.04    0.30
  -3  -3  -3    0.70    0.22
  -3  -3  -3    1.71    1.09
  -3  -3  -3    0.68    0.14
   3   3   3    0.61    0.24
   3   3   3   -0.34    0.84
   3   3   3    0.52    0.21
  -4  -3  -3   -0.02    0.13
  -4  -3  -3    0.32    0.12
  -4  -3  -3    0.18    0.06
   4   3   3    0.34    0.13
   4   3   3    0.29    0.16
   5   3   3    0.58    0.26
   5   3   3    0.44    0.13
  -5   4   3    1.09    0.19
  -5   4   3    0.94    0.25
   4  -4  -3    0.03    0.14
   4  -4  -3    0.04    0.15
  -4   4   3    0.26    0.12
  -4   4   3    0.09    0.06
  -4   4   3    0.19    0.14
  -4   4   3    0.37    0.85
   3  -4  -3    7.38    2.48
   3  -4  -3    4.61    1.27
   3  -4  -3    4.77    0.42
   3  -4  -3    6.25    0.41
  -3   4   3    5.24    0.58
  -3   4   3    4.99    0.63
   2  -4  -3   18.18    0.84
   2  -4  -3   17.22    0.91
   2  -4  -3   17.09    2.60
  -2   4   3   16.42    1.00
  -2   4   3   14.99    2.44
  -2   4   3   15.41    0.97
   1  -4  -3    1.11    0.16
   1  -4  -3    1.26    0.60
   1  -4  -3    1.13    0.20
  -1   4   3    0.99    0.56
  -1   4   3    0.36    0.64
   0  -4  -3    9.35    1.33
   0  -4  -3    8.42    0.55
   0  -4  -3    8.89    0.65
   0   4   3    9.66    1.32
   0   4   3    9.23    1.85
   0   4   3    9.81    0.72
   0   4   3   10.71    2.01
  -1  -4  -3    5.39    1.18
  -1  -4  -3    3.82    0.36
  -1  -4  -3    3.86    0.25
  -1  -4  -3    5.77    1.79
  -1  -4  -3    3.69    0.44
  -1  -4  -3    3.64    1.07
  -1  -4  -3    3.77    0.25
   1   4   3    3.22    1.03
   1   4   3    3.35    1.77
   1   4   3    4.02    0.54
   1   4   3    3.51    0.48
  -2  -4  -3    0.08    0.05
  -2  -4  -3    0.69    0.74
  -2  -4  -3    0.18    0.08
  -2  -4  -3   -0.02    0.12
   2   4   3    0.15    0.78
   2   4   3    0.23    0.17
  -3  -4  -3    2.73    0.25
  -3  -4  -3    3.12    0.44
  -3  -4  -3    3.39    0.39
  -3  -4  -3    1.57    1.40
   3   4   3    3.44    1.26
   3   4   3    3.88    0.58
   3   4   3    2.94    0.43
  -4  -4  -3    3.18    0.42
  -4  -4  -3    2.48    0.20
   4   4   3    2.43    0.43
   4   4   3    2.23    0.33
  -5   5   3    0.20    0.13
  -5   5   3    0.28    0.10
   4  -5  -3    0.86    0.20
   4  -5  -3    0.63    0.21
  -4   5   3    0.63    0.28
  -4   5   3    0.48    0.16
   3  -5  -3    0.13    0.07
   3  -5  -3    0.11    0.10
  -3   5   3    0.13    0.11
   2  -5  -3    3.44    1.16
   2  -5  -3    3.03    0.37
   2  -5  -3    3.22    0.31
  -2   5   3    2.82    1.26
  -2   5   3    2.89    0.39
  -2   5   3    3.12    0.37
  -2   5   3    2.83    0.39
   1  -5  -3    0.33    0.15
   1  -5  -3    0.18    0.09
   1  -5  -3    1.10    0.99
   1  -5  -3    0.18    0.06
   1  -5  -3   -0.06    0.46
  -1   5   3    0.18    0.12
  -1   5   3    0.07    0.58
  -1   5   3    0.31    0.24
   0  -5  -3    6.91    0.50
   0  -5  -3    6.36    0.34
   0  -5  -3    6.86    1.39
   0  -5  -3    6.50    0.59
   0   5   3    7.70    1.01
   0   5   3    6.11    0.66
   0   5   3    5.51    0.49
  -1  -5  -3    0.84    1.29
  -1  -5  -3   -0.17    0.39
  -1  -5  -3    0.41    0.19
  -1  -5  -3    0.71    0.14
  -1  -5  -3    0.92    0.20
  -1  -5  -3    0.46    0.17
  -1  -5  -3    0.38    0.57
  -1  -5  -3    0.52    0.10
   1   5   3   -2.32    2.51
   1   5   3    0.67    0.22
   1   5   3    0.13    0.49
  -2  -5  -3   -0.62    0.99
  -2  -5  -3    0.54    0.14
  -2  -5  -3    1.03    0.12
  -2  -5  -3    0.84    0.34
   2   5   3    0.60    0.30
   2   5   3    1.55    1.17
   2   5   3    0.51    0.16
  -3  -5  -3    2.42    0.33
  -3  -5  -3    3.08    2.13
  -3  -5  -3    2.93    0.40
  -3  -5  -3    2.35    0.21
   3   5   3    2.22    0.38
   3   5   3    1.86    0.47
  -4  -5  -3    0.61    0.09
   4   5   3    0.77    0.20
   4   5   3    0.49    0.23
   4   5   3    0.68    1.89
  -5   6   3    0.32    0.13
  -5   6   3    0.38    0.15
   4  -6  -3    1.39    0.20
   4  -6  -3    1.29    0.25
  -4   6   3    1.46    0.26
  -4   6   3    1.66    0.42
   3  -6  -3    3.09    0.53
   3  -6  -3    2.91    0.32
  -3   6   3    2.75    0.44
  -3   6   3    3.49    0.44
  -3   6   3    4.41    1.77
  -3   6   3    3.10    0.40
   2  -6  -3    9.09    0.65
   2  -6  -3   10.16    2.18
   2  -6  -3    8.72    0.42
   2  -6  -3    9.15    0.78
  -2   6   3    5.81    2.40
  -2   6   3    8.93    0.74
  -2   6   3    7.66    0.65
  -2   6   3    8.42    0.80
   1  -6  -3    0.18    0.06
   1  -6  -3    0.15    0.09
   1  -6  -3    0.45    0.87
   1  -6  -3    0.23    0.14
  -1   6   3    0.01    0.12
  -1   6   3    0.26    0.20
   0  -6  -3    9.55    0.84
   0  -6  -3    9.46    0.70
   0  -6  -3    9.09    0.48
   0  -6  -3   10.53    2.07
   0   6   3    9.40    0.91
   0   6   3   13.42    2.19
  -1  -6  -3    5.94    0.65
  -1  -6  -3    7.03    2.30
  -1  -6  -3    5.88    0.38
  -1  -6  -3    5.99    0.38
   1   6   3    5.10    0.67
   1   6   3    5.87    0.83
  -2  -6  -3    3.80    2.31
  -2  -6  -3    0.78    0.33
  -2  -6  -3    0.63    0.16
   2   6   3    0.55    0.29
   2   6   3    0.70    0.23
  -3  -6  -3    4.03    0.45
  -3  -6  -3    3.48    0.34
   3   6   3    3.35    0.44
   3   6   3    3.62    0.54
   4  -7  -3    0.03    0.11
   4  -7  -3    0.08    0.07
  -4   7   3   -0.04    0.06
  -4   7   3   -0.01    0.07
   3  -7  -3    0.10    0.07
   3  -7  -3    0.07    0.09
   3  -7  -3    0.10    0.04
  -3   7   3   -0.02    0.07
  -3   7   3    0.02    0.05
  -3   7   3   -0.04    0.23
   2  -7  -3    0.81    0.25
   2  -7  -3    1.12    0.21
  -2   7   3    1.66    0.46
  -2   7   3    1.12    0.31
  -2   7   3    0.67    1.42
   1  -7  -3    0.17    0.13
   1  -7  -3    0.48    0.95
   1  -7  -3    1.09    0.52
  -1   7   3    0.05    0.13
  -1   7   3    0.36    0.14
  -1   7   3    0.39    0.20
   0  -7  -3    0.04    0.10
   0  -7  -3    0.14    0.26
   0  -7  -3    0.01    0.04
   0  -7  -3    0.07    0.04
   0  -7  -3    0.16    0.26
   0   7   3    0.18    0.66
   0   7   3   -1.11    1.77
   0   7   3    0.57    0.29
   0   7   3    0.27    0.12
  -1  -7  -3    2.10    0.39
  -1  -7  -3   -0.07    1.31
  -1  -7  -3    1.43    0.17
   1   7   3    1.34    1.23
   1   7   3    2.66    0.82
   1   7   3    0.77    0.38
   2   7   3   -0.42    0.53
   2   7   3    0.78    1.64
  -3  -7  -3    0.22    0.11
   3   7   3   -0.16    0.14
   3   7   3   -0.15    1.87
   3  -8  -3    0.48    0.18
   3  -8  -3    0.51    0.15
  -3   8   3    0.73    0.21
  -3   8   3    0.88    0.15
   2  -8  -3    0.18    0.05
   2  -8  -3    0.46    0.15
   2  -8  -3    0.24    0.10
  -2   8   3    0.24    0.13
  -2   8   3    0.35    0.15
  -2   8   3    0.31    0.24
   1  -8  -3    0.87    0.68
   1  -8  -3    0.13    0.12
   1  -8  -3    0.05    0.03
   1  -8  -3    0.05    0.19
  -1   8   3   -0.07    0.13
  -1   8   3    0.14    0.09
   0  -8  -3    1.22    0.15
   0  -8  -3    2.32    0.48
   0  -8  -3    1.44    0.16
   0   8   3   -0.83    2.06
   0   8   3    1.61    0.46
  -1  -8  -3    0.94    0.13
   1   8   3    0.40    1.56
   1   8   3    2.02    0.68
   2  -9  -3    0.21    0.10
   2  -9  -3    0.23    0.06
  -2   9   3    0.15    0.18
  -2   9   3    0.21    0.08
   1  -9  -3    0.27    0.06
   1  -9  -3    0.50    0.09
  -1   9   3    0.53    0.25
   0  -9  -3    0.67    0.13
   0  -9  -3    1.51    0.46
   0   9   3    1.15    0.38
  -1  -9  -3    0.15    0.14
   1   9   3    1.12    0.35
   1   9  -4    0.14    0.60
   0   9  -4   -0.16    0.21
   0  -9   4   -0.01    0.05
   0  -9   4   -0.02    0.04
   0  -9   4    0.25    0.23
  -1   9  -4    0.19    0.18
   1  -9   4   -0.02    0.45
   1  -9   4   -0.02    0.03
   1  -9   4    0.02    0.02
  -2   9  -4    0.20    0.16
  -2   9  -4    0.03    0.06
   2  -9   4    0.16    0.11
  -3   9  -4   -0.05    0.07
   3  -9   4    0.11    0.04
   3  -9   4    0.24    0.10
   2   8  -4    0.33    0.27
  -2  -8   4    1.33    0.34
   1   8  -4    0.08    0.90
  -1  -8   4    0.84    0.17
  -1  -8   4    0.94    0.14
  -1  -8   4    0.76    0.25
   0   8  -4    0.80    0.29
   0  -8   4    0.46    0.22
  -1   8  -4    0.59    0.27
  -1   8  -4    1.18    5.45
   1  -8   4    0.24    0.26
   1  -8   4    0.28    0.14
  -2   8  -4    3.06    0.47
   2  -8   4    2.88    0.22
   2  -8   4    2.70    0.42
  -3   8  -4   -0.04    0.07
  -3   8  -4    0.30    0.11
   3  -8   4   -0.08    0.07
   3  -8   4   -0.01    0.02
  -4   8  -4    0.10    0.09
  -4   8  -4   -0.13    0.06
   4  -8   4    0.02    0.07
   3   7  -4    1.01    0.24
   3   7  -4    0.90    0.43
  -3  -7   4    0.97    0.12
  -3  -7   4    0.80    0.23
  -3  -7   4    0.79    0.12
   2   7  -4    0.83    2.31
  -2  -7   4    0.39    0.17
  -2  -7   4    0.19    0.10
  -2  -7   4    0.12    0.06
   1   7  -4    2.43    0.57
   1   7  -4    3.78    1.18
   1   7  -4    2.69    0.36
   1   7  -4    1.83    2.72
  -1  -7   4    3.05    0.48
  -1  -7   4    2.48    0.25
   0   7  -4   -1.45    2.82
   0   7  -4    0.33    0.20
   0   7  -4    1.87    1.11
   0  -7   4    0.22    0.07
   0  -7   4    0.07    0.18
   0  -7   4    0.05    0.16
  -1   7  -4    1.57    1.00
  -1   7  -4    0.01    2.33
  -1   7  -4    0.35    0.24
   1  -7   4    0.19    0.07
   1  -7   4   -0.06    0.14
   1  -7   4    0.24    0.11
  -2   7  -4    1.89    0.35
  -2   7  -4    2.20    1.34
  -2   7  -4    1.78    0.25
   2  -7   4    1.24    0.53
  -3   7  -4    0.40    0.23
  -3   7  -4    0.29    0.13
   3  -7   4    0.47    0.19
   3  -7   4    0.28    0.11
  -4   7  -4    4.49    0.42
  -4   7  -4    3.29    0.37
   4  -7   4    3.68    0.42
   4  -7   4    3.77    0.34
   4   6  -4    1.13    0.17
  -4  -6   4    1.45    0.12
  -4  -6   4    0.94    0.12
   3   6  -4    3.03    0.53
   3   6  -4    2.91    0.39
  -3  -6   4    3.22    0.42
  -3  -6   4    2.75    0.31
  -3  -6   4    3.24    0.25
   2   6  -4    8.12    0.80
   2   6  -4    1.69    3.50
   2   6  -4    9.40    0.99
  -2  -6   4   10.46    0.50
  -2  -6   4   10.16    0.57
  -2  -6   4    8.92    0.63
  -2  -6   4   10.92    0.94
   1   6  -4   14.89    1.20
   1   6  -4   14.56    1.23
   1   6  -4   14.57    1.05
  -1  -6   4   16.39    2.75
  -1  -6   4   18.67    2.57
  -1  -6   4   14.80    0.72
  -1  -6   4   15.98    0.70
  -1  -6   4   13.76    1.12
   0   6  -4    2.39    0.33
   0   6  -4    2.47    0.55
   0  -6   4    2.42    0.42
   0  -6   4    2.19    1.28
   0  -6   4    2.50    0.30
   0  -6   4    2.50    0.21
  -1   6  -4    0.16    1.62
   1  -6   4    0.15    0.13
   1  -6   4    0.74    0.29
   1  -6   4   -0.03    1.29
   1  -6   4    0.01    0.05
  -2   6  -4    2.30    0.40
  -2   6  -4    3.74    1.61
  -2   6  -4   -0.78    3.46
  -2   6  -4    2.89    0.36
   2  -6   4    2.68    0.38
   2  -6   4    2.15    0.56
  -3   6  -4   -0.27    0.96
  -3   6  -4    0.59    0.18
  -3   6  -4    1.21    0.33
   3  -6   4    0.52    0.18
   3  -6   4    0.61    0.16
  -4   6  -4    0.02    0.10
  -4   6  -4    0.08    0.10
   4  -6   4    0.21    0.13
   4  -6   4    0.13    0.10
   5  -6   4    0.35    0.10
   4   5  -4   -0.25    0.16
   4   5  -4    0.27    0.12
  -4  -5   4    0.01    0.08
  -4  -5   4    0.00    0.03
   3   5  -4    2.16    0.36
   3   5  -4    2.31    0.43
  -3  -5   4    2.51    0.26
  -3  -5   4    2.69    0.39
  -3  -5   4    0.71    1.75
  -3  -5   4    2.50    0.33
   2   5  -4    1.20    2.27
   2   5  -4    0.31    0.15
   2   5  -4    0.71    0.24
  -2  -5   4    0.32    0.08
  -2  -5   4    0.23    0.13
  -2  -5   4    0.19    0.09
  -2  -5   4    0.82    0.32
  -2  -5   4   -0.76    0.91
  -2  -5   4    0.31    0.14
   1   5  -4    2.68    0.35
   1   5  -4   -1.08    2.95
   1   5  -4    3.64    0.39
   1   5  -4    2.25    0.44
  -1  -5   4    2.70    1.08
  -1  -5   4    2.77    0.23
  -1  -5   4    2.67    0.22
  -1  -5   4    2.92    0.40
  -1  -5   4    2.71    0.33
   0   5  -4   20.85    1.35
   0   5  -4   23.79    1.45
   0   5  -4   24.40    1.26
   0   5  -4   23.93    1.09
   0   5  -4   22.15    4.90
   0   5  -4   21.83    2.29
   0  -5   4   22.10    1.45
   0  -5   4   24.54    1.33
   0  -5   4   27.66    2.71
   0  -5   4   24.89    0.97
   0  -5   4   27.95    2.47
   0  -5   4   26.97    1.62
  -1   5  -4   13.82    0.74
  -1   5  -4   12.28    1.82
  -1   5  -4   12.91    0.95
   1  -5   4   13.09    1.96
   1  -5   4   13.59    0.91
   1  -5   4   12.40    1.35
   1  -5   4   14.90    0.80
  -2   5  -4    0.44    0.19
  -2   5  -4   -2.07    2.52
  -2   5  -4   -0.67    0.59
   2  -5   4    0.41    0.18
   2  -5   4    0.63    1.05
  -3   5  -4    1.62    0.38
  -3   5  -4    1.78    0.15
  -3   5  -4    1.59    0.32
   3  -5   4    2.00    0.34
  -4   5  -4    4.60    2.41
  -4   5  -4    2.82    0.35
  -4   5  -4    4.03    0.56
  -4   5  -4    2.45    0.18
   4  -5   4    2.91    0.32
   4  -5   4    2.49    0.39
  -5   5  -4    0.22    0.16
  -5   5  -4    0.18    0.04
   5  -5   4    0.49    0.18
   5  -5   4    0.41    0.14
   5   4  -4    0.10    0.17
   5   4  -4    0.38    1.70
  -5  -4   4    0.06    0.04
  -5  -4   4    0.02    0.02
   4   4  -4    1.81    0.29
   4   4  -4    1.69    0.41
  -4  -4   4    2.35    0.40
  -4  -4   4    1.73    0.20
   3   4  -4    0.13    0.14
   3   4  -4    0.22    0.12
  -3  -4   4    0.15    0.18
  -3  -4   4    0.27    0.13
  -3  -4   4    0.12    0.04
   2   4  -4    9.04    0.85
   2   4  -4    9.03    0.71
  -2  -4   4    8.61    0.73
  -2  -4   4   11.00    1.54
  -2  -4   4    8.65    0.68
  -2  -4   4    8.27    1.97
   1   4  -4    5.70    0.51
   1   4  -4    7.22    1.86
   1   4  -4    6.09    0.61
  -1  -4   4    4.64    0.30
  -1  -4   4    5.18    0.56
  -1  -4   4    5.15    1.48
   0   4  -4   15.13    1.01
   0   4  -4   15.02    2.36
   0   4  -4   15.19    1.56
   0   4  -4   18.93    2.54
   0   4  -4   15.29    0.87
   0  -4   4   15.09    1.56
   0  -4   4   16.37    0.78
   0  -4   4   12.75    1.64
  -1   4  -4   -0.68    0.68
  -1   4  -4    0.18    0.38
   1  -4   4    0.22    0.10
   1  -4   4    0.74    0.50
  -2   4  -4    3.25    0.45
  -2   4  -4    3.86    1.28
  -2   4  -4    4.29    0.23
  -2   4  -4    4.33    0.46
  -2   4  -4    4.73    0.48
   2  -4   4    4.63    0.46
   2  -4   4    3.31    1.19
   2  -4   4    5.02    0.39
  -3   4  -4   19.43    1.09
  -3   4  -4   19.35    2.91
  -3   4  -4   19.37    1.28
  -3   4  -4   19.67    0.79
   3  -4   4   20.06    1.18
   3  -4   4   19.14    1.03
   3  -4   4   19.07    3.23
  -4   4  -4    6.46    2.30
  -4   4  -4    7.73    0.64
  -4   4  -4    9.58    0.89
  -4   4  -4    8.35    0.41
   4  -4   4    8.42    0.71
   4  -4   4    7.61    0.58
  -5   4  -4    0.05    0.11
  -5   4  -4    0.18    0.05
   5  -4   4   -0.08    0.15
   5   3  -4    0.57    0.17
   5   3  -4    0.80    0.28
   4   3  -4    0.31    0.20
  -4  -3   4    0.23    0.09
  -4  -3   4   -0.92    0.98
  -4  -3   4    0.38    0.21
   3   3  -4    0.83    0.24
   3   3  -4    0.60    0.23
  -3  -3   4    0.76    0.17
  -3  -3   4    0.70    0.19
  -3  -3   4    0.82    0.27
   2   3  -4    0.86    0.54
   2   3  -4    0.58    0.18
  -2  -3   4    1.06    0.60
   1   3  -4    2.45    0.72
   1   3  -4    1.37    0.59
   1   3  -4    2.49    0.92
   1   3  -4    1.68    0.22
  -1  -3   4    1.44    0.78
  -1  -3   4    2.51    0.80
   0   3  -4   44.42    1.95
   0   3  -4   45.54    3.39
   0   3  -4   39.60    2.47
   0   3  -4   45.56    1.82
   0  -3   4   45.88    3.26
   0  -3   4   43.80    2.64
   0  -3   4   43.56    1.79
   0  -3   4   41.86    2.71
  -1   3  -4   62.05    4.35
  -1   3  -4   60.93    3.60
   1  -3   4   60.88    3.77
   1  -3   4   62.83    4.42
   1  -3   4   65.14    2.36
  -2   3  -4    2.43    1.06
   2  -3   4    1.40    0.19
   2  -3   4    1.22    0.58
  -3   3  -4   12.12    0.94
  -3   3  -4   10.48    0.72
  -3   3  -4   14.12    2.36
  -3   3  -4   11.81    0.53
   3  -3   4   11.88    0.86
   3  -3   4   12.23    0.74
   3  -3   4   12.74    2.13
  -4   3  -4   18.05    2.97
  -4   3  -4   17.55    0.74
  -4   3  -4   16.47    1.25
   4  -3   4   17.05    0.98
   4  -3   4   16.56    1.11
  -5   3  -4    6.33    0.68
  -5   3  -4    5.99    0.32
   5  -3   4    4.97    0.75
   5  -3   4    6.29    0.48
   5   2  -4    0.54    0.29
   5   2  -4    0.78    0.26
  -5  -2   4    0.57    0.18
  -5  -2   4    0.40    0.10
   4   2  -4    2.44    0.35
   4   2  -4    2.54    0.31
  -4  -2   4    3.63    1.77
  -4  -2   4    2.27    0.37
  -4  -2   4    1.80    0.23
   3   2  -4   12.04    1.50
   3   2  -4   13.02    0.79
   3   2  -4   12.01    0.88
  -3  -2   4   14.13    1.70
  -3  -2   4   12.93    0.95
  -3  -2   4   13.57    0.69
   2   2  -4   17.11    0.93
   2   2  -4   14.49    1.36
   2   2  -4   15.72    1.70
  -2  -2   4   17.36    1.88
  -2  -2   4   20.81    3.40
   1   2  -4   32.65    1.82
   1   2  -4   34.28    2.45
   1   2  -4   28.66    1.33
  -1  -2   4   27.70    2.53
  -1  -2   4   24.20    2.09
   0   2  -4    8.24    1.05
   0   2  -4    9.45    0.59
   0   2  -4    9.06    1.20
   0   2  -4   10.64    0.82
   0  -2   4    8.62    0.89
   0  -2   4    8.69    0.87
   0  -2   4    8.85    0.87
   0  -2   4    9.19    1.10
   0  -2   4   10.05    0.53
  -1   2  -4    0.73    0.44
  -1   2  -4    0.47    0.26
  -1   2  -4    0.51    0.28
   1  -2   4    0.39    0.30
   1  -2   4    0.62    0.30
   1  -2   4    0.81    0.16
  -2   2  -4    4.69    1.26
  -2   2  -4    4.54    1.04
   2  -2   4    4.91    0.95
   2  -2   4    5.65    0.99
  -3   2  -4    1.31    0.23
  -3   2  -4    1.20    0.31
  -3   2  -4    1.03    0.12
  -3   2  -4    1.06    0.63
   3  -2   4    1.21    0.28
   3  -2   4    1.47    0.29
  -4   2  -4    0.25    0.19
   4  -2   4    0.05    0.23
   4  -2   4    0.10    0.16
  -5   2  -4    0.15    0.14
   5  -2   4    0.17    0.14
   5   1  -4    1.68    0.41
  -5  -1   4    1.51    0.18
  -5  -1   4    1.54    0.26
   4   1  -4    0.60    0.20
  -4  -1   4   -0.44    0.93
  -4  -1   4    0.53    0.15
  -4  -1   4    0.36    0.20
   3   1  -4   19.27    1.01
   3   1  -4   21.24    1.90
  -3  -1   4   20.85    0.94
  -3  -1   4   19.58    2.12
  -3  -1   4   20.03    2.87
  -3  -1   4   21.18    1.26
   2   1  -4    0.64    0.26
   2   1  -4    0.06    0.32
   2   1  -4    0.53    0.25
  -2  -1   4    0.05    0.22
   1   1  -4    2.68    0.33
   1   1  -4    3.21    0.35
   1   1  -4    3.11    0.61
  -1  -1   4    2.39    0.54
  -1  -1   4    2.78    0.50
   0   1  -4   33.67    1.51
   0   1  -4   34.48    1.92
   0   1  -4   36.34    2.35
   0  -1   4   37.69    1.88
   0  -1   4   40.52    2.39
   0  -1   4   34.28    1.84
  -1   1  -4   86.51    4.65
  -1   1  -4   88.63    3.30
  -1   1  -4   78.44    4.22
   1  -1   4   91.43    4.67
   1  -1   4   91.22    4.23
  -2   1  -4    0.53    0.46
  -2   1  -4    0.35    0.37
  -2   1  -4    0.53    0.32
  -2   1  -4    0.65    0.25
   2  -1   4    0.76    0.19
  -3   1  -4    2.65    0.32
  -3   1  -4    2.02    1.23
  -3   1  -4    2.83    1.10
  -3   1  -4    2.61    0.21
   3  -1   4    3.40    0.96
   3  -1   4    3.07    0.37
   3  -1   4    3.74    0.34
  -4   1  -4   -0.02    0.09
  -4   1  -4    0.02    0.03
  -4   1  -4    0.11    0.13
   4  -1   4   -1.59    1.31
   4  -1   4    0.38    0.17
   4  -1   4    0.27    0.16
  -5   1  -4    6.54    0.60
  -5   1  -4    6.96    0.38
   5  -1   4    6.95    0.66
   5  -1   4    6.57    0.56
  -5   0   4    0.09    0.06
  -5   0   4    0.20    0.12
   4   0  -4    1.09    1.57
  -4   0   4   -0.01    0.13
  -4   0   4   -0.92    0.82
  -4   0   4   -0.05    0.11
  -4   0   4   -0.09    0.04
  -4   0   4   -0.24    0.18
   3   0  -4    7.94    1.20
  -3   0   4    6.00    1.36
  -3   0   4    7.41    0.43
  -3   0   4    6.82    1.48
  -3   0   4    6.30    0.61
   2   0  -4   35.85    2.18
   2   0  -4   35.11    2.24
  -2   0   4   39.10    3.11
   1   0  -4   34.52    1.51
   1   0  -4   35.46    1.95
  -1   0   4   35.60    1.95
  -1   0   4   41.62    2.77
  -1   0   4   38.89    2.63
  -1   0   4   34.86    1.85
   0   0  -4   42.32    2.53
   0   0  -4   35.41    1.95
   0   0   4   40.01    2.25
   0   0   4   43.20    2.56
   0   0   4   41.27    1.65
  -1   0  -4    1.08    0.40
  -1   0  -4    0.93    0.24
  -1   0  -4    1.07    0.43
   1   0   4    1.02    0.28
   1   0   4    0.43    0.33
  -2   0  -4   23.95    2.24
  -2   0  -4   22.56    2.10
  -2   0  -4   23.30    1.95
   2   0   4   22.84    1.14
   2   0   4   20.63    2.21
   2   0   4   20.35    1.59
   2   0   4   21.13    2.22
  -3   0  -4   22.55    1.25
  -3   0  -4   24.85    1.05
  -3   0  -4   27.25    2.66
  -3   0  -4   24.69    1.24
   3   0   4   28.00    1.32
   3   0   4   27.87    1.46
   3   0   4   26.07    2.14
  -4   0  -4   11.82    0.62
  -4   0  -4   12.95    0.80
  -4   0  -4   11.94    0.94
   4   0   4   13.74    0.92
   4   0   4   11.94    3.07
   4   0   4   12.79    1.00
  -5   0  -4    0.63    0.24
  -5   0  -4    0.86    0.11
  -5   0  -4    0.93    0.19
   5   0   4    0.71    0.24
   5   0   4    0.86    0.23
  -5   1   4    0.53    0.17
  -5   1   4    0.84    0.12
  -5   1   4    0.58    0.20
  -4   1   4    0.01    0.12
  -4   1   4    0.05    0.12
  -4   1   4    0.30    0.13
  -4   1   4    0.04    0.06
   3  -1  -4   10.61    2.16
   3  -1  -4    9.14    1.73
   3  -1  -4   12.35    1.55
  -3   1   4    9.21    1.69
  -3   1   4   11.09    0.55
  -3   1   4   10.72    0.80
  -3   1   4   11.24    1.84
  -3   1   4   10.10    0.74
  -3   1   4    9.82    0.65
  -3   1   4   11.46    1.87
  -2   1   4    0.02    0.24
  -2   1   4    0.07    0.29
   1  -1  -4  900.93   30.47
  -1   1   4  797.24   31.15
  -1   1   4 1000.00   32.73
  -1   1   4  881.76   31.22
   0  -1  -4   28.19    1.59
   0  -1  -4   27.31    1.14
   0  -1  -4   27.47    1.92
   0  -1  -4   26.55    1.98
   0   1   4   27.32    1.74
   0   1   4   27.41    1.43
   0   1   4   28.74    2.10
  -1  -1  -4   74.47    4.33
  -1  -1  -4   75.88    3.36
  -1  -1  -4   70.69    3.53
   1   1   4   74.34    3.88
   1   1   4   73.20    4.38
   1   1   4   77.32    2.92
   1   1   4   75.40    3.92
  -2  -1  -4    6.02    1.16
  -2  -1  -4    8.38    1.53
  -2  -1  -4    6.51    1.03
   2   1   4    7.44    0.59
   2   1   4    9.10    1.50
   2   1   4    6.94    0.50
   2   1   4    6.16    1.21
  -3  -1  -4    0.74    0.92
   3   1   4    1.55    0.74
  -4  -1  -4   10.38    0.75
  -4  -1  -4   10.97    0.58
  -4  -1  -4   10.89    0.82
   4   1   4   11.07    0.96
   4   1   4   10.98    0.82
  -5  -1  -4   -0.03    0.04
  -5  -1  -4    0.05    0.03
   5   1   4   -0.04    0.13
   5   1   4    0.14    0.13
  -5   2   4    0.30    0.14
  -5   2   4   -0.32    0.28
  -5   2   4    0.16    0.05
  -4   2   4    2.28    0.36
  -4   2   4    1.81    0.18
  -4   2   4    2.12    0.43
  -4   2   4    0.90    1.00
  -4   2   4    1.49    0.26
   3  -2  -4    1.38    0.89
   3  -2  -4    1.41    0.98
  -3   2   4    0.93    0.30
  -3   2   4    0.94    0.73
  -3   2   4    0.96    0.26
  -3   2   4    1.07    0.26
  -3   2   4    1.02    0.16
   2  -2  -4   14.00    1.64
  -2   2   4   15.25    2.11
   1  -2  -4   67.74    2.45
   1  -2  -4   67.60    3.92
   1  -2  -4   70.24    3.63
   1  -2  -4   61.73    2.96
  -1   2   4   62.47    3.54
  -1   2   4   74.42    3.87
  -1   2   4   68.64    4.44
   0  -2  -4   57.37    3.11
   0  -2  -4   55.69    3.66
   0  -2  -4   61.46    3.38
   0  -2  -4   62.57    2.33
   0   2   4   57.25    3.08
   0   2   4   63.53    3.86
   0   2   4   64.29    2.98
  -1  -2  -4   51.09    3.83
  -1  -2  -4   51.78    2.92
  -1  -2  -4   55.56    2.18
   1   2   4   50.31    3.03
   1   2   4   52.06    3.84
  -2  -2  -4   13.94    0.79
  -2  -2  -4   15.07    1.99
  -2  -2  -4   12.62    1.49
   2   2   4   16.93    2.28
   2   2   4   13.70    0.84
   2   2   4   14.69    0.99
  -3  -2  -4    6.82    0.42
  -3  -2  -4    7.42    0.58
  -3  -2  -4    7.07    0.62
  -3  -2  -4    9.12    2.39
   3   2   4    6.30    1.55
   3   2   4    7.21    0.76
   3   2   4    7.70    0.64
  -4  -2  -4   -0.01    0.02
  -4  -2  -4   -0.73    1.71
  -4  -2  -4   -0.11    0.14
  -4  -2  -4    0.04    0.06
   4   2   4    0.34    0.19
   4   2   4    0.00    0.09
  -5  -2  -4    0.55    0.14
   5   2   4    0.50    0.16
   5   2   4    0.74    0.23
  -5   3   4   -0.01    0.05
  -5   3   4    0.00    0.07
   4  -3  -4   -0.04    0.14
  -4   3   4    0.96    1.15
   3  -3  -4    2.46    0.89
   3  -3  -4    1.14    0.17
   3  -3  -4    1.95    1.09
  -3   3   4    1.41    0.33
  -3   3   4    0.76    0.20
  -3   3   4    0.72    0.13
  -3   3   4    1.43    0.95
   2  -3  -4   10.79    0.57
  -2   3   4    9.37    1.69
  -2   3   4   10.11    1.36
  -2   3   4    9.43    1.70
   1  -3  -4   16.26    1.71
   1  -3  -4   15.02    0.78
  -1   3   4   13.80    1.62
  -1   3   4   14.85    1.88
  -1   3   4   15.59    1.73
  -1   3   4   16.43    1.91
   0  -3  -4    3.94    0.80
   0  -3  -4    5.36    1.15
   0   3   4    2.63    0.87
   0   3   4    4.45    0.76
   0   3   4    4.45    0.42
  -1  -3  -4   54.54    4.50
  -1  -3  -4   53.09    2.13
  -1  -3  -4   51.33    3.10
  -1  -3  -4   54.43    2.28
   1   3   4   51.16    2.39
   1   3   4   49.79    4.30
   1   3   4   55.13    2.23
  -2  -3  -4    4.18    0.37
  -2  -3  -4    4.50    1.60
  -2  -3  -4    3.56    0.26
  -2  -3  -4    3.98    0.47
  -2  -3  -4    4.01    0.29
   2   3   4    2.99    0.95
   2   3   4    3.90    0.42
   2   3   4    4.31    0.54
  -3  -3  -4    0.33    0.09
  -3  -3  -4   -0.72    1.10
  -3  -3  -4    0.62    0.27
  -3  -3  -4    0.08    0.07
   3   3   4    0.43    0.19
   3   3   4   -0.02    0.13
  -4  -3  -4    0.98    0.25
  -4  -3  -4    0.92    0.12
  -4  -3  -4    1.25    0.29
   4   3   4    0.75    0.29
   4   3   4    1.01    0.28
  -5  -3  -4    0.40    0.10
  -5  -3  -4    0.45    0.06
   5   3   4    0.84    0.25
   5   3   4    0.41    0.14
  -5   4   4    0.12    0.09
  -5   4   4    0.10    0.12
  -4   4   4    1.08    1.10
  -4   4   4    1.73    0.42
  -4   4   4    1.43    0.30
   3  -4  -4    1.08    0.18
   3  -4  -4   -2.62    2.84
   3  -4  -4    2.17    1.04
   3  -4  -4    0.89    0.21
  -3   4   4    0.38    0.86
  -3   4   4    1.21    0.29
  -3   4   4    1.35    0.32
   2  -4  -4    0.08    0.07
   2  -4  -4    0.13    0.07
  -2   4   4    0.08    0.19
  -2   4   4   -0.56    0.44
  -2   4   4   -0.05    0.07
  -2   4   4   -0.04    0.06
   1  -4  -4    0.86    0.18
   1  -4  -4    0.58    0.48
   1  -4  -4    0.71    0.20
  -1   4   4    0.50    0.48
   0  -4  -4    7.34    0.49
   0  -4  -4    6.90    0.57
   0  -4  -4    7.74    1.28
   0   4   4    6.27    1.85
   0   4   4    6.96    1.15
   0   4   4    7.37    0.62
   0   4   4    8.28    1.86
  -1  -4  -4   58.79    2.72
  -1  -4  -4   60.23    2.45
  -1  -4  -4   63.90    2.25
  -1  -4  -4   62.22    4.23
  -1  -4  -4   60.40    2.38
  -1  -4  -4   63.07    2.23
   1   4   4   62.91    2.84
   1   4   4   62.54    4.06
   1   4   4   62.10    2.60
   1   4   4   53.45    2.79
  -2  -4  -4   11.11    0.89
  -2  -4  -4   11.10    0.58
  -2  -4  -4   10.10    0.68
  -2  -4  -4   11.11    2.27
  -2  -4  -4   10.49    0.53
   2   4   4   10.38    0.83
   2   4   4   13.87    1.23
   2   4   4   11.17    1.02
   2   4   4   15.10    2.38
  -3  -4  -4    0.55    1.38
  -3  -4  -4    0.50    0.11
  -3  -4  -4    0.44    0.14
  -3  -4  -4    0.59    0.23
   3   4   4    0.39    0.14
   3   4   4    0.40    0.27
  -4  -4  -4    0.31    0.11
  -4  -4  -4    0.33    0.16
   4   4   4    0.44    0.24
   4   4   4    0.44    0.15
  -5   5   4    0.02    0.06
  -5   5   4    0.05    0.06
   4  -5  -4    2.25    0.25
   4  -5  -4    2.14    0.29
  -4   5   4    1.42    0.35
  -4   5   4    2.01    0.31
  -4   5   4   -0.67    1.45
   3  -5  -4   -1.07    1.27
   3  -5  -4    0.03    0.08
   3  -5  -4    0.24    0.09
  -3   5   4   -0.82    0.90
  -3   5   4   -0.05    0.05
  -3   5   4    0.11    0.10
   2  -5  -4    1.91    0.96
   2  -5  -4    1.79    0.29
   2  -5  -4    1.67    0.22
  -2   5   4    2.49    0.58
  -2   5   4    1.79    0.29
  -2   5   4    1.66    0.25
   1  -5  -4    4.18    0.25
   1  -5  -4    2.07    1.35
   1  -5  -4    3.85    0.37
   1  -5  -4    3.91    1.30
  -1   5   4    4.05    0.51
  -1   5   4    4.39    0.42
  -1   5   4    4.28    1.29
   0  -5  -4    1.40    0.14
   0  -5  -4    1.40    0.23
   0  -5  -4    1.25    0.65
   0  -5  -4    2.04    0.30
   0  -5  -4    1.07    0.28
   0   5   4    1.36    0.28
   0   5   4    0.79    0.59
   0   5   4   -0.35    2.18
  -1  -5  -4    0.71    0.43
  -1  -5  -4    0.87    0.13
  -1  -5  -4    1.01    0.13
  -1  -5  -4    1.13    0.26
  -1  -5  -4    0.58    0.66
  -1  -5  -4    3.94    1.65
  -1  -5  -4    1.21    0.18
  -1  -5  -4    1.76    0.52
   1   5   4    1.04    0.26
   1   5   4    0.56    0.30
   1   5   4    0.80    0.56
  -3  -5  -4    3.44    1.91
  -4  -5  -4   -0.13    0.10
  -4  -5  -4    0.18    0.08
   4   5   4   -0.80    0.64
   4   5   4    0.17    0.09
  -5   6   4    1.16    0.20
  -5   6   4    0.96    0.23
   4  -6  -4    0.03    0.08
   4  -6  -4    0.29    0.14
  -4   6   4    0.05    0.06
  -4   6   4    0.16    0.07
   3  -6  -4    0.03    0.08
   3  -6  -4    0.02    0.10
   3  -6  -4    0.15    0.05
  -3   6   4    0.06    0.05
  -3   6   4    0.50    0.33
  -3   6   4    0.26    0.13
   2  -6  -4    3.69    0.40
   2  -6  -4    4.18    0.26
   2  -6  -4    4.65    0.53
   2  -6  -4    5.44    1.80
  -2   6   4    8.26    2.55
  -2   6   4    4.88    0.47
  -2   6   4    4.26    0.49
  -2   6   4    4.73    0.57
   1  -6  -4   17.80    1.22
   1  -6  -4   20.77    2.85
   1  -6  -4   17.14    1.05
   1  -6  -4   17.84    0.77
   1  -6  -4   20.40    1.40
  -1   6   4   18.80    1.04
  -1   6   4   16.95    1.05
  -1   6   4   17.09    1.27
  -1   6   4   17.38    2.65
   0  -6  -4   12.35    0.58
   0  -6  -4   12.48    0.82
   0  -6  -4   11.99    3.56
   0  -6  -4   12.93    1.01
   0  -6  -4   12.98    2.21
   0  -6  -4   12.95    0.59
   0  -6  -4   10.84    0.94
   0  -6  -4   14.03    2.40
   0   6   4   12.86    1.10
   0   6   4   10.42    0.75
  -1  -6  -4    1.36    1.03
  -1  -6  -4    0.70    0.22
   1   6   4    0.32    0.26
   1   6   4    0.25    0.16
  -2  -6  -4    0.97    1.33
  -2  -6  -4    1.71    0.19
  -2  -6  -4    2.25    0.39
   2   6   4    1.56    0.28
   2   6   4    1.14    0.39
  -3  -6  -4    0.14    0.09
   3   6   4   -0.21    1.87
   3   6   4   -0.08    0.10
   3   6   4    0.46    0.24
   4  -7  -4    0.63    0.18
  -4   7   4    0.31    0.10
  -4   7   4    0.25    0.10
   3  -7  -4    0.06    0.07
   3  -7  -4   -0.03    0.14
  -3   7   4   -0.12    0.07
   2  -7  -4    0.19    0.10
   2  -7  -4    0.11    0.12
  -2   7   4   -0.07    0.09
  -2   7   4    0.29    0.11
  -2   7   4   -0.94    1.60
  -2   7   4    0.15    0.21
   1  -7  -4    7.63    0.67
   1  -7  -4    8.74    2.58
   1  -7  -4    9.73    0.86
   1  -7  -4    8.91    0.46
  -1   7   4    9.67    0.64
  -1   7   4    8.60    0.68
  -1   7   4    7.17    2.15
  -1   7   4   10.49    0.96
   0  -7  -4    5.13    0.65
   0  -7  -4    4.70    0.32
   0  -7  -4    4.18    0.46
   0  -7  -4    4.47    0.63
   0  -7  -4    5.15    0.34
   0   7   4    4.49    1.42
   0   7   4    5.81    0.42
   0   7   4    5.45    0.69
  -1  -7  -4    2.61    0.41
  -1  -7  -4    2.07    0.21
  -1  -7  -4   -0.28    2.38
   1   7   4    2.99    0.53
   1   7   4    2.36    1.96
  -2  -7  -4    0.49    0.23
  -2  -7  -4    0.43    0.12
   2   7   4   -0.90    0.91
  -3  -7  -4    0.08    0.10
   3   7   4    0.44    0.29
   3   7   4   -0.18    0.48
   3  -8  -4   -0.03    0.06
   3  -8  -4    0.18    0.13
  -3   8   4   -0.01    0.08
  -3   8   4   -0.03    0.06
   2  -8  -4    0.14    0.15
   2  -8  -4    0.03    0.08
   2  -8  -4    0.13    0.05
  -2   8   4    0.23    0.18
  -2   8   4    0.14    0.11
  -2   8   4   -0.04    0.11
   1  -8  -4    6.20    0.35
   1  -8  -4    5.20    0.52
   1  -8  -4    6.03    0.36
  -1   8   4    6.32    0.51
  -1   8   4    6.52    0.72
   0  -8  -4    2.71    0.49
   0  -8  -4    1.59    0.16
   0  -8  -4    1.63    0.18
   0   8   4    1.88    0.58
   0   8   4    0.71    2.56
  -1  -8  -4    0.18    0.07
  -1  -8  -4    0.44    0.21
   1   8   4   -0.53    1.30
   1   8   4    0.21    0.30
   2  -9  -4    0.09    0.03
   2  -9  -4    0.20    0.11
  -2   9   4    0.00    0.10
  -2   9   4   -0.01    0.17
   1  -9  -4    0.24    0.06
  -1   9   4    0.71    0.29
  -1   9   4    0.22    0.20
   0  -9  -4    0.86    0.39
  -1  -9  -4    2.42    0.16
  -1  -9  -4    2.89    0.40
   1   9  -5    1.20    0.51
   0   9  -5    1.60    0.33
  -1   9  -5    0.87    0.36
   1  -9   5    1.38    0.57
  -2   9  -5    0.54    0.19
  -2   9  -5    1.20    0.26
   2  -9   5    0.72    0.17
   2  -9   5    0.68    0.09
  -3   9  -5    0.10    0.08
   3  -9   5    0.15    0.11
   2   8  -5    0.64    0.24
   1   8  -5    0.09    1.32
  -1  -8   5    1.89    0.20
  -1  -8   5    1.63    0.19
  -1  -8   5    2.16    0.39
  -1  -8   5    2.23    0.18
   0   8  -5    1.09    0.37
   0   8  -5    0.02    1.98
   0  -8   5    0.46    0.09
   0  -8   5    0.41    0.25
   0  -8   5    0.29    0.08
  -1   8  -5    0.20    2.28
  -1   8  -5    1.32    0.48
   1  -8   5    0.70    0.38
   1  -8   5    0.91    0.23
   1  -8   5    1.14    0.15
  -2   8  -5    0.71    0.31
   2  -8   5    0.39    0.15
   2  -8   5    0.30    0.16
  -3   8  -5    0.52    0.14
  -3   8  -5    0.35    0.24
  -3   8  -5    0.19    0.10
   3  -8   5    0.21    0.06
   3  -8   5    0.24    0.18
   3  -8   5    0.09    0.09
  -4   8  -5    0.19    0.10
  -4   8  -5    0.31    0.12
   4  -8   5    0.11    0.04
   4  -8   5    0.12    0.08
   3   7  -5    0.65    0.53
  -3  -7   5    0.08    0.13
  -3  -7   5    0.38    0.11
   2   7  -5   -0.34    1.60
   2   7  -5    3.39    0.54
   2   7  -5    2.67    0.69
  -2  -7   5    3.22    0.26
  -2  -7   5    3.06    0.45
   1   7  -5   -0.55    0.97
   1   7  -5    0.24    0.15
   1   7  -5    1.16    2.17
   1   7  -5    0.06    0.30
  -1  -7   5    0.09    0.08
   0   7  -5    0.71    2.79
   0  -7   5    2.87    0.45
   0  -7   5    2.12    0.21
  -1   7  -5    0.76    0.93
  -1   7  -5   -2.17    1.32
  -1   7  -5    0.02    0.14
   1  -7   5   -0.03    0.16
  -2   7  -5    2.57    0.47
  -2   7  -5    2.84    3.38
  -2   7  -5    2.54    0.31
  -2   7  -5    0.56    1.19
   2  -7   5    2.94    0.48
   2  -7   5    2.31    0.34
  -3   7  -5    0.30    0.11
  -3   7  -5    0.19    0.17
   3  -7   5    0.30    0.09
   3  -7   5    0.38    0.16
  -4   7  -5    0.12    0.08
  -4   7  -5    0.21    0.10
   4  -7   5    0.03    0.06
   4   6  -5    0.03    0.10
  -4  -6   5    0.11    0.04
  -4  -6   5    0.10    0.05
   3   6  -5    0.08    0.23
   3   6  -5    0.09    0.09
  -3  -6   5   -0.10    0.10
  -3  -6   5    0.14    0.08
  -3  -6   5    0.00    0.04
   2   6  -5    1.54    0.28
   2   6  -5    1.26    2.25
   2   6  -5    1.08    0.52
  -2  -6   5    1.35    0.17
  -2  -6   5    1.41    0.20
  -2  -6   5   -0.42    1.74
  -2  -6   5    1.54    0.42
   1   6  -5    0.90    0.85
   1   6  -5   -0.22    4.02
  -1  -6   5    0.16    1.18
  -1  -6   5    1.36    1.21
   0   6  -5    0.37    0.20
   0   6  -5   -0.66    1.58
   0   6  -5   -0.49    0.34
   0   6  -5    0.58    0.23
   0   6  -5    0.75    0.66
   0  -6   5    1.37    1.65
   0  -6   5    0.45    0.23
   0  -6   5    0.26    0.07
   0  -6   5    0.64    0.27
   0  -6   5    0.10    0.11
   0  -6   5    1.76    1.23
  -1   6  -5    1.79    0.37
  -1   6  -5   -0.13    2.55
  -1   6  -5    1.27    0.95
   1  -6   5    2.04    1.68
   1  -6   5    1.92    0.26
   1  -6   5    1.91    0.35
  -2   6  -5    1.75    0.96
  -2   6  -5   -0.23    3.11
  -2   6  -5    0.38    0.12
   2  -6   5    0.11    0.11
  -3   6  -5    1.23    0.27
  -3   6  -5    0.29    0.81
  -3   6  -5    1.01    0.28
   3  -6   5    0.82    0.23
   3  -6   5    1.03    0.49
  -4   6  -5    1.58    0.27
  -4   6  -5    2.01    0.34
   4  -6   5    1.58    0.28
   4  -6   5    1.57    0.24
  -5   6  -5    0.11    0.05
   5  -6   5    0.10    0.07
   4   5  -5    0.71    0.17
   4   5  -5    0.42    0.25
  -4  -5   5    0.40    0.11
  -4  -5   5    0.66    0.16
   3   5  -5   -0.88    3.20
   3   5  -5    1.26    0.42
   3   5  -5    1.71    0.38
  -3  -5   5    1.72    0.40
  -3  -5   5    0.47    1.21
  -3  -5   5    1.21    0.22
  -3  -5   5    1.12    0.17
   2   5  -5    1.39    2.99
   2   5  -5    1.89    0.59
   2   5  -5    2.14    0.42
  -2  -5   5    1.68    0.19
  -2  -5   5    1.58    0.35
  -2  -5   5    0.09    1.07
  -2  -5   5    1.34    0.19
  -2  -5   5    1.51    0.40
  -2  -5   5    0.09    1.07
   1   5  -5    0.63    0.20
   1   5  -5    0.87    0.26
   1   5  -5    0.50    0.14
   1   5  -5    0.59    0.44
   1   5  -5    0.69    2.99
  -1  -5   5    0.85    0.11
  -1  -5   5    1.21    0.38
  -1  -5   5    1.24    0.23
   0   5  -5    6.00    0.52
   0   5  -5    5.36    0.39
   0   5  -5    5.50    0.63
   0   5  -5    5.53    1.10
   0   5  -5    6.26    0.60
   0  -5   5    6.47    0.72
   0  -5   5    5.88    0.33
   0  -5   5    6.13    0.45
   0  -5   5    6.14    0.56
  -1   5  -5    0.37    2.39
  -1   5  -5    1.90    0.23
  -1   5  -5    1.92    0.33
  -1   5  -5    2.64    0.90
   1  -5   5    1.94    0.25
   1  -5   5    2.26    0.32
   1  -5   5    1.74    1.04
   1  -5   5    1.82    0.39
  -2   5  -5    4.69    1.36
  -2   5  -5    3.15    0.40
  -2   5  -5    3.37    0.42
  -2   5  -5    1.22    2.73
  -2   5  -5    3.11    0.19
   2  -5   5    3.53    1.61
   2  -5   5    3.48    0.43
   2  -5   5    3.45    0.36
  -3   5  -5    0.04    0.03
  -3   5  -5    0.18    0.13
  -3   5  -5    0.26    0.20
  -3   5  -5   -0.66    0.54
   3  -5   5    0.10    0.09
   3  -5   5    0.03    0.14
  -4   5  -5    0.01    0.11
  -4   5  -5    0.06    0.10
  -4   5  -5    0.04    0.03
  -4   5  -5   -0.27    1.03
   4  -5   5    0.17    0.08
   4  -5   5   -0.13    0.13
  -5   5  -5    0.02    0.03
  -5   5  -5    0.14    0.11
   5  -5   5   -0.08    0.07
   5  -5   5   -0.22    0.12
   5   4  -5    1.27    0.21
  -5  -4   5    1.11    0.12
   4   4  -5   -0.09    0.10
   4   4  -5    0.13    0.15
  -4  -4   5    0.07    0.11
  -4  -4   5    0.03    0.04
   3   4  -5    0.04    0.12
   3   4  -5    0.06    0.13
   3   4  -5    3.52    1.89
   3   4  -5   -3.86    2.75
  -3  -4   5    0.15    0.06
  -3  -4   5    0.25    0.18
  -3  -4   5    0.07    0.10
   2   4  -5    5.01    1.14
   2   4  -5    3.50    0.51
   2   4  -5    3.79    0.43
  -2  -4   5    3.11    0.40
  -2  -4   5    3.43    0.43
  -2  -4   5    3.82    1.41
  -2  -4   5    2.75    0.25
   1   4  -5    1.45    0.37
   1   4  -5    0.90    0.25
  -1  -4   5    1.25    0.42
  -1  -4   5    2.55    0.94
  -1  -4   5    1.35    0.75
   0   4  -5   67.31    5.32
   0   4  -5   71.28    3.09
   0   4  -5   72.98    2.90
   0   4  -5   70.05    3.99
   0  -4   5   70.24    4.19
   0  -4   5   75.13    2.75
   0  -4   5   78.33    4.17
  -1   4  -5    1.77    1.09
   1  -4   5    0.31    0.32
   1  -4   5    0.55    0.64
  -2   4  -5    0.90    0.18
  -2   4  -5    1.12    0.23
  -2   4  -5    1.02    0.29
  -2   4  -5    1.50    0.72
  -2   4  -5    0.67    0.08
   2  -4   5    0.73    0.21
   2  -4   5    0.94    0.64
   2  -4   5    0.63    0.16
  -3   4  -5    9.39    0.75
  -3   4  -5    9.47    0.88
  -3   4  -5   12.93    2.25
  -3   4  -5   10.42    0.47
   3  -4   5   10.64    0.70
   3  -4   5   10.50    0.82
  -4   4  -5    8.29    0.66
  -4   4  -5   10.32    0.47
  -4   4  -5    9.36    2.26
   4  -4   5    8.97    0.92
   4  -4   5    9.76    0.68
  -5   4  -5    0.01    0.02
  -5   4  -5    0.05    0.10
   5  -4   5    0.11    0.08
   5  -4   5   -0.06    0.13
   5   3  -5    4.41    0.41
   5   3  -5    4.08    0.49
  -5  -3   5    4.02    0.39
  -5  -3   5    4.46    0.30
   4   3  -5    2.53    0.41
   4   3  -5    2.37    0.33
  -4  -3   5    2.38    0.39
  -4  -3   5    2.27    0.26
  -4  -3   5    1.95    1.60
   3   3  -5    0.28    0.17
   3   3  -5    0.48    0.91
   3   3  -5    0.08    0.15
  -3  -3   5    0.32    0.12
  -3  -3   5    0.33    0.35
  -3  -3   5    0.59    0.22
   2   3  -5    8.79    1.25
   2   3  -5   11.10    0.83
   2   3  -5   11.11    0.71
  -2  -3   5   11.60    1.60
  -2  -3   5    9.43    2.02
  -2  -3   5    9.95    0.77
   1   3  -5   31.09    2.87
   1   3  -5   32.13    3.07
   1   3  -5   31.18    2.17
   1   3  -5   34.07    1.48
   1   3  -5   31.06    1.63
   0   3  -5    9.38    1.69
   0   3  -5   10.33    0.73
   0   3  -5   11.52    1.42
   0   3  -5   11.30    1.07
   0   3  -5   11.31    1.41
   0  -3   5   11.12    1.17
   0  -3   5    7.98    1.70
   0  -3   5    9.90    0.62
   0  -3   5   10.13    1.14
  -1   3  -5    7.21    1.42
  -1   3  -5    7.79    1.11
  -1   3  -5    8.28    1.56
   1  -3   5    9.19    0.60
   1  -3   5    7.84    1.15
   1  -3   5    9.64    1.36
  -2   3  -5    4.46    1.70
   2  -3   5    6.39    1.17
   2  -3   5    5.63    1.12
   2  -3   5    5.66    0.53
   2  -3   5    5.91    0.44
  -3   3  -5    0.50    0.20
  -3   3  -5    0.52    0.17
  -3   3  -5    0.55    0.08
  -3   3  -5    0.19    0.53
   3  -3   5    0.75    0.24
  -4   3  -5    0.09    0.08
  -4   3  -5    0.06    0.04
  -4   3  -5   -0.77    0.61
   4  -3   5   -0.11    0.12
   4  -3   5   -0.19    0.10
  -5   3  -5    0.51    0.20
  -5   3  -5    0.54    0.08
   5   2  -5    0.42    0.22
   5   2  -5    0.27    0.27
   4   2  -5   -0.01    0.19
   4   2  -5   -0.12    0.13
  -4  -2   5    0.04    0.05
  -4  -2   5   -0.37    1.03
  -4  -2   5    0.15    0.13
   3   2  -5    1.23    0.74
   3   2  -5    0.83    0.29
   3   2  -5    1.30    0.31
  -3  -2   5    0.75    0.25
  -3  -2   5    1.52    0.99
  -3  -2   5   -0.24    0.72
  -3  -2   5    0.21    0.38
  -3  -2   5    0.79    0.16
  -3  -2   5    0.97    0.16
   2   2  -5   31.94    1.45
   2   2  -5   33.22    2.11
   2   2  -5   32.73    1.53
  -2  -2   5   35.09    2.85
   1   2  -5   -0.12    0.29
   1   2  -5    0.06    0.10
   1   2  -5    0.32    0.17
   1   2  -5    0.07    0.16
  -1  -2   5    0.19    0.27
   0   2  -5   15.99    1.80
   0   2  -5   17.12    1.47
   0   2  -5   17.37    0.91
   0  -2   5   13.79    1.23
   0  -2   5   17.96    1.39
   0  -2   5   18.53    0.82
   0  -2   5   17.42    1.70
   0  -2   5   16.42    1.30
  -1   2  -5    5.63    0.84
  -1   2  -5    7.70    1.22
  -1   2  -5    4.87    1.15
  -1   2  -5    5.61    0.70
   1  -2   5    6.90    1.02
   1  -2   5    5.77    0.44
   1  -2   5    5.05    0.93
  -2   2  -5   24.04    2.94
  -2   2  -5   22.66    1.43
  -2   2  -5   26.66    2.58
   2  -2   5   26.38    1.29
   2  -2   5   22.86    2.35
   2  -2   5   25.34    1.16
   2  -2   5   22.40    2.12
  -3   2  -5    0.28    0.06
  -3   2  -5    0.56    0.20
  -3   2  -5    0.71    0.61
   3  -2   5    0.54    0.15
   3  -2   5   -0.53    0.72
   3  -2   5    0.33    0.14
  -4   2  -5    1.95    0.47
  -4   2  -5    1.91    0.18
   4  -2   5    6.67    2.68
   4  -2   5    2.00    0.36
   4  -2   5    2.37    0.30
  -5   2  -5   -0.03    0.13
  -5   2  -5    0.14    0.04
   5  -2   5    0.21    0.19
   5  -2   5    0.20    0.15
  -5  -1   5    0.78    0.12
  -5  -1   5    0.48    0.17
   4   1  -5    2.70    0.35
  -4  -1   5    5.17    1.64
  -4  -1   5    2.57    0.40
  -4  -1   5    3.06    0.30
   3   1  -5    2.94    0.83
   3   1  -5    1.88    0.27
  -3  -1   5    1.54    0.21
  -3  -1   5    2.21    0.94
  -3  -1   5    1.81    0.31
  -3  -1   5    2.08    0.22
   2   1  -5   56.31    2.77
   2   1  -5   60.28    2.88
   2   1  -5   52.90    2.09
   2   1  -5   56.05    2.91
  -2  -1   5   46.90    3.63
  -2  -1   5   61.41    4.59
   1   1  -5   94.87    3.89
   1   1  -5   90.48    3.41
   1   1  -5   97.70    3.69
   1   1  -5   93.16    4.54
  -1  -1   5   91.35    5.12
  -1  -1   5   96.26    4.37
  -1  -1   5   95.76    5.00
  -1  -1   5   96.69    4.12
   0   1  -5   19.45    1.40
   0   1  -5   19.83    0.92
   0   1  -5   19.65    1.76
   0   1  -5   18.72    0.96
   0  -1   5   18.90    1.28
   0  -1   5   17.66    1.25
   0  -1   5   18.03    1.26
   0  -1   5   22.74    1.88
  -1   1  -5   17.70    0.90
  -1   1  -5   16.95    1.41
  -1   1  -5   18.18    1.67
  -1   1  -5   19.67    1.99
   1  -1   5   20.49    1.98
   1  -1   5   17.72    1.59
   1  -1   5   18.58    0.93
  -2   1  -5  101.10    5.94
  -2   1  -5   99.89    6.01
  -2   1  -5   89.68    5.31
   2  -1   5   97.82    3.71
   2  -1   5   97.42    4.87
   2  -1   5   88.02    5.45
  -3   1  -5    8.67    0.62
  -3   1  -5    7.87    1.31
  -3   1  -5    7.09    1.58
  -3   1  -5    9.86    0.61
   3  -1   5    7.91    1.48
   3  -1   5    8.98    0.73
   3  -1   5    9.21    1.94
   3  -1   5   10.37    0.67
  -4   1  -5    0.48    0.11
  -4   1  -5    0.72    0.24
  -4   1  -5    0.57    0.20
   4  -1   5   -1.67    1.75
   4  -1   5    0.52    0.21
   4  -1   5    0.70    0.22
  -5   1  -5    1.57    0.15
  -5   1  -5    1.56    0.28
   5  -1   5    1.94    0.32
   5  -1   5    1.89    0.28
  -5   0   5    0.22    0.10
   4   0  -5    1.46    0.32
  -4   0   5    1.23    0.33
  -4   0   5    0.92    0.91
  -4   0   5    1.30    0.21
  -4   0   5    1.49    0.33
  -4   0   5    1.74    0.21
  -4   0   5    0.91    0.91
   3   0  -5    0.98    0.50
   3   0  -5    1.12    0.63
  -3   0   5    1.42    0.35
  -3   0   5    1.97    0.91
  -3   0   5    0.92    0.20
  -3   0   5    0.85    0.65
  -3   0   5    0.86    0.14
  -2   0   5    0.07    0.26
  -2   0   5   -0.25    0.23
   1   0  -5  104.24    5.43
  -1   0   5  115.89    5.73
  -1   0   5  114.93    4.58
  -1   0   5  124.03    5.91
  -1   0   5  103.01    5.77
   0   0  -5   45.26    2.38
   0   0  -5   43.65    1.72
   0   0  -5   42.52    2.80
   0   0   5   40.30    2.46
   0   0   5   46.06    2.93
   0   0   5   43.64    1.81
  -1   0  -5   29.35    1.55
  -1   0  -5   24.23    2.28
  -1   0  -5   25.47    1.88
   1   0   5   25.90    1.75
   1   0   5   25.73    2.36
   1   0   5   26.74    1.23
  -2   0  -5    0.20    0.39
  -2   0  -5    1.25    0.48
  -2   0  -5    0.35    0.25
  -2   0  -5    0.45    0.35
   2   0   5    0.43    0.15
   2   0   5    0.61    0.15
   2   0   5    0.11    0.49
   2   0   5    0.05    0.19
  -3   0  -5    0.46    0.71
  -3   0  -5    0.95    0.12
  -3   0  -5    1.01    0.22
  -3   0  -5    1.02    0.31
   3   0   5    0.83    0.24
   3   0   5    1.71    0.91
   3   0   5    0.63    0.50
  -4   0  -5    0.37    0.22
  -4   0  -5    0.29    0.10
  -4   0  -5    0.30    0.08
  -4   0  -5    0.35    0.22
   4   0   5    0.35    0.20
   4   0   5    1.91    1.89
   4   0   5    0.54    0.20
  -5   0  -5    0.31    0.08
  -5   0  -5    0.23    0.12
  -5   0  -5    0.32    0.16
   5   0   5    0.44    0.15
   5   0   5    0.16    1.56
   5   0   5    0.47    0.20
  -5   1   5    0.16    0.06
  -5   1   5    0.24    0.16
  -5   1   5   -0.07    0.16
  -4   1   5    0.76    0.17
  -4   1   5    1.18    0.32
  -4   1   5    1.01    0.25
  -4   1   5    0.87    0.16
   3  -1  -5   14.28    1.72
   3  -1  -5   15.77    2.19
   3  -1  -5   13.65    1.66
  -3   1   5   18.15    1.25
  -3   1   5   13.82    0.99
  -3   1   5   14.16    0.72
  -3   1   5   15.36    2.23
  -3   1   5   14.27    0.83
  -3   1   5   17.47    2.23
  -3   1   5   14.60    2.18
  -2   1   5    4.62    1.05
  -2   1   5    6.24    1.15
  -2   1   5    5.19    0.99
   1  -1  -5   49.35    2.78
   1  -1  -5   50.20    2.09
  -1   1   5   51.95    3.01
  -1   1   5   56.22    2.82
  -1   1   5   60.17    3.79
  -1   1   5   59.63    3.74
   0  -1  -5    2.48    0.73
   0  -1  -5    1.95    0.67
   0  -1  -5    1.37    0.42
   0   1   5    1.68    0.40
   0   1   5    1.62    0.57
   0   1   5    1.64    0.29
  -1  -1  -5    7.25    0.91
  -1  -1  -5    8.88    1.36
  -1  -1  -5    8.30    0.84
   1   1   5    7.55    0.57
   1   1   5    9.23    1.40
   1   1   5    8.44    0.59
  -2  -1  -5    3.60    0.83
  -2  -1  -5    2.30    1.01
   2   1   5    2.98    0.97
   2   1   5    3.11    0.38
   2   1   5    3.10    0.32
   2   1   5    2.24    0.83
  -3  -1  -5    3.07    0.25
  -3  -1  -5    3.47    0.42
  -3  -1  -5    3.95    0.37
  -3  -1  -5    5.09    1.63
   3   1   5    3.69    0.40
   3   1   5    4.53    1.45
   3   1   5    3.59    0.50
  -4  -1  -5   21.72    0.91
  -4  -1  -5   18.82    1.03
  -4  -1  -5   21.04    1.11
  -4  -1  -5   19.50    1.24
   4   1   5   19.42    1.20
   4   1   5   21.03    1.43
  -5  -1  -5    1.00    0.16
  -5  -1  -5    0.75    0.10
   5   1   5    1.07    0.19
   5   1   5    1.12    0.31
  -5   2   5    2.39    0.17
  -5   2   5    2.44    0.30
  -5   2   5    1.63    0.30
  -5   2   5    2.13    0.33
  -4   2   5    1.44    0.17
  -4   2   5    1.74    0.30
  -4   2   5    1.81    0.38
  -4   2   5    1.69    0.28
   3  -2  -5   20.84    2.30
   3  -2  -5   18.67    2.44
  -3   2   5   20.87    2.81
  -3   2   5   18.59    0.81
  -3   2   5   20.02    1.19
  -3   2   5   17.39    1.00
  -3   2   5   20.77    2.61
  -3   2   5   17.06    1.09
   2  -2  -5   15.14    0.65
  -2   2   5   17.60    1.93
  -2   2   5   18.73    2.60
   1  -2  -5   25.00    2.06
   1  -2  -5   25.63    2.32
   1  -2  -5   26.42    1.09
  -1   2   5   27.02    2.48
  -1   2   5   25.73    2.20
   0  -2  -5   95.06    3.49
   0  -2  -5   93.52    4.78
   0  -2  -5   90.11    5.25
   0   2   5   96.12    5.39
   0   2   5   98.64    4.20
   0   2   5   94.00    3.53
   0   2   5   89.30    4.40
  -1  -2  -5   13.19    1.36
  -1  -2  -5   13.58    1.32
  -1  -2  -5   11.74    1.81
  -1  -2  -5   14.51    0.83
   1   2   5   12.23    1.87
   1   2   5   13.41    1.40
  -2  -2  -5    7.72    1.40
  -2  -2  -5    6.80    0.48
  -2  -2  -5    6.70    0.38
  -2  -2  -5    7.27    2.47
  -2  -2  -5    7.65    1.44
  -2  -2  -5    6.43    0.60
   2   2   5    5.25    2.29
   2   2   5    7.04    0.66
   2   2   5    7.02    0.56
  -3  -2  -5   14.13    0.88
  -3  -2  -5   15.96    2.41
  -3  -2  -5   17.35    1.23
  -3  -2  -5   14.76    0.70
   3   2   5   14.38    1.17
   3   2   5   15.02    1.00
   3   2   5   15.20    2.23
  -4  -2  -5    4.48    0.52
  -4  -2  -5    5.01    0.58
   4   2   5    4.63    0.51
   4   2   5    4.77    0.62
  -5  -2  -5    1.82    0.14
  -5  -2  -5    1.84    0.21
   5   2   5    1.62    0.31
   5   2   5    1.55    0.24
  -5   3   5    0.13    0.08
  -5   3   5   -0.04    0.05
  -5   3   5   -0.02    0.09
  -4   3   5    0.23    0.12
  -4   3   5    0.21    0.13
  -4   3   5    0.39    0.07
   3  -3  -5    3.08    1.58
   3  -3  -5    2.89    0.97
   3  -3  -5    1.93    0.22
  -3   3   5    2.54    0.33
  -3   3   5    1.67    1.17
  -3   3   5    2.76    0.61
  -3   3   5    2.12    0.32
   2  -3  -5   20.66    2.22
   2  -3  -5   20.22    0.95
  -2   3   5   22.10    2.49
  -2   3   5   21.42    3.38
  -2   3   5   19.98    1.12
  -2   3   5   22.78    1.97
  -2   3   5   19.65    1.07
   1  -3  -5   24.87    1.06
   1  -3  -5   24.93    1.15
  -1   3   5   26.91    2.64
  -1   3   5   26.79    2.29
  -1   3   5   22.42    2.42
   0  -3  -5    1.82    0.60
   0  -3  -5    2.85    0.88
   0   3   5    2.26    0.81
   0   3   5    2.58    0.31
  -1  -3  -5   -0.14    0.08
  -1  -3  -5    0.04    0.38
  -1  -3  -5    0.04    0.11
  -1  -3  -5   -0.44    0.87
   1   3   5    0.12    0.13
   1   3   5    1.09    0.76
   1   3   5   -0.10    0.20
   1   3   5    0.01    0.10
  -2  -3  -5    5.81    0.61
  -2  -3  -5    6.24    0.48
  -2  -3  -5    6.42    0.38
  -2  -3  -5    6.82    2.25
  -2  -3  -5    5.83    0.34
   2   3   5    6.36    0.58
   2   3   5    6.12    0.67
   2   3   5    5.74    1.28
  -3  -3  -5    1.61    1.15
  -3  -3  -5    1.07    0.14
  -3  -3  -5    1.32    0.32
  -3  -3  -5    1.23    0.36
   3   3   5    0.80    0.33
   3   3   5    0.86    0.28
   3   3   5   -0.18    1.30
  -4  -3  -5    0.02    0.10
  -4  -3  -5    0.01    0.02
  -4  -3  -5   -0.02    0.06
   4   3   5    0.28    0.19
   4   3   5   -0.19    1.24
   4   3   5    0.13    0.10
  -5  -3  -5    0.20    0.04
   5   3   5    0.15    0.10
   5   3   5    0.22    0.22
  -5   4   5    0.56    0.14
  -5   4   5    0.42    0.13
   4  -4  -5    1.07    0.22
  -4   4   5    1.55    1.49
  -4   4   5    0.82    0.28
  -4   4   5    0.83    0.22
   3  -4  -5    1.54    0.20
   3  -4  -5    1.98    0.25
   3  -4  -5    3.32    1.18
  -3   4   5    1.43    0.26
  -3   4   5    1.53    0.27
  -3   4   5    0.56    0.75
   2  -4  -5    3.27    1.22
   2  -4  -5    1.03    0.18
   2  -4  -5    0.77    0.63
   2  -4  -5    1.37    0.18
  -2   4   5    1.75    0.99
  -2   4   5    1.01    0.35
  -2   4   5    1.16    0.22
  -2   4   5    1.34    0.31
   1  -4  -5   10.61    1.56
   1  -4  -5   11.14    0.62
   1  -4  -5    9.87    0.70
  -1   4   5   11.37    1.62
  -1   4   5    8.95    0.74
   0  -4  -5   12.52    1.67
   0  -4  -5   11.97    0.69
   0  -4  -5   11.66    0.78
   0   4   5   15.09    2.58
   0   4   5   11.05    2.51
   0   4   5   10.17    0.86
   0   4   5   10.23    0.78
   0   4   5   12.34    1.56
  -1  -4  -5    4.98    0.31
  -1  -4  -5    5.64    0.33
  -1  -4  -5    6.66    1.23
  -1  -4  -5    5.28    0.45
  -1  -4  -5    5.21    0.40
  -1  -4  -5    5.23    0.55
  -1  -4  -5    4.94    0.54
   1   4   5    5.55    0.67
   1   4   5    5.78    1.11
   1   4   5    5.26    0.51
   1   4   5    4.99    0.60
  -2  -4  -5    1.39    0.28
  -2  -4  -5    0.74    1.13
  -2  -4  -5    1.01    0.15
  -2  -4  -5    1.18    0.20
   2   4   5    2.10    1.10
   2   4   5    0.67    0.30
   2   4   5    1.53    0.28
  -3  -4  -5    2.30    0.21
  -3  -4  -5    0.65    1.17
  -3  -4  -5    2.46    0.37
  -3  -4  -5    2.74    0.35
   3   4   5    2.46    0.42
   3   4   5    2.79    0.50
  -4  -4  -5   10.12    0.70
  -4  -4  -5   10.61    0.67
  -4  -4  -5   11.22    0.49
   4   4   5    9.10    0.76
   4   4   5   10.56    0.94
  -5   5   5    0.57    0.17
  -5   5   5    0.57    0.12
   4  -5  -5    0.65    0.19
  -4   5   5    0.18    0.12
  -4   5   5    0.42    0.15
   3  -5  -5    2.37    1.84
   3  -5  -5    1.03    0.26
   3  -5  -5    0.89    0.20
  -3   5   5    0.74    0.23
  -3   5   5    1.08    0.96
  -3   5   5    0.60    0.20
   2  -5  -5    1.00    0.22
   2  -5  -5    1.32    0.11
   2  -5  -5    1.17    0.23
   2  -5  -5    1.54    0.73
  -2   5   5    1.80    0.44
  -2   5   5    0.70    0.23
  -2   5   5    0.97    0.84
  -2   5   5    0.97    0.25
   1  -5  -5    2.22    0.87
   1  -5  -5    2.22    0.18
   1  -5  -5    2.67    0.36
   1  -5  -5    2.64    0.30
  -1   5   5    2.73    0.39
  -1   5   5    2.95    0.33
  -1   5   5   -1.96    3.01
  -1   5   5    2.09    0.32
  -1   5   5    1.99    1.01
   0  -5  -5    0.05    0.04
   0  -5  -5   -0.02    0.04
   0  -5  -5    0.03    0.10
   0  -5  -5    0.07    0.04
   0  -5  -5    0.16    0.15
   0   5   5   -0.15    0.18
   0   5   5    1.06    2.98
   0   5   5   -0.10    0.26
   0   5   5   -0.28    0.15
   0   5   5    0.36    0.14
  -1  -5  -5    0.83    0.41
  -1  -5  -5    1.56    0.17
  -1  -5  -5    0.20    0.72
  -1  -5  -5    1.03    0.13
  -1  -5  -5    1.04    0.24
  -1  -5  -5    0.89    0.41
   1   5   5    1.03    0.26
   1   5   5    1.38    0.40
   1   5   5    1.47    1.04
   1   5   5    1.55    0.46
  -2  -5  -5    4.57    0.58
  -2  -5  -5    3.89    0.38
  -2  -5  -5    4.26    0.33
  -2  -5  -5    5.74    3.43
   2   5   5    7.40    1.84
   2   5   5    4.91    0.68
   2   5   5    3.99    0.51
  -3  -5  -5    1.85    0.27
  -3  -5  -5    2.21    0.35
  -3  -5  -5    2.11    0.16
   3   5   5    1.61    0.35
   3   5   5    0.39    1.89
   3   5   5    2.21    0.50
  -4  -5  -5    1.05    0.18
   4   5   5    1.39    0.34
   4   5   5    0.33    1.18
   4   5   5    1.71    0.24
  -5   6   5    0.04    0.04
  -5   6   5    0.10    0.06
   4  -6  -5    0.65    0.23
   4  -6  -5    0.80    0.17
  -4   6   5    0.61    0.18
  -4   6   5    0.81    0.26
   3  -6  -5    0.20    0.06
   3  -6  -5    0.16    0.08
  -3   6   5    0.06    0.09
  -3   6   5   -0.09    0.09
   2  -6  -5    0.83    1.58
   2  -6  -5    0.41    0.13
   2  -6  -5    0.20    0.07
  -2   6   5    0.09    1.16
  -2   6   5    0.34    0.15
  -2   6   5    0.41    0.21
   1  -6  -5    5.34    0.31
   1  -6  -5    5.88    1.65
   1  -6  -5    4.48    0.55
   1  -6  -5    5.17    0.51
  -1   6   5    5.65    0.51
  -1   6   5   -1.40    3.61
  -1   6   5    5.44    0.66
  -1   6   5    5.80    1.39
  -1   6   5    4.98    0.51
   0  -6  -5    2.37    0.51
   0  -6  -5    2.24    0.20
   0  -6  -5    2.70    0.33
   0  -6  -5    2.23    0.43
   0  -6  -5    2.40    0.20
   0  -6  -5    2.81    1.02
   0  -6  -5    1.84    1.01
   0   6   5    3.05    0.73
   0   6   5    3.22    1.30
  -1  -6  -5    1.14    1.17
  -1  -6  -5    0.44    0.27
  -1  -6  -5    0.30    0.09
   1   6   5    0.49    0.42
   1   6   5    0.37    0.29
   1   6   5    0.12    1.74
   1   6   5    0.26    0.18
  -2  -6  -5    0.32    0.17
  -2  -6  -5    0.01    0.03
  -2  -6  -5   -0.35    1.28
   2   6   5   -0.01    0.13
   2   6   5    0.05    0.45
   2   6   5    0.19    0.30
  -3  -6  -5    0.02    0.12
   3   6   5    0.28    0.12
   3   6   5   -0.24    0.23
   4  -7  -5    0.12    0.14
   4  -7  -5   -0.07    0.11
  -4   7   5    0.07    0.06
  -4   7   5    0.06    0.06
   3  -7  -5    0.42    0.13
   3  -7  -5    0.09    0.13
  -3   7   5    0.25    0.12
  -3   7   5    0.23    0.10
   2  -7  -5    1.38    0.13
   2  -7  -5    1.67    0.28
   2  -7  -5    1.77    0.34
  -2   7   5    1.42    0.27
  -2   7   5    1.91    0.54
  -2   7   5    1.73    0.37
   1  -7  -5    9.13    2.08
   1  -7  -5    5.61    0.33
   1  -7  -5    5.20    0.53
  -1   7   5    6.53    2.05
  -1   7   5    5.69    0.51
  -1   7   5    6.51    0.51
  -1   7   5    5.64    0.69
   0  -7  -5    1.47    0.17
   0  -7  -5    1.53    0.37
   0  -7  -5    1.30    0.32
   0  -7  -5    2.10    0.64
   0  -7  -5    0.73    1.15
   0  -7  -5    1.82    0.19
   0   7   5    2.11    0.45
   0   7   5    1.48    1.25
  -1  -7  -5    0.44    0.21
  -1  -7  -5   -0.07    1.68
   1   7   5    1.53    0.49
   1   7   5    2.45    1.45
  -2  -7  -5    1.55    0.32
  -2  -7  -5    1.38    0.15
   2   7   5    1.79    5.02
   2   7   5    0.58    0.42
  -3  -7  -5    2.03    0.26
   3   7   5    0.87    1.69
   3  -8  -5    0.16    0.13
   3  -8  -5    0.03    0.08
  -3   8   5    0.01    0.06
  -3   8   5    0.10    0.08
   2  -8  -5    0.09    0.07
   2  -8  -5    0.16    0.05
   2  -8  -5    0.37    0.17
  -2   8   5    0.02    0.09
  -2   8   5    0.25    0.23
  -2   8   5    0.35    0.13
   1  -8  -5    1.17    0.28
   1  -8  -5    1.55    0.37
   1  -8  -5    1.45    0.14
   1  -8  -5    1.49    0.16
  -1   8   5    1.73    0.53
   0  -8  -5    0.09    0.05
   0  -8  -5   -0.03    0.34
   0   8   5    0.21    2.26
   0   8   5    0.63    0.27
  -1  -8  -5   -0.03    0.04
   1   8   5   -1.13    1.17
   2  -9  -5    0.05    0.02
   2  -9  -5    0.12    0.10
  -2   9   5    0.14    0.18
  -1   9   5    0.28    0.16
   0  -9  -5    1.42    0.13
   1   9  -6    0.63    0.57
   0   9  -6    1.24    0.37
   0  -9   6    0.71    0.11
   0  -9   6    0.67    0.12
  -1   9  -6    2.91    0.45
   1  -9   6    2.31    0.16
   1  -9   6    2.02    0.22
  -2   9  -6    0.44    0.16
  -2   9  -6    0.74    0.26
   2  -9   6    0.20    0.26
   2  -9   6    0.32    0.07
  -2  -8   6    0.25    0.06
  -2  -8   6    0.04    0.11
   1   8  -6    0.89    0.47
   1   8  -6    0.05    1.16
  -1  -8   6    0.29    0.16
  -1  -8   6    0.13    0.07
  -1  -8   6    0.28    0.21
   0   8  -6    0.22    0.18
   0  -8   6    0.12    0.16
  -1   8  -6   -1.22    1.10
  -1   8  -6   -0.01    0.25
  -2   8  -6    0.26    0.23
   2  -8   6    0.24    0.07
   2  -8   6    0.26    0.11
   2  -8   6    0.24    0.22
  -3   8  -6    0.22    0.21
  -3   8  -6    0.19    0.10
   3  -8   6    0.13    0.08
   3  -8   6    0.05    0.14
   3  -8   6    0.11    0.04
   3   7  -6    0.03    0.11
   2   7  -6    1.36    0.40
   2   7  -6    0.36    1.98
   2   7  -6    2.04    0.30
  -2  -7   6    1.50    0.18
  -2  -7   6    1.59    0.33
   1   7  -6   -0.43    1.10
   1   7  -6    0.30    0.17
   1   7  -6    0.68    0.38
   1   7  -6   -0.07    2.44
  -1  -7   6    0.25    0.20
  -1  -7   6    0.34    0.11
  -1  -7   6    0.15    0.09
  -1  -7   6    2.47    1.99
   0   7  -6    1.03    3.69
   0   7  -6    2.99    0.53
   0   7  -6    3.89    1.46
   0  -7   6    2.61    2.10
  -1   7  -6    1.70    0.37
  -1   7  -6    2.85    1.53
  -1   7  -6   -1.55    4.50
   1  -7   6    1.71    0.26
   1  -7   6    1.87    0.38
   1  -7   6    1.76    0.18
  -2   7  -6    1.66    0.65
  -2   7  -6    0.17    2.00
  -2   7  -6    1.70    0.26
   2  -7   6    1.52    0.39
   2  -7   6    1.55    0.25
  -3   7  -6    7.43    0.67
  -3   7  -6    7.23    0.59
   3  -7   6    5.91    0.64
   3  -7   6    5.48    0.51
  -4   7  -6    0.19    0.10
  -4   7  -6    0.09    0.06
   4   6  -6    0.12    0.10
  -4  -6   6    0.13    0.06
  -4  -6   6    0.10    0.03
   3   6  -6    1.41    0.26
   3   6  -6    1.56    0.39
   3   6  -6    0.53    2.22
  -3  -6   6    1.13    0.35
  -3  -6   6    1.51    0.17
  -3  -6   6    1.06    0.18
   2   6  -6   13.75    1.04
   2   6  -6   13.75    1.21
  -2  -6   6   14.57    1.09
  -2  -6   6   13.73    0.74
  -2  -6   6   13.93    0.91
   1   6  -6    6.88    1.43
   1   6  -6    7.52    0.71
   1   6  -6    8.41    0.89
   1   6  -6    0.39    3.25
  -1  -6   6    7.58    2.35
  -1  -6   6    8.24    0.83
  -1  -6   6    7.71    0.46
  -1  -6   6    9.01    0.45
   0   6  -6   -0.50    0.36
   0   6  -6   -0.13    0.14
   0   6  -6    0.48    0.19
   0   6  -6    0.75    2.91
   0  -6   6    0.27    0.26
   0  -6   6    0.21    0.11
  -1   6  -6    0.87    0.29
  -1   6  -6   -0.66    0.67
  -1   6  -6    0.93    3.14
  -1   6  -6    0.48    0.13
   1  -6   6    1.02    0.34
   1  -6   6    0.69    0.18
   1  -6   6    0.49    0.25
  -2   6  -6   -0.15    3.56
  -2   6  -6    1.51    0.31
  -2   6  -6    1.41    0.25
   2  -6   6    1.32    0.24
   2  -6   6    1.24    0.32
  -3   6  -6    2.52    1.47
  -3   6  -6    3.88    0.50
  -3   6  -6    3.94    0.49
   3  -6   6    3.34    0.50
   3  -6   6    3.79    0.42
  -4   6  -6    0.16    0.12
  -4   6  -6   -0.13    0.09
   4  -6   6   -0.06    0.06
   4  -6   6    0.20    0.13
  -5   6  -6    0.06    0.04
   5  -6   6    0.28    0.08
   4   5  -6   -0.02    0.18
   4   5  -6    0.21    0.13
  -4  -5   6    0.45    0.12
  -4  -5   6    0.52    0.15
   3   5  -6    1.03    0.25
   3   5  -6    1.40    0.39
   3   5  -6    0.92    3.01
  -3  -5   6    0.77    0.22
  -3  -5   6    3.51    1.58
  -3  -5   6    1.49    0.39
  -3  -5   6    1.01    0.17
   2   5  -6    0.34    3.47
   2   5  -6    1.31    0.31
   2   5  -6    2.27    0.43
  -2  -5   6   -0.45    0.88
  -2  -5   6    2.08    0.54
   1   5  -6    5.68    0.41
   1   5  -6    5.44    0.57
   1   5  -6    6.23    0.72
   1   5  -6    7.85    0.82
   1   5  -6    1.35    2.90
  -1  -5   6    5.52    0.36
  -1  -5   6    7.76    0.74
  -1  -5   6    6.91    0.38
   0   5  -6   10.25    0.87
   0   5  -6    9.92    0.71
   0   5  -6    9.05    1.39
   0   5  -6    9.70    0.57
   0   5  -6    9.25    0.82
   0  -5   6    9.69    0.47
   0  -5   6    9.95    0.86
   0  -5   6   10.30    0.62
   0  -5   6    8.75    1.46
   0  -5   6    8.76    0.71
  -1   5  -6    4.95    0.55
  -1   5  -6    5.83    1.22
  -1   5  -6    5.38    0.41
  -1   5  -6    1.35    3.08
   1  -5   6    6.76    1.56
   1  -5   6    5.88    0.47
   1  -5   6    5.45    0.56
  -2   5  -6   -0.57    0.40
  -2   5  -6    0.18    4.23
  -2   5  -6    0.01    0.04
  -2   5  -6   -0.01    0.02
   2  -5   6    0.10    0.05
   2  -5   6    0.62    0.98
   2  -5   6    0.03    0.08
   2  -5   6   -1.23    1.66
  -3   5  -6    1.56    0.86
  -3   5  -6    0.38    0.21
  -3   5  -6    0.22    0.06
  -3   5  -6    0.60    0.24
   3  -5   6    0.36    0.12
   3  -5   6    0.29    0.17
  -4   5  -6    5.84    0.70
  -4   5  -6    6.49    2.25
  -4   5  -6    5.07    0.29
   4  -5   6    4.78    0.45
   4  -5   6    4.98    0.56
  -5   5  -6    0.48    0.06
  -5   5  -6    0.29    0.12
   5  -5   6    0.87    0.21
   4   4  -6    0.42    0.19
  -4  -4   6    0.07    0.07
   3   4  -6    0.32    0.25
   3   4  -6    2.33    3.83
   3   4  -6    0.63    0.19
  -3  -4   6    0.86    1.17
  -3  -4   6    0.22    0.21
   2   4  -6    6.64    0.60
   2   4  -6    6.87    0.73
  -2  -4   6    6.16    0.38
  -2  -4   6    8.12    2.12
  -2  -4   6    7.43    0.43
  -2  -4   6    7.17    0.62
  -2  -4   6    6.92    0.63
  -2  -4   6    5.33    1.84
   1   4  -6   -0.02    0.09
   1   4  -6    0.18    0.11
  -1  -4   6   -0.01    0.11
  -1  -4   6    0.12    0.05
  -1  -4   6   -0.02    0.50
   0   4  -6    2.57    0.31
   0   4  -6    3.07    1.48
   0   4  -6    1.92    0.34
   0   4  -6    1.61    0.52
   0  -4   6    2.57    0.25
   0  -4   6    3.52    1.15
   0  -4   6    3.77    0.76
  -1   4  -6    1.36    0.56
  -1   4  -6   -0.71    1.36
  -1   4  -6    1.59    0.25
  -1   4  -6    0.88    0.24
   1  -4   6   -0.17    0.70
   1  -4   6    1.95    0.70
  -2   4  -6    0.80    0.54
  -2   4  -6    0.41    0.16
  -2   4  -6    0.37    0.07
  -2   4  -6    0.84    0.54
  -2   4  -6    0.29    0.09
  -2   4  -6    0.57    0.19
   2  -4   6    0.75    0.72
   2  -4   6    0.45    0.15
   2  -4   6    0.56    0.14
   2  -4   6    0.55    1.51
  -3   4  -6    0.23    0.06
  -3   4  -6    0.57    0.19
  -3   4  -6    0.44    0.76
  -3   4  -6    0.46    0.23
   3  -4   6    0.32    0.14
   3  -4   6    0.48    0.17
   3  -4   6    0.31    1.63
  -4   4  -6    4.48    0.53
  -4   4  -6    6.88    1.01
  -4   4  -6    5.13    2.00
  -4   4  -6    4.21    0.34
   4  -4   6    1.75    2.51
   4  -4   6    4.82    0.54
   4  -4   6    5.08    0.46
  -5   4  -6    3.94    0.50
  -5   4  -6    2.92    0.19
   5  -4   6    3.21    0.30
   5  -4   6    3.19    0.37
   5   3  -6    1.00    0.24
   4   3  -6    0.68    0.20
   4   3  -6    1.10    0.28
  -4  -3   6    0.53    0.14
  -4  -3   6    0.85    0.27
  -4  -3   6   -0.34    1.77
   3   3  -6    8.13    0.78
   3   3  -6    7.67    0.66
  -3  -3   6    8.06    0.75
  -3  -3   6    8.48    0.66
  -3  -3   6    9.95    2.23
  -3  -3   6    7.97    0.45
  -3  -3   6    8.27    0.53
   2   3  -6   16.46    1.10
   2   3  -6   18.39    1.69
   2   3  -6   16.01    0.95
  -2  -3   6   14.60    0.70
  -2  -3   6   16.97    2.66
  -2  -3   6   16.69    1.06
  -2  -3   6   16.67    2.05
  -2  -3   6   15.52    0.98
   1   3  -6    1.34    0.81
   1   3  -6    1.58    0.22
   1   3  -6    1.41    0.24
  -1  -3   6    1.49    0.78
  -1  -3   6    0.57    0.48
   0   3  -6   13.92    1.67
   0   3  -6   13.48    1.98
   0   3  -6   14.42    1.24
   0  -3   6   11.54    1.34
   0  -3   6   15.60    1.43
   0  -3   6   15.85    1.80
   0  -3   6   14.62    0.71
   0  -3   6   14.09    0.79
  -1   3  -6   13.75    1.00
  -1   3  -6   14.30    1.52
  -1   3  -6   14.78    0.87
  -1   3  -6   14.57    2.20
   1  -3   6   13.76    0.83
   1  -3   6   16.17    1.93
  -2   3  -6    5.11    0.48
  -2   3  -6    6.86    0.34
  -2   3  -6    7.91    2.37
  -2   3  -6    5.77    1.19
   2  -3   6    7.58    1.60
   2  -3   6    5.13    0.54
   2  -3   6    6.29    0.47
  -3   3  -6   -0.12    0.44
   3  -3   6    2.64    1.52
  -4   3  -6    7.24    0.79
  -4   3  -6    5.96    0.34
   4  -3   6    5.46    0.53
   4  -3   6    6.55    0.65
  -5   3  -6    0.32    0.07
  -5   3  -6    0.31    0.13
   5  -3   6    0.47    0.17
   5  -3   6    0.34    0.13
   5   2  -6    1.70    0.61
  -5  -2   6    0.18    0.09
   4   2  -6    0.62    0.18
  -4  -2   6    0.19    0.14
  -4  -2   6    0.14    0.07
   3   2  -6   20.69    1.25
   3   2  -6   21.79    2.01
   3   2  -6   21.58    1.14
  -3  -2   6   25.62    2.63
  -3  -2   6   20.56    0.94
  -3  -2   6   23.26    1.05
  -3  -2   6   22.91    1.43
  -3  -2   6   25.22    3.54
   2   2  -6   51.35    2.23
   2   2  -6   53.43    2.84
   2   2  -6   50.55    4.22
   2   2  -6   55.30    2.13
  -2  -2   6   51.90    3.91
  -2  -2   6   48.73    2.35
  -2  -2   6   51.45    4.73
   1   2  -6  122.86    4.64
   1   2  -6  119.74    5.16
   1   2  -6  120.77    6.37
  -1  -2   6  124.56    6.10
  -1  -2   6  128.42    6.55
  -1  -2   6  129.57    6.57
  -1  -2   6  132.72    6.48
   0   2  -6    3.24    0.88
   0   2  -6    1.93    0.33
   0   2  -6    1.94    0.26
   0  -2   6    2.75    0.50
   0  -2   6    2.98    0.62
   0  -2   6    2.41    0.47
   0  -2   6    2.23    0.29
   0  -2   6    2.18    0.69
  -1   2  -6   20.55    2.34
  -1   2  -6   21.61    1.51
  -1   2  -6   23.01    1.24
   1  -2   6   21.71    2.21
   1  -2   6   22.18    1.01
  -2   2  -6   53.65    3.82
  -2   2  -6   49.95    2.51
  -2   2  -6   51.71    4.43
   2  -2   6   55.22    2.15
   2  -2   6   47.64    3.85
   2  -2   6   53.41    2.30
  -3   2  -6    0.87    0.11
  -3   2  -6    1.23    0.30
  -3   2  -6    0.77    0.67
   3  -2   6    2.43    1.23
   3  -2   6    1.15    0.21
  -4   2  -6    0.05    0.10
   4  -2   6    1.44    1.72
   4  -2   6    0.04    0.11
  -5   2  -6   -0.03    0.12
  -5   2  -6    0.27    0.06
   5  -2   6    0.59    0.13
   5  -2   6    0.17    0.15
  -5  -1   6    0.21    0.07
  -5  -1   6    0.32    0.13
   4   1  -6   -0.09    0.18
  -4  -1   6    1.17    0.83
  -4  -1   6    0.27    0.16
   3   1  -6    0.53    0.18
  -3  -1   6    0.61    0.15
  -3  -1   6    0.62    0.22
  -3  -1   6    0.81    0.17
  -3  -1   6   -0.19    0.52
  -3  -1   6   -0.21    0.61
   2   1  -6    6.59    0.89
   2   1  -6    6.84    0.83
   2   1  -6    6.93    0.70
   2   1  -6    6.79    0.43
  -2  -1   6    6.77    1.50
   1   1  -6    9.05    1.17
   1   1  -6    8.71    0.52
   1   1  -6    8.75    0.82
  -1  -1   6    8.04    1.20
  -1  -1   6   10.92    1.59
  -1  -1   6    8.66    1.05
   0   1  -6    6.95    0.85
   0   1  -6    7.47    1.13
   0   1  -6    7.50    0.50
   0   1  -6    7.37    0.46
   0  -1   6    7.87    1.15
   0  -1   6    7.65    0.83
   0  -1   6    8.29    1.24
   0  -1   6    6.26    0.76
  -1   1  -6   35.08    2.58
  -1   1  -6   36.73    1.78
  -1   1  -6   35.73    2.22
   1  -1   6   35.71    2.28
   1  -1   6   36.45    3.01
   1  -1   6   33.05    1.55
  -2   1  -6   49.65    3.62
  -2   1  -6   52.62    2.49
  -2   1  -6   57.84    4.43
   2  -1   6   49.97    3.19
   2  -1   6   51.92    4.18
   2  -1   6   53.83    2.16
   2  -1   6   52.96    2.28
  -3   1  -6    1.00    0.27
  -3   1  -6    0.68    0.20
  -3   1  -6    0.56    0.09
   3  -1   6    0.62    0.71
   3  -1   6    1.10    0.20
   3  -1   6    0.59    0.21
   3  -1   6    2.49    1.08
  -4   1  -6    0.78    0.26
  -4   1  -6    0.73    0.23
  -4   1  -6    0.64    0.18
  -4   1  -6    0.58    0.10
   4  -1   6    1.12    0.20
   4  -1   6    0.36    0.21
   4  -1   6    0.69    1.86
  -5   1  -6    0.21    0.06
  -5   1  -6    0.30    0.16
   5  -1   6    0.30    0.17
   5  -1   6    0.35    0.15
  -5   0   6    0.42    0.16
  -5   0   6    0.30    0.09
   4   0  -6    1.38    0.39
  -4   0   6    1.88    0.22
  -4   0   6    3.18    1.79
  -4   0   6    1.82    0.21
  -4   0   6    2.12    0.37
  -4   0   6    1.97    0.35
   3   0  -6    3.85    0.94
   3   0  -6    3.64    0.84
  -3   0   6    3.68    0.29
  -3   0   6    3.79    0.44
  -3   0   6    3.73    0.48
  -3   0   6    4.92    1.66
  -3   0   6    2.56    1.09
  -3   0   6    3.43    0.32
   2   0  -6    4.58    0.71
  -2   0   6    3.70    1.17
  -2   0   6    5.19    1.13
   1   0  -6   93.23    3.42
   1   0  -6   91.69    4.32
   1   0  -6   96.16    4.66
  -1   0   6  102.21    4.77
  -1   0   6  102.13    5.21
  -1   0   6   92.10    5.54
   0   0  -6   93.40    4.26
   0   0  -6   99.24    5.10
   0   0  -6   94.83    3.48
   0   0   6   97.47    4.61
   0   0   6   96.09    5.15
   0   0   6   85.31    3.81
  -1   0  -6   27.46    1.70
  -1   0  -6   26.21    2.52
  -1   0  -6   23.72    1.93
  -1   0  -6   22.59    1.23
   1   0   6   23.10    2.39
   1   0   6   26.12    1.79
   1   0   6   25.70    1.22
   1   0   6   27.11    1.90
  -2   0  -6  113.67    6.60
  -2   0  -6  109.92    6.51
  -2   0  -6   88.81    5.08
   2   0   6  102.56    6.47
   2   0   6  111.43    4.12
   2   0   6   89.77    5.75
   2   0   6  114.29    3.95
  -3   0  -6   16.67    0.88
  -3   0  -6   15.29    0.70
  -3   0  -6   15.57    0.96
   3   0   6   16.68    0.97
   3   0   6   15.75    2.06
   3   0   6   15.90    1.30
  -4   0  -6   12.89    0.75
  -4   0  -6   12.27    0.61
  -4   0  -6   12.31    1.00
  -4   0  -6   13.14    0.76
   4   0   6   14.17    3.01
   4   0   6   12.42    1.03
   4   0   6   12.02    0.89
  -5   0  -6    1.79    0.30
  -5   0  -6    2.09    0.16
   5   0   6    2.11    0.30
   5   0   6    1.21    1.76
  -5   1   6    0.26    0.14
  -5   1   6   -0.19    0.19
  -5   1   6    0.22    0.07
  -4   1   6    1.56    0.32
  -4   1   6    1.26    0.36
  -4   1   6    1.18    0.17
  -4   1   6    1.22    0.21
   3  -1  -6    3.76    1.14
   3  -1  -6    4.96    1.03
   3  -1  -6    2.93    1.17
  -3   1   6    5.49    0.49
  -3   1   6    6.05    1.47
  -3   1   6    5.19    1.66
  -3   1   6    5.70    0.59
  -3   1   6    4.82    0.43
  -2   1   6   11.11    1.40
  -2   1   6   13.67    1.89
  -2   1   6   12.75    2.07
   1  -1  -6    9.12    1.12
   1  -1  -6    9.09    0.48
  -1   1   6   12.14    1.79
  -1   1   6    9.05    1.18
  -1   1   6    9.61    0.93
   0  -1  -6    1.08    0.17
   0  -1  -6    0.77    0.47
   0  -1  -6    1.04    0.46
   0  -1  -6    1.33    0.45
   0   1   6    0.91    0.24
   0   1   6    0.77    0.36
   0   1   6    1.02    0.51
  -1  -1  -6   15.98    1.58
  -1  -1  -6   18.68    1.48
  -1  -1  -6   21.56    2.30
   1   1   6   17.81    1.65
   1   1   6   19.08    2.27
   1   1   6   18.04    1.19
   1   1   6   17.74    1.65
   1   1   6   18.16    1.01
  -2  -1  -6    4.78    1.37
  -2  -1  -6    3.56    0.43
  -2  -1  -6    4.24    1.18
   2   1   6    2.43    1.05
   2   1   6    3.06    0.43
   2   1   6    3.21    0.36
  -3  -1  -6    0.79    0.25
  -3  -1  -6    0.94    0.12
  -3  -1  -6    2.64    1.16
  -3  -1  -6    0.88    0.20
   3   1   6   -0.09    0.79
   3   1   6    1.00    0.27
   3   1   6    0.80    0.27
  -4  -1  -6   14.97    0.67
  -4  -1  -6   13.44    0.99
  -4  -1  -6   12.89    0.84
  -4  -1  -6   14.48    0.85
   4   1   6   14.93    1.20
   4   1   6   14.10    0.99
  -5  -1  -6   -0.03    0.02
   5   1   6    0.00    0.18
   5   1   6    0.00    0.10
  -5   2   6   -0.23    0.20
  -5   2   6   -0.03    0.04
  -5   2   6    0.03    0.10
  -4   2   6    1.67    0.29
  -4   2   6    1.41    0.16
  -4   2   6    1.73    0.31
  -4   2   6    1.45    0.23
   3  -2  -6    2.71    1.09
   3  -2  -6    2.72    1.09
   3  -2  -6    0.93    0.69
   2  -2  -6    6.33    0.34
   2  -2  -6    4.99    0.84
  -2   2   6    6.14    1.50
  -2   2   6    5.96    1.13
   1  -2  -6    0.06    0.07
   1  -2  -6   -0.25    0.16
   1  -2  -6    0.47    0.26
  -1   2   6   -0.03    0.29
  -1   2   6   -0.23    0.27
   0  -2  -6   15.33    1.62
   0  -2  -6   12.17    1.72
   0   2   6   15.64    1.91
   0   2   6   13.98    0.79
   0   2   6   13.51    1.37
   0   2   6   14.97    1.20
  -1  -2  -6   11.63    1.38
  -1  -2  -6   12.34    0.70
  -1  -2  -6   13.05    2.09
  -1  -2  -6   13.15    0.80
  -1  -2  -6   11.92    1.31
   1   2   6   10.83    1.32
   1   2   6   12.48    1.90
  -2  -2  -6    1.11    0.23
  -2  -2  -6    1.18    0.40
  -2  -2  -6    1.85    0.84
  -2  -2  -6    1.12    0.15
  -2  -2  -6    1.14    1.09
   2   2   6    1.04    0.30
   2   2   6    1.03    0.30
   2   2   6    0.32    0.44
  -3  -2  -6    2.82    0.34
  -3  -2  -6    4.34    1.68
  -3  -2  -6    3.56    0.46
   3   2   6    3.42    0.42
   3   2   6    5.04    1.53
   3   2   6    2.77    0.49
  -4  -2  -6    4.47    0.43
  -4  -2  -6    4.50    0.29
  -4  -2  -6    3.87    0.43
   4   2   6    3.85    0.47
   4   2   6    4.76    0.64
   5   2   6    0.17    0.16
   5   2   6   -0.23    0.17
  -5   3   6    0.73    0.19
  -5   3   6    1.15    0.27
   4  -3  -6    2.26    0.27
  -4   3   6    1.35    1.27
  -4   3   6    2.12    0.35
  -4   3   6    1.59    0.27
  -4   3   6    1.89    0.48
  -4   3   6    1.85    0.18
   3  -3  -6    1.92    0.90
   3  -3  -6   -1.09    1.26
   3  -3  -6    0.47    0.10
  -3   3   6    0.36    0.15
  -3   3   6    0.16    0.11
   2  -3  -6   24.41    2.64
   2  -3  -6   29.40    1.16
   2  -3  -6   27.54    1.22
  -2   3   6   25.43    1.37
  -2   3   6   25.21    2.68
  -2   3   6   28.93    3.44
  -2   3   6   30.20    2.41
  -2   3   6   26.04    1.39
   1  -3  -6    0.35    0.47
   1  -3  -6    0.16    0.06
  -1   3   6    0.05    0.30
  -1   3   6    0.45    0.48
  -1   3   6   -0.11    0.25
   0  -3  -6    1.34    0.77
   0  -3  -6    2.81    0.88
   0  -3  -6    2.30    0.29
   0   3   6    2.60    0.59
   0   3   6    2.23    0.82
   0   3   6    2.31    0.31
  -1  -3  -6    3.87    0.29
  -1  -3  -6    3.43    0.42
  -1  -3  -6    5.59    1.59
  -1  -3  -6    4.16    0.87
  -1  -3  -6    3.81    0.35
   1   3   6    3.39    0.39
   1   3   6    3.84    0.49
   1   3   6    4.68    0.82
   1   3   6    2.12    1.26
  -2  -3  -6    3.90    0.49
  -2  -3  -6    4.69    0.31
  -2  -3  -6    4.33    0.38
  -2  -3  -6    6.35    1.88
  -2  -3  -6    3.67    0.26
   2   3   6    4.33    1.22
   2   3   6    6.18    1.18
   2   3   6    4.55    0.60
   2   3   6    4.02    0.45
  -3  -3  -6    5.15    1.87
  -3  -3  -6    3.88    0.28
  -3  -3  -6    3.84    0.48
  -3  -3  -6    3.97    0.41
   3   3   6    3.96    0.50
   3   3   6    3.83    0.60
  -4  -3  -6   10.78    0.50
  -4  -3  -6    9.37    0.69
  -4  -3  -6   12.41    0.85
   4   3   6    9.90    0.80
   4   3   6    9.20    0.92
  -5  -3  -6    1.16    0.08
   5   3   6    1.40    0.18
  -5   4   6    0.72    0.19
  -5   4   6    0.79    0.17
   4  -4  -6    0.33    0.16
  -4   4   6    0.07    0.10
  -4   4   6    0.24    0.16
   3  -4  -6    2.86    0.31
   3  -4  -6    2.87    0.27
  -3   4   6    2.09    0.33
  -3   4   6    0.65    1.15
  -3   4   6    3.07    0.46
   2  -4  -6    3.52    0.38
   2  -4  -6    3.85    0.37
   2  -4  -6    5.29    1.52
  -2   4   6    3.66    0.41
  -2   4   6    4.11    0.43
  -2   4   6    3.33    0.42
  -2   4   6    5.01    1.67
   1  -4  -6   11.29    0.77
   1  -4  -6   13.21    1.83
   1  -4  -6   11.30    0.65
  -1   4   6   11.69    1.63
  -1   4   6   11.01    0.72
  -1   4   6   10.10    0.70
   0  -4  -6    4.68    0.48
   0  -4  -6    5.53    1.50
   0  -4  -6    5.05    0.27
   0  -4  -6    4.71    0.47
   0   4   6    6.95    1.67
   0   4   6    4.28    0.57
  -1  -4  -6    1.57    0.30
  -1  -4  -6    1.34    0.18
  -1  -4  -6    1.86    0.90
  -1  -4  -6    1.44    0.33
  -1  -4  -6    1.27    0.14
  -1  -4  -6    1.48    0.23
   1   4   6    2.02    0.86
   1   4   6    1.37    0.25
   1   4   6    1.82    0.42
  -2  -4  -6    0.92    0.14
  -2  -4  -6    0.98    0.16
  -2  -4  -6    1.10    0.96
  -2  -4  -6    1.51    0.42
   2   4   6    0.80    0.25
   2   4   6    0.85    0.25
   2   4   6    1.21    0.92
  -3  -4  -6    0.94    0.32
  -3  -4  -6    0.35    0.13
  -3  -4  -6    0.83    1.82
   3   4   6    0.25    0.16
   3   4   6   -0.17    1.37
  -4  -4  -6    1.28    0.22
  -4  -4  -6    1.66    0.12
   4   4   6    0.65    1.21
   4   4   6    1.54    0.27
  -5   5   6    0.19    0.07
  -5   5   6    0.09    0.05
   4  -5  -6    1.93    0.25
   4  -5  -6    2.05    0.29
  -4   5   6    1.72    0.29
  -4   5   6    2.26    0.39
   3  -5  -6    3.52    0.40
   3  -5  -6    2.80    2.35
   3  -5  -6    3.56    0.34
  -3   5   6    3.17    0.43
  -3   5   6    3.37    0.43
  -3   5   6    4.10    1.88
   2  -5  -6    1.73    0.13
   2  -5  -6    1.46    0.22
   2  -5  -6    1.35    0.26
   2  -5  -6    1.68    0.93
  -2   5   6    1.59    0.27
  -2   5   6    2.54    0.61
  -2   5   6    3.46    1.38
  -2   5   6    1.94    0.40
   1  -5  -6    2.28    0.35
   1  -5  -6    2.45    0.30
   1  -5  -6    1.81    0.17
   1  -5  -6    0.95    0.78
  -1   5   6    2.18    0.32
  -1   5   6   -0.57    3.40
  -1   5   6    1.97    0.40
  -1   5   6    1.55    0.87
  -1   5   6    2.58    0.32
   0  -5  -6    4.72    0.29
   0  -5  -6    4.04    0.52
   0  -5  -6    4.69    0.28
   0  -5  -6    4.75    0.56
   0  -5  -6    4.67    0.43
   0   5   6    4.85    0.44
  -1  -5  -6    1.29    0.15
  -1  -5  -6    1.43    0.31
  -1  -5  -6    2.30    0.99
  -1  -5  -6    0.75    0.46
  -1  -5  -6    2.44    1.10
  -1  -5  -6    0.99    0.26
   1   5   6    0.38    1.70
   1   5   6    0.83    0.58
   1   5   6    1.39    0.24
   1   5   6    1.63    0.52
   1   5   6    1.62    0.42
  -2  -5  -6    6.68    0.71
  -2  -5  -6    5.16    0.47
  -2  -5  -6    6.54    0.40
  -2  -5  -6    3.94    1.91
   2   5   6    5.59    0.74
   2   5   6    3.89    1.97
   2   5   6    5.68    0.60
  -3  -5  -6    2.76    0.41
  -3  -5  -6    2.75    0.34
   3   5   6    2.98    0.40
   3   5   6    2.48    0.45
   4   5   6    0.45    1.26
   4   5   6    0.19    0.24
   4   5   6    0.15    0.14
   4  -6  -6   -0.07    0.12
   4  -6  -6    0.00    0.10
  -4   6   6   -0.01    0.05
  -4   6   6    0.07    0.08
   3  -6  -6    1.30    0.33
   3  -6  -6    1.64    0.24
  -3   6   6    1.27    0.34
  -3   6   6    1.43    0.38
   2  -6  -6    3.20    0.21
   2  -6  -6    3.24    0.38
   2  -6  -6    5.83    2.32
   2  -6  -6    3.17    0.44
  -2   6   6    3.28    0.48
  -2   6   6    2.95    1.74
  -2   6   6    3.66    0.43
  -2   6   6    2.85    0.39
   1  -6  -6    3.36    1.96
   1  -6  -6    4.09    0.26
   1  -6  -6    3.51    0.42
   1  -6  -6    4.14    0.51
  -1   6   6    3.72    0.43
  -1   6   6    0.21    3.27
  -1   6   6    4.05    0.56
  -1   6   6    4.25    0.44
  -1   6   6    2.93    1.33
   0  -6  -6    1.19    0.27
   0  -6  -6    1.40    0.35
   0  -6  -6   -0.05    1.05
   0  -6  -6    1.36    0.17
   0  -6  -6    1.52    0.17
   0   6   6    2.37    1.07
   0   6   6   -0.03    1.97
   0   6   6    2.24    0.29
   0   6   6    1.92    0.36
   0   6   6    1.82    0.38
  -1  -6  -6    1.38    1.24
  -1  -6  -6    0.51    0.20
   1   6   6    0.08    0.86
   1   6   6    0.52    3.57
   1   6   6    0.48    0.27
   1   6   6    0.41    0.19
  -2  -6  -6    0.48    0.23
  -2  -6  -6    1.25    2.14
  -2  -6  -6    0.26    0.08
   2   6   6    0.47    0.18
   2   6   6    0.75    3.19
   2   6   6    0.72    0.35
  -3  -6  -6    0.06    0.13
   3   6   6    1.33    2.35
   3   6   6    0.22    0.13
   3   6   6    0.17    0.33
   4  -7  -6    0.31    0.11
  -4   7   6    0.30    0.10
  -4   7   6    0.34    0.13
   3  -7  -6    0.48    0.17
   3  -7  -6    0.24    0.09
  -3   7   6    0.18    0.13
  -3   7   6    0.25    0.13
   2  -7  -6    0.49    0.18
   2  -7  -6    0.60    0.21
   2  -7  -6    0.35    0.08
  -2   7   6    0.33    0.14
  -2   7   6    0.27    0.13
  -2   7   6    0.64    0.33
   1  -7  -6   -0.95    1.04
   1  -7  -6    0.03    0.04
   1  -7  -6    0.12    0.05
  -1   7   6    0.12    0.32
  -1   7   6    0.14    0.14
  -1   7   6   -0.02    3.80
  -1   7   6    0.15    0.13
   0  -7  -6    8.03    0.81
   0  -7  -6    8.43    1.91
   0  -7  -6    7.29    0.43
   0  -7  -6    6.86    0.59
   0   7   6    6.29    0.76
   0   7   6    8.67    2.34
  -1  -7  -6    2.33    0.41
  -1  -7  -6    1.40    0.17
   1   7   6    0.22    2.35
   1   7   6    2.68    0.78
   1   7   6   -1.41    1.61
  -2  -7  -6    1.35    0.27
   2   7   6    0.33    1.98
   3   7   6    0.61    1.35
   3  -8  -6    0.27    0.06
   3  -8  -6    0.21    0.10
   3  -8  -6    0.26    0.15
  -3   8   6    0.28    0.10
  -3   8   6    0.16    0.08
   2  -8  -6    0.20    0.16
  -2   8   6    0.29    0.12
  -2   8   6    0.64    0.25
  -2   8   6    0.39    0.11
   1  -8  -6    2.78    0.34
   1  -8  -6    2.91    0.54
   1  -8  -6    3.14    0.23
  -1   8   6    3.06    0.48
  -1   8   6    3.88    0.54
   0  -8  -6    0.39    0.11
   0   8   6   -1.45    1.64
   0   8   6    0.63    0.30
  -1  -8  -6    0.08    0.05
  -1  -8  -6   -0.01    0.22
   1   8   6    0.03    0.91
   2   8   6    0.38    1.07
   2  -9  -6    0.67    0.16
   2  -9  -6    0.88    0.09
  -2   9   6    1.19    0.25
   1  -9  -6    1.73    0.14
  -1   9   6    2.00    0.31
  -1  -9   7    1.39    0.27
   0   9  -7    0.01    0.22
  -2   9  -7    0.31    0.19
   2   8  -7   -0.41    0.21
   2   8  -7   -1.28    0.92
  -2  -8   7    0.31    0.15
   1   8  -7   -0.28    2.09
  -1  -8   7   -0.05    0.03
  -1  -8   7   -0.07    0.10
   0   8  -7    0.74    3.17
   0   8  -7    1.11    0.36
  -1   8  -7   -0.12    2.30
  -1   8  -7    4.96    0.61
   1  -8   7    3.07    0.33
   1  -8   7    4.16    0.29
  -2   8  -7    0.40    0.24
   2  -8   7    0.57    0.32
  -3   8  -7    0.27    0.14
  -3   8  -7    0.43    0.21
   3  -8   7   -0.17    0.16
   3  -8   7    0.13    0.10
   3   7  -7    0.03    0.19
   3   7  -7    0.69    0.32
  -3  -7   7    0.34    0.07
  -3  -7   7    0.10    0.14
   2   7  -7    1.02    2.07
   2   7  -7    3.34    0.57
   2   7  -7    4.09    0.46
  -2  -7   7    4.77    0.58
  -2  -7   7    4.76    0.33
   1   7  -7    0.00    0.96
   1   7  -7    2.15    1.30
   1   7  -7    0.18    0.12
   1   7  -7    0.70    0.32
  -1  -7   7    0.42    0.27
   0   7  -7    0.51    0.31
   0   7  -7   -0.13    1.89
   0  -7   7    1.45    1.62
   0  -7   7    0.38    0.21
  -1   7  -7    1.17    2.64
  -1   7  -7    2.45    0.42
  -1   7  -7    1.18    1.16
   1  -7   7    2.60    0.41
   1  -7   7    2.20    0.30
   1  -7   7    2.24    0.20
  -2   7  -7    5.16    1.80
  -2   7  -7   -0.35    1.27
  -3   7  -7    1.96    0.27
  -3   7  -7    2.46    0.40
   3  -7   7    2.13    0.36
   3  -7   7    1.91    0.37
  -4   7  -7    0.65    0.17
  -4   7  -7    0.68    0.13
   4  -7   7    0.51    0.13
   4  -7   7    0.61    0.19
   4   6  -7    0.41    0.14
  -4  -6   7    0.41    0.09
  -4  -6   7    0.36    0.08
   3   6  -7    2.81    1.55
   3   6  -7    0.65    0.21
   3   6  -7    0.18    0.21
  -3  -6   7    0.28    0.09
  -3  -6   7    0.48    0.21
  -3  -6   7    0.27    0.11
   2   6  -7    0.93    2.37
   2   6  -7    1.64    1.23
   1   6  -7    0.41    0.24
   1   6  -7    0.48    0.19
   1   6  -7    1.78    3.57
   1   6  -7    2.41    0.94
   1   6  -7    0.74    0.20
  -1  -6   7    2.24    1.43
  -1  -6   7   -0.17    1.11
  -1  -6   7    0.82    0.28
  -1  -6   7    0.59    0.14
   0   6  -7    0.95    0.88
   0   6  -7    2.56    0.60
   0   6  -7   -0.52    2.29
   0  -6   7    1.17    0.66
  -1   6  -7    1.00    0.75
  -1   6  -7    1.03    0.23
  -1   6  -7   -0.86    1.51
  -1   6  -7    1.11    0.41
   1  -6   7    0.69    0.27
   1  -6   7    1.46    0.52
   1  -6   7    0.99    0.18
  -2   6  -7    0.30    2.96
  -2   6  -7    1.64    0.29
   2  -6   7    1.30    0.33
   2  -6   7    1.03    0.24
  -3   6  -7    4.97    2.14
  -3   6  -7    4.24    0.55
  -3   6  -7    4.16    0.50
   3  -6   7    3.40    0.40
   3  -6   7    3.62    0.51
  -4   6  -7    0.83    0.24
  -4   6  -7    0.74    0.22
   4  -6   7    1.18    0.19
   4  -6   7    1.20    0.33
   4   5  -7    0.55    0.24
  -4  -5   7    0.18    0.09
  -4  -5   7    0.21    0.10
   3   5  -7   -0.74    1.67
   3   5  -7    0.99    0.30
   3   5  -7    1.17    0.39
  -3  -5   7    1.54    0.39
  -3  -5   7    1.13    0.28
  -3  -5   7    1.12    0.18
  -3  -5   7    0.96    1.60
   2   5  -7   19.88    1.25
   2   5  -7   19.22    1.47
  -2  -5   7   13.44    2.95
  -2  -5   7   18.73    1.14
  -2  -5   7   19.31    1.27
  -2  -5   7   18.59    3.03
   1   5  -7    0.30    0.10
   1   5  -7    0.69    0.22
   1   5  -7   -0.24    2.83
   1   5  -7    0.41    0.23
  -1  -5   7   -1.14    0.73
  -1  -5   7    0.54    0.13
  -1  -5   7   -0.23    0.45
  -1  -5   7    0.93    0.26
  -1  -5   7    0.83    0.35
   0   5  -7   -0.34    0.30
   0   5  -7    0.46    0.12
   0   5  -7    0.87    0.29
   0   5  -7    0.38    2.30
   0   5  -7    0.62    0.22
   0   5  -7    0.62    0.24
   0  -5   7    0.27    0.06
   0  -5   7    0.42    0.20
   0  -5   7    0.77    0.28
   0  -5   7   -0.27    0.81
   0  -5   7    0.55    0.14
  -1   5  -7    2.70    1.05
  -1   5  -7    0.07    2.61
  -1   5  -7    3.02    0.30
  -1   5  -7    3.22    0.43
   1  -5   7    2.85    0.33
   1  -5   7    2.65    1.18
   1  -5   7    3.35    0.43
   1  -5   7    3.43    0.49
   1  -5   7    0.06    1.95
  -2   5  -7    8.13    1.59
  -2   5  -7    7.93    0.68
  -2   5  -7    8.25    1.60
  -2   5  -7    7.46    0.69
  -2   5  -7    7.74    0.56
  -2   5  -7   -3.20    4.17
   2  -5   7    7.81    0.71
   2  -5   7    7.60    0.59
  -3   5  -7   65.75    3.00
  -3   5  -7   63.76    2.83
  -3   5  -7   65.67    2.29
  -3   5  -7   59.31    5.45
   3  -5   7   61.97    2.96
   3  -5   7   63.68    2.72
  -4   5  -7   -0.01    0.03
  -4   5  -7   -0.04    0.13
  -4   5  -7    0.14    0.15
   4  -5   7    0.04    0.07
  -5   5  -7    0.61    0.17
   5  -5   7    1.30    0.31
   5  -5   7    0.85    0.17
   4   4  -7    0.15    0.12
   4   4  -7    0.14    0.17
  -4  -4   7    0.29    0.15
   3   4  -7    0.34    0.15
   3   4  -7    3.20    3.45
  -3  -4   7    0.35    0.15
   2   4  -7   16.02    1.01
   2   4  -7   14.80    1.16
  -2  -4   7   13.88    0.98
  -2  -4   7   13.34    2.26
  -2  -4   7   15.26    0.70
  -2  -4   7   14.82    1.03
   1   4  -7    0.44    0.15
   1   4  -7    0.55    0.20
  -1  -4   7    0.41    0.09
  -1  -4   7   -0.04    0.59
  -1  -4   7    0.39    0.20
  -1  -4   7    0.23    0.59
  -1  -4   7    0.37    0.09
   0   4  -7   48.10    2.34
   0   4  -7   44.90    2.93
   0   4  -7   46.85    1.88
   0   4  -7   50.37    2.13
   0  -4   7   48.66    1.95
   0  -4   7   50.19    4.58
   0  -4   7   53.40    3.28
  -1   4  -7   -1.97    1.68
  -1   4  -7   -0.14    0.29
  -1   4  -7    0.06    0.06
   1  -4   7    0.11    0.06
   1  -4   7    0.04    0.08
   1  -4   7   -0.08    0.73
  -2   4  -7    8.85    0.75
  -2   4  -7    8.79    0.55
  -2   4  -7    8.36    0.39
  -2   4  -7    8.17    1.55
  -2   4  -7    8.87    0.71
   2  -4   7    9.86    1.85
   2  -4   7    8.85    0.60
  -3   4  -7   20.44    2.87
  -3   4  -7   20.63    1.40
  -3   4  -7   21.29    0.85
  -3   4  -7   20.93    1.22
   3  -4   7   21.99    1.16
   3  -4   7   20.17    1.31
  -4   4  -7    3.11    0.55
  -4   4  -7    1.99    0.36
  -4   4  -7    2.75    0.19
   4  -4   7    0.38    1.90
   4  -4   7    2.62    0.32
   4  -4   7    1.90    0.36
  -5   4  -7    1.06    0.27
  -5   4  -7    1.41    0.15
   5  -4   7    1.14    0.23
   5  -4   7    1.49    0.20
   5   3  -7    1.06    0.28
  -5  -3   7    0.23    0.11
   4   3  -7    1.00    0.23
   4   3  -7    0.41    0.19
  -4  -3   7    0.75    0.30
  -4  -3   7    1.37    1.14
  -4  -3   7    0.48    0.14
   3   3  -7    0.06    0.11
   3   3  -7   -0.03    0.13
  -3  -3   7   -0.04    0.08
  -3  -3   7   -0.36    0.60
  -3  -3   7    0.07    0.07
  -3  -3   7   -0.24    0.17
  -3  -3   7   -0.03    0.10
   2   3  -7    1.12    0.32
   2   3  -7    1.35    0.25
  -2  -3   7    1.84    0.31
  -2  -3   7    1.05    0.14
  -2  -3   7    1.57    0.40
  -2  -3   7    1.39    0.78
  -2  -3   7    0.37    0.78
   1   3  -7    0.02    0.08
   1   3  -7    0.29    0.11
  -1  -3   7   -0.28    0.43
  -1  -3   7   -0.24    0.25
   0   3  -7    0.14    0.10
   0   3  -7    0.16    0.20
   0  -3   7    0.46    0.32
   0  -3   7    0.06    0.07
   0  -3   7   -0.26    0.27
   0  -3   7    1.03    0.49
  -1   3  -7    0.26    0.13
  -1   3  -7    0.17    0.17
  -1   3  -7    0.36    0.29
  -1   3  -7   -0.82    0.64
   1  -3   7    0.36    0.12
   1  -3   7    0.30    0.12
   1  -3   7    0.26    0.41
  -2   3  -7    4.78    1.15
   2  -3   7    7.30    0.53
   2  -3   7    7.01    0.64
   2  -3   7    7.00    1.37
  -3   3  -7   -0.03    0.40
  -3   3  -7   -0.07    0.14
   3  -3   7   -0.13    0.10
   3  -3   7   -0.08    0.07
   3  -3   7    0.63    1.19
  -4   3  -7    0.35    0.17
  -4   3  -7    0.18    0.05
  -4   3  -7    0.15    0.18
   4  -3   7    0.29    0.18
   4  -3   7    0.07    0.11
  -5   3  -7    1.51    0.36
  -5   3  -7    1.27    0.12
   5  -3   7    0.26    1.62
   5  -3   7    1.22    0.27
   5  -3   7    1.34    0.21
   5   2  -7    0.60    0.32
  -5  -2   7    0.10    0.09
  -5  -2   7   -0.03    0.04
   4   2  -7    2.63    0.42
   4   2  -7    2.86    0.37
  -4  -2   7    1.43    1.32
  -4  -2   7    4.57    0.68
  -4  -2   7    3.22    0.32
   3   2  -7   -0.07    0.15
  -3  -2   7   -0.02    0.13
  -3  -2   7    0.98    0.83
   2   2  -7   20.43    2.19
   2   2  -7   22.36    1.66
   2   2  -7   23.73    1.14
   2   2  -7   25.23    1.27
  -2  -2   7   21.28    2.59
  -2  -2   7   31.77    3.90
  -2  -2   7   24.09    1.38
   1   2  -7    0.16    0.11
   1   2  -7    0.88    0.57
   1   2  -7    0.26    0.11
   1   2  -7    0.05    0.26
  -1  -2   7    0.12    0.53
  -1  -2   7   -0.29    0.28
  -1  -2   7    0.09    0.32
  -1  -2   7    0.35    0.23
   0   2  -7   80.51    5.08
   0   2  -7   77.33    4.33
   0   2  -7   77.51    3.14
   0   2  -7   80.51    3.42
   0  -2   7   76.91    3.84
   0  -2   7   78.37    3.89
   0  -2   7   81.89    4.94
   0  -2   7   81.66    3.00
  -1   2  -7   31.86    1.81
  -1   2  -7   30.32    2.06
  -1   2  -7   30.53    3.06
   1  -2   7   33.96    3.11
   1  -2   7   34.29    2.46
  -2   2  -7    8.17    0.80
  -2   2  -7    7.85    1.32
  -2   2  -7    7.99    2.90
   2  -2   7    8.80    0.58
   2  -2   7    8.35    0.67
   2  -2   7    8.70    1.38
   2  -2   7    6.40    1.50
  -3   2  -7    0.20    0.06
  -3   2  -7    0.48    0.51
  -3   2  -7    0.33    0.17
   3  -2   7    0.33    0.19
   3  -2   7    0.11    0.11
   3  -2   7   -0.06    1.74
   3  -2   7    0.38    0.86
  -4   2  -7    4.24    0.57
  -4   2  -7    3.54    0.24
  -4   2  -7    3.17    0.37
   4  -2   7    3.50    0.50
   4  -2   7    3.20    0.42
  -5   2  -7    3.07    0.42
  -5   2  -7    2.81    0.20
   5  -2   7    3.19    0.33
   5  -2   7    2.88    0.42
  -5  -1   7   -0.06    0.03
  -5  -1   7    0.02    0.06
   4   1  -7    1.92    0.31
  -4  -1   7   -0.05    1.13
  -4  -1   7    1.19    0.18
  -4  -1   7    0.75    0.30
  -4  -1   7    1.46    0.18
   3   1  -7    0.15    0.13
   3   1  -7    0.92    0.64
  -3  -1   7    0.19    0.07
  -3  -1   7    1.21    0.83
   2   1  -7    2.49    0.25
   2   1  -7    1.55    0.54
   2   1  -7    2.03    0.50
   2   1  -7    2.63    0.42
  -2  -1   7    2.38    1.09
   1   1  -7    0.53    0.13
   1   1  -7    0.43    0.31
  -1  -1   7    0.27    0.27
  -1  -1   7    0.95    0.43
  -1  -1   7    0.21    0.24
   0   1  -7    0.25    0.12
   0   1  -7    0.53    0.37
   0  -1   7    0.29    0.12
   0  -1   7    0.30    0.29
   0  -1   7    0.19    0.19
   0  -1   7    0.19    0.17
  -1   1  -7   11.69    1.12
  -1   1  -7   11.30    1.66
  -1   1  -7   11.93    0.72
   1  -1   7   11.59    1.22
   1  -1   7   10.52    0.70
   1  -1   7   10.95    1.61
  -2   1  -7    1.79    0.45
  -2   1  -7    2.43    0.73
   2  -1   7    2.00    0.32
   2  -1   7    4.34    1.43
   2  -1   7    2.93    0.67
   2  -1   7    2.69    0.29
  -3   1  -7    2.76    0.20
  -3   1  -7    2.49    0.28
  -3   1  -7    2.13    0.33
   3  -1   7    2.40    0.39
   3  -1   7    0.79    1.30
   3  -1   7    5.20    1.45
   3  -1   7    2.91    0.35
  -4   1  -7    0.65    0.22
  -4   1  -7    0.85    0.32
  -4   1  -7    0.77    0.19
  -4   1  -7    0.83    0.11
   4  -1   7    0.74    0.29
   4  -1   7    0.88    0.25
  -5   1  -7    0.27    0.17
  -5   1  -7    0.34    0.07
   5  -1   7    0.89    0.35
   5  -1   7    0.32    0.15
  -5   0   7    0.09    0.06
  -5   0   7    0.11    0.13
   4   0  -7    4.77    0.42
  -4   0   7    3.26    0.46
  -4   0   7    4.05    0.32
  -4   0   7    3.83    0.52
  -4   0   7    3.77    0.32
  -4   0   7    1.58    1.28
   3   0  -7    3.42    0.94
  -3   0   7    4.56    0.44
  -3   0   7    4.18    0.36
  -3   0   7    4.07    0.51
  -3   0   7    4.20    0.31
  -3   0   7    3.65    1.29
   2   0  -7   54.87    3.24
  -2   0   7   59.65    4.57
   1   0  -7   28.19    2.25
   1   0  -7   29.18    1.99
   1   0  -7   31.13    1.27
  -1   0   7   29.65    2.58
  -1   0   7   23.75    2.55
  -1   0   7   36.19    3.15
   0   0  -7   31.40    1.37
   0   0  -7   30.54    2.04
   0   0  -7   27.71    2.54
   0   0   7   31.34    1.32
   0   0   7   31.46    1.70
   0   0   7   28.65    2.58
   0   0   7   31.34    1.32
   0   0   7   31.75    2.32
  -1   0  -7   37.66    1.65
  -1   0  -7   36.33    2.66
  -1   0  -7   37.25    2.32
  -1   0  -7   41.07    3.40
   1   0   7   35.48    3.32
   1   0   7   36.35    1.66
   1   0   7   35.82    2.48
   1   0   7   34.54    2.29
  -2   0  -7    9.22    0.78
  -2   0  -7    8.65    1.16
   2   0   7   10.82    1.61
   2   0   7    8.88    0.61
   2   0   7    8.62    1.23
   2   0   7    9.34    1.05
   2   0   7    9.22    2.16
   2   0   7    9.10    0.73
  -3   0  -7   18.89    0.96
  -3   0  -7   18.77    1.10
  -3   0  -7   18.90    0.80
  -3   0  -7   19.76    1.36
   3   0   7   18.84    1.11
   3   0   7   20.84    2.88
   3   0   7   17.40    2.41
   3   0   7   21.31    2.89
   3   0   7   17.82    1.26
  -4   0  -7    5.27    0.49
  -4   0  -7    5.40    0.63
  -4   0  -7    5.22    0.43
  -4   0  -7    5.26    0.33
   4   0   7    5.01    0.54
   4   0   7    4.95    0.64
  -5   0  -7    1.20    0.11
  -5   0  -7    0.87    0.24
   5   0   7    1.01    0.26
   5   0   7   -1.22    1.44
   5   0   7    1.08    0.19
  -5   1   7    0.12    0.14
  -5   1   7   -0.03    0.11
  -5   1   7    0.01    0.04
  -4   1   7    1.13    0.19
  -4   1   7    1.56    0.27
  -4   1   7    1.44    0.17
  -4   1   7    1.37    0.36
   3  -1  -7    1.69    1.11
  -3   1   7    0.98    0.83
  -3   1   7    1.10    0.57
  -3   1   7    0.53    0.66
   2  -1  -7   77.93    3.01
  -2   1   7   81.77    5.46
  -2   1   7   91.26    6.16
  -2   1   7   89.98    4.69
   1  -1  -7    5.20    0.35
   1  -1  -7    4.63    0.88
  -1   1   7    6.09    1.23
   0  -1  -7    2.78    0.85
   0  -1  -7    2.20    0.28
   0   1   7    3.97    0.86
   0   1   7    2.42    0.39
  -1  -1  -7   14.01    1.37
  -1  -1  -7   12.31    0.79
  -1  -1  -7   12.73    0.78
  -1  -1  -7   10.52    1.77
  -1  -1  -7   12.13    2.19
   1   1   7   13.94    0.86
   1   1   7   12.20    1.86
   1   1   7   11.48    1.07
   1   1   7   13.15    1.44
  -2  -1  -7    1.44    0.26
  -2  -1  -7    2.57    1.37
  -2  -1  -7    1.84    0.86
  -2  -1  -7    1.17    0.18
  -2  -1  -7    1.48    0.43
   2   1   7    3.22    1.08
   2   1   7    1.69    0.30
   2   1   7    1.37    0.24
  -3  -1  -7    2.76    0.21
  -3  -1  -7    2.59    0.29
  -3  -1  -7    2.33    0.70
  -3  -1  -7    2.34    0.35
   3   1   7    2.54    0.44
   3   1   7    2.94    0.37
   3   1   7   -0.61    2.17
   3   1   7    4.91    1.90
  -4  -1  -7    1.46    0.37
  -4  -1  -7    1.98    0.18
  -4  -1  -7    1.63    0.24
  -4  -1  -7    1.54    0.28
   4   1   7    1.54    0.38
   4   1   7    1.93    0.31
  -5  -1  -7    0.15    0.05
   5   1   7    0.10    1.17
   5   1   7    0.09    0.10
   5   1   7    0.48    0.20
  -5   2   7    0.01    0.05
  -5   2   7    0.05    0.11
  -5   2   7    0.00    0.18
  -5   2   7   -0.07    0.07
  -4   2   7    1.93    0.32
  -4   2   7    1.83    0.17
  -4   2   7    1.71    0.25
  -4   2   7    1.46    0.27
   3  -2  -7    3.87    1.62
   3  -2  -7    5.56    1.63
   3  -2  -7    4.54    0.29
  -3   2   7    4.99    1.80
  -3   2   7    3.97    0.32
  -3   2   7    5.83    1.19
  -3   2   7    4.27    0.46
  -3   2   7    3.89    0.40
  -3   2   7    4.22    0.54
   2  -2  -7   21.97    2.58
   2  -2  -7   20.63    1.28
   2  -2  -7   20.42    0.92
  -2   2   7   27.70    3.46
  -2   2   7   20.24    1.07
   1  -2  -7    5.54    0.40
  -1   2   7    4.60    1.05
  -1   2   7    4.72    0.78
  -1   2   7    4.72    1.75
   0  -2  -7   45.95    3.14
   0  -2  -7   50.98    3.88
   0  -2  -7   48.88    3.41
   0   2   7   44.97    1.96
   0   2   7   45.39    2.99
   0   2   7   49.22    3.99
   0   2   7   48.87    2.59
  -1  -2  -7   17.59    2.73
  -1  -2  -7   19.90    1.10
  -1  -2  -7   18.04    2.44
  -1  -2  -7   20.88    1.86
   1   2   7   19.69    1.17
   1   2   7   20.91    2.85
   1   2   7   19.37    1.79
   1   2   7   19.98    1.03
  -2  -2  -7    1.10    0.24
  -2  -2  -7    0.95    0.35
  -2  -2  -7    0.50    0.71
  -2  -2  -7    1.00    0.16
   2   2   7    0.82    0.23
   2   2   7    0.75    0.42
   2   2   7    1.31    0.29
  -3  -2  -7   24.39    1.40
  -3  -2  -7   23.00    1.19
  -3  -2  -7   24.11    0.98
  -3  -2  -7   21.91    3.22
   3   2   7   24.50    2.85
   3   2   7   25.05    1.41
   3   2   7   21.63    1.56
  -4  -2  -7    4.52    0.47
  -4  -2  -7    4.65    0.28
  -4  -2  -7    4.58    0.43
   4   2   7    4.17    0.50
   4   2   7    3.38    0.54
  -5  -2  -7    1.45    0.10
   5   2   7    1.27    0.22
   5   2   7    1.46    0.29
   5   2   7    0.79    1.17
  -5   3   7    0.20    0.08
  -5   3   7    0.13    0.09
   4  -3  -7    0.17    0.18
  -4   3   7   -0.14    0.26
  -4   3   7    0.26    0.10
  -4   3   7    0.20    0.10
   3  -3  -7    2.56    1.16
   3  -3  -7    2.35    2.01
  -3   3   7   -0.57    0.61
   2  -3  -7   36.09    1.45
   2  -3  -7   35.51    3.36
   2  -3  -7   35.69    1.55
  -2   3   7   34.71    1.64
  -2   3   7   40.53    4.15
  -2   3   7   34.29    1.67
   1  -3  -7    0.19    0.08
  -1   3   7    0.20    0.34
  -1   3   7    0.41    0.30
   0  -3  -7  108.30    8.95
   0  -3  -7  105.48    3.79
   0  -3  -7   95.90    5.62
   0   3   7  103.49    5.04
   0   3   7   93.89    5.13
  -1  -3  -7   17.60    1.94
  -1  -3  -7   17.24    1.13
  -1  -3  -7   13.77    3.36
  -1  -3  -7   19.11    0.98
  -1  -3  -7   18.60    0.93
  -1  -3  -7   19.10    0.79
   1   3   7   15.72    1.81
   1   3   7   18.80    1.04
   1   3   7   19.46    1.22
   1   3   7   24.39    3.32
  -2  -3  -7    6.87    2.00
  -2  -3  -7    6.58    0.36
  -2  -3  -7    6.90    0.66
  -2  -3  -7    7.04    0.41
  -2  -3  -7    7.52    0.79
  -2  -3  -7    7.10    0.52
   2   3   7    6.14    1.41
   2   3   7    7.03    0.64
   2   3   7    7.63    0.78
  -3  -3  -7    0.43    0.14
  -3  -3  -7    0.40    0.09
  -3  -3  -7    0.48    0.24
  -3  -3  -7    0.21    1.25
   3   3   7   -0.66    1.28
   3   3   7    0.31    0.22
   3   3   7    0.37    0.17
  -4  -3  -7    0.34    0.17
  -4  -3  -7    0.50    0.20
  -4  -3  -7    0.55    0.07
   4   3   7    0.24    1.20
   4   3   7    0.52    0.20
  -5  -3  -7    1.96    0.13
   5   3   7    2.50    0.24
  -5   4   7    2.25    0.22
  -5   4   7    1.42    0.24
   4  -4  -7   -0.08    0.15
  -4   4   7    0.12    0.10
  -4   4   7    0.01    0.08
   3  -4  -7    3.55    0.39
   3  -4  -7    3.94    0.34
  -3   4   7    4.42    1.50
  -3   4   7    3.57    0.48
  -3   4   7    3.50    0.44
   2  -4  -7    0.28    0.55
   2  -4  -7    0.00    0.07
   2  -4  -7    0.11    0.09
  -2   4   7    0.18    0.11
  -2   4   7    0.13    0.08
  -2   4   7    0.17    0.23
  -2   4   7   -0.93    0.48
   1  -4  -7    0.39    0.38
   1  -4  -7    0.69    0.17
   1  -4  -7    0.42    0.15
  -1   4   7    0.29    0.24
  -1   4   7    0.40    0.17
  -1   4   7    0.10    0.47
  -1   4   7    0.38    0.11
  -1   4   7   -0.28    1.22
   0  -4  -7   14.70    0.84
   0  -4  -7   14.60    0.62
   0  -4  -7   14.65    1.00
   0  -4  -7   15.33    1.96
   0   4   7   15.36    0.86
   0   4   7   12.25    1.01
   0   4   7   14.39    1.82
  -1  -4  -7    4.31    0.49
  -1  -4  -7    4.61    0.30
  -1  -4  -7    4.23    0.40
  -1  -4  -7    4.33    0.52
   1   4   7    3.95    0.60
   1   4   7    5.65    1.21
   1   4   7    1.34    2.94
   1   4   7    4.04    0.43
   1   4   7    4.36    0.57
  -2  -4  -7   -0.37    0.70
  -2  -4  -7   -0.17    0.14
   2   4   7    0.74    0.61
   2   4   7   -0.63    2.21
   2   4   7    0.59    0.89
   2   4   7   -0.09    0.10
   2   4   7    0.08    0.17
  -3  -4  -7    0.16    1.68
  -3  -4  -7    0.83    0.09
  -3  -4  -7    1.28    0.42
   3   4   7    0.44    0.27
   3   4   7    0.66    0.21
   3   4   7    0.13    2.37
  -4  -4  -7    1.56    0.10
  -4  -4  -7    1.34    0.23
   4   4   7    1.02    0.33
   4   4   7    1.44    0.27
   4   4   7   -0.07    1.17
  -5   5   7    0.35    0.13
  -5   5   7    0.48    0.10
   4  -5  -7    0.20    0.11
   4  -5  -7    0.33    0.12
  -4   5   7    0.05    0.07
   3  -5  -7    2.99    0.32
   3  -5  -7    3.09    0.39
   3  -5  -7    6.23    2.49
  -3   5   7    3.61    0.50
  -3   5   7    2.99    0.40
   2  -5  -7    9.05    2.35
   2  -5  -7    9.71    0.78
   2  -5  -7    9.94    0.66
  -2   5   7   10.20    0.84
  -2   5   7    9.98    0.75
  -2   5   7   11.86    2.24
  -2   5   7    8.67    0.74
   1  -5  -7   10.93    0.86
   1  -5  -7   10.48    0.71
   1  -5  -7    9.57    0.48
   1  -5  -7   11.88    2.00
  -1   5   7   10.21    0.92
  -1   5   7   10.53    0.72
  -1   5   7   11.12    1.83
  -1   5   7   11.09    0.76
   0  -5  -7    7.00    0.59
   0  -5  -7    6.85    0.39
   0  -5  -7    6.95    0.71
   0  -5  -7    6.98    0.39
   0  -5  -7    6.74    1.49
   0  -5  -7    7.67    0.73
   0   5   7    7.64    0.54
   0   5   7    7.26    0.77
   0   5   7    7.71    1.51
   0   5   7    0.50    3.68
   0   5   7    7.82    0.58
  -1  -5  -7    2.89    1.23
  -1  -5  -7    2.37    0.31
  -1  -5  -7    2.47    0.22
  -1  -5  -7    2.47    0.40
  -1  -5  -7    4.86    1.92
  -1  -5  -7    2.12    0.50
   1   5   7   -0.28    2.02
   1   5   7    2.37    0.52
   1   5   7    2.43    0.51
   1   5   7    1.27    0.95
   1   5   7    2.36    0.32
  -2  -5  -7    4.77    0.34
  -2  -5  -7    4.08    1.96
  -2  -5  -7    5.02    0.62
   2   5   7    4.62    0.66
   2   5   7    4.29    0.51
   2   5   7    6.34    0.86
  -3  -5  -7    0.18    0.16
   3   5   7    0.40    0.26
   3   5   7   -0.12    0.11
   3   5   7   -0.06    1.06
   4   5   7    0.34    0.13
   4   5   7    0.24    0.84
   4  -6  -7    0.23    0.18
   4  -6  -7    0.29    0.11
  -4   6   7    0.08    0.08
  -4   6   7    0.24    0.09
   3  -6  -7    0.30    0.12
   3  -6  -7    0.18    0.15
  -3   6   7    0.20    0.14
  -3   6   7    0.22    0.15
   2  -6  -7    5.22    0.57
   2  -6  -7    4.19    0.45
  -2   6   7    4.53    0.49
  -2   6   7    4.39    0.50
  -2   6   7    5.32    0.60
  -2   6   7    3.13    1.96
   1  -6  -7    6.23    0.57
   1  -6  -7    5.61    0.65
   1  -6  -7    5.60    0.33
  -1   6   7    6.68    0.71
  -1   6   7    6.59    0.56
  -1   6   7    5.08    0.52
  -1   6   7    7.57    2.12
   0  -6  -7    3.63    1.96
   0  -6  -7    4.98    0.32
   0  -6  -7    4.76    0.32
   0  -6  -7    5.91    0.67
   0  -6  -7    4.75    0.49
   0  -6  -7    2.13    1.44
   0  -6  -7    4.93    0.61
   0   6   7    3.40    1.27
   0   6   7   -0.25    3.17
   0   6   7    5.24    0.67
   0   6   7    5.53    0.48
  -1  -6  -7    1.16    1.22
  -1  -6  -7    0.22    0.16
   1   6   7   -0.66    1.78
   1   6   7    1.04    0.93
   1   6   7   -0.42    0.30
   1   6   7    0.27    0.22
  -2  -6  -7    1.10    0.35
  -2  -6  -7    1.00    0.14
   2   6   7    0.58    0.41
   2   6   7    1.30    0.22
  -3  -6  -7    0.75    0.30
   3   6   7    0.91    0.17
   3   6   7    1.17    0.84
   4  -7  -7    0.25    0.16
   4  -7  -7   -0.11    0.07
  -4   7   7    0.05    0.06
  -4   7   7    0.01    0.05
   3  -7  -7    0.92    0.22
   3  -7  -7    0.75    0.22
  -3   7   7    0.48    0.19
  -3   7   7    0.58    0.19
   2  -7  -7    0.17    0.09
   2  -7  -7    0.26    0.11
  -2   7   7   -0.95    2.82
  -2   7   7    0.36    0.23
  -2   7   7    0.04    0.07
  -2   7   7    0.00    0.09
   1  -7  -7    6.46    0.75
   1  -7  -7    7.37    0.39
   1  -7  -7    6.92    0.62
   1  -7  -7   10.14    3.76
   1  -7  -7    8.21    0.42
  -1   7   7    7.06    0.78
  -1   7   7    6.81    0.54
  -1   7   7    7.18    0.56
  -1   7   7    5.16    1.92
   0  -7  -7    1.06    0.26
   0  -7  -7    0.35    0.35
   0  -7  -7    0.29    1.35
   0  -7  -7    1.11    0.14
   0   7   7    0.31    1.85
   0   7   7   -0.29    1.52
   0   7   7    0.77    0.37
  -1  -7  -7    0.90    0.31
  -1  -7  -7    0.55    0.15
   1   7   7    2.69    3.62
   1   7   7    0.59    0.29
  -2  -7  -7    5.32    0.55
   3  -8  -7    0.77    0.32
   3  -8  -7    0.64    0.08
   3  -8  -7    0.77    0.21
  -3   8   7    0.98    0.16
  -3   8   7    0.41    0.11
   2  -8  -7    0.74    0.25
   2  -8  -7    0.52    0.17
   2  -8  -7    0.97    0.10
  -2   8   7    1.33    0.21
  -2   8   7    1.20    0.47
  -2   8   7    0.94    0.16
   1  -8  -7    2.43    0.31
   1  -8  -7    2.35    0.19
  -1   8   7    2.27    0.42
   0   8   7    1.01    0.36
   0   8   7   -0.35    2.07
  -1  -8  -7    0.26    0.07
  -1  -8  -7    0.81    0.29
   1   8   7   -0.23    0.96
   1  -9  -7    0.21    0.06
  -1   9   7    0.18    0.20
   0   9   7    0.66    0.22
   0   9  -8    0.93    2.03
   0   9  -8    1.25    0.34
   0  -9   8    0.74    0.10
   0  -9   8    0.96    0.41
  -2   9  -8    0.46    0.26
   2  -9   8    0.38    0.07
   2   8  -8    0.17    1.95
  -2  -8   8    0.09    0.05
  -2  -8   8   -0.07    0.10
   1   8  -8    1.31    1.52
   0   8  -8   -0.15    0.21
   0  -8   8    0.01    0.08
   0  -8   8    0.44    0.20
   0  -8   8    0.01    0.03
  -1   8  -8    0.66    3.64
   1  -8   8    0.86    0.40
  -2   8  -8   -0.07    0.16
   2  -8   8    0.01    0.03
   2  -8   8    0.06    0.09
  -3   8  -8    0.12    0.14
  -3   8  -8    0.00    0.07
   3  -8   8    0.35    0.24
   3  -8   8    0.05    0.06
   3   7  -8    1.09    0.20
  -3  -7   8    1.08    0.13
   2   7  -8    2.36    2.98
   1   7  -8    0.40    0.32
   1   7  -8   -0.01    0.12
   1   7  -8    1.12    0.46
   1   7  -8    2.16    5.69
  -1  -7   8    0.10    0.05
  -1  -7   8    0.22    0.13
   0   7  -8   -0.43    1.36
   0   7  -8    1.30    0.49
   0   7  -8   -0.07    0.33
   0  -7   8    0.59    0.12
   0  -7   8    1.14    0.46
   0  -7   8   -0.17    1.40
   0  -7   8    0.54    0.12
  -1   7  -8   -1.23    1.81
  -1   7  -8    0.68    0.31
  -1   7  -8   -0.08    1.30
   1  -7   8    2.21    0.66
   1  -7   8    0.97    0.13
   1  -7   8    0.82    0.22
  -2   7  -8    0.07    0.21
  -2   7  -8   -0.60    2.40
   2  -7   8    0.10    0.08
   2  -7   8    0.10    0.17
  -3   7  -8   -0.15    0.11
   3  -7   8   -0.04    0.06
  -4   7  -8    0.62    0.14
  -4   7  -8    0.77    0.14
   4  -7   8    0.56    0.19
   4  -7   8    0.47    0.13
   3   6  -8    1.12    2.34
   3   6  -8    0.62    0.21
   3   6  -8    0.26    0.11
  -3  -6   8    0.45    0.17
  -3  -6   8    0.20    0.10
   2   6  -8    1.32    0.44
   2   6  -8    1.74    0.40
   2   6  -8    2.76    2.66
  -2  -6   8    1.47    1.68
  -2  -6   8    1.74    0.22
  -2  -6   8    1.63    0.35
  -2  -6   8    2.05    0.26
   1   6  -8    0.27    0.64
   1   6  -8    1.33    0.25
   1   6  -8    0.65    0.22
   1   6  -8    0.70    0.29
   1   6  -8    0.12    2.10
  -1  -6   8    1.51    1.32
  -1  -6   8    0.85    0.17
  -1  -6   8    0.90    0.32
   0   6  -8   -0.95    0.77
   0   6  -8    0.55    0.20
   0   6  -8   -1.75    3.18
   0  -6   8    0.38    0.18
   0  -6   8    0.45    0.23
  -1   6  -8    1.49    2.07
  -1   6  -8    0.51    0.24
   1  -6   8    0.13    0.18
  -2   6  -8    2.06    0.38
  -2   6  -8    2.67    0.36
  -2   6  -8    0.92    2.66
   2  -6   8    1.97    0.30
   2  -6   8    1.74    0.42
  -3   6  -8   12.58    0.93
  -3   6  -8    8.28    3.02
  -3   6  -8   10.94    0.89
   3  -6   8   11.57    0.95
   3  -6   8   10.79    0.79
  -4   6  -8    0.71    0.18
  -4   6  -8    0.67    0.19
   4  -6   8    0.60    0.15
   4   5  -8    0.52    0.30
  -4  -5   8    0.66    0.17
  -4  -5   8    0.42    0.11
   3   5  -8    5.01    0.66
   3   5  -8    5.17    0.54
   3   5  -8    2.31    3.33
  -3  -5   8    4.72    0.53
  -3  -5   8    4.92    0.52
  -3  -5   8    4.24    1.92
  -3  -5   8    5.42    0.41
   2   5  -8    7.94    0.88
   2   5  -8    6.96    0.71
   2   5  -8    3.01    4.64
  -2  -5   8    7.13    0.71
  -2  -5   8    7.56    0.65
  -2  -5   8    7.54    2.33
  -2  -5   8    6.61    1.94
   1   5  -8    1.22    0.71
   1   5  -8    2.45    0.25
   1   5  -8    2.44    0.47
  -1  -5   8    2.61    0.45
  -1  -5   8    2.94    0.36
  -1  -5   8    2.76    0.97
  -1  -5   8    1.76    1.23
  -1  -5   8    2.52    0.22
   0   5  -8    1.41    0.67
   0   5  -8    1.02    0.17
   0   5  -8    0.03    4.61
   0   5  -8    1.07    0.34
   0   5  -8    1.30    0.30
   0  -5   8    1.71    0.21
   0  -5   8    1.19    0.13
   0  -5   8    1.64    0.82
   0  -5   8    1.51    0.37
   0  -5   8    0.77    0.24
  -1   5  -8    0.29    1.00
  -1   5  -8   -1.67    1.69
   1  -5   8    0.55    0.15
   1  -5   8    0.70    0.25
   1  -5   8   -1.27    0.96
   1  -5   8    0.15    0.90
  -2   5  -8   -3.89    4.33
  -2   5  -8    5.08    0.58
  -2   5  -8    8.89    1.66
  -2   5  -8    5.75    0.46
  -2   5  -8    5.66    0.69
   2  -5   8    5.74    0.60
   2  -5   8    5.55    0.51
  -3   5  -8    6.53    0.69
  -3   5  -8    6.33    0.62
  -3   5  -8    5.99    0.32
   3  -5   8    5.08    0.62
   3  -5   8    5.02    0.52
  -4   5  -8    0.03    0.15
  -4   5  -8    0.07    0.10
  -4   5  -8    0.00    0.02
  -4   5  -8   -0.05    0.20
   4  -5   8    0.20    0.11
   4  -5   8    0.00    0.06
  -5   5  -8    0.48    0.17
   5  -5   8    0.21    0.10
   5  -5   8    0.44    0.20
   4   4  -8    1.25    0.22
   4   4  -8    1.23    0.32
  -4  -4   8    0.71    0.18
  -4  -4   8    0.96    0.24
   3   4  -8    0.25    0.18
   3   4  -8   -0.62    2.69
  -3  -4   8    0.03    0.07
  -3  -4   8    0.01    0.13
   2   4  -8    8.55    0.87
   2   4  -8    7.53    0.67
  -2  -4   8    8.01    0.72
  -2  -4   8    7.39    0.68
  -2  -4   8    9.27    1.98
  -2  -4   8    7.74    0.46
  -2  -4   8    8.26    1.63
   1   4  -8   10.65    0.78
   1   4  -8   11.80    0.96
  -1  -4   8   10.28    0.77
  -1  -4   8    7.60    1.60
  -1  -4   8   12.37    0.54
  -1  -4   8   10.80    0.55
  -1  -4   8   10.02    0.90
  -1  -4   8   12.20    2.01
   0   4  -8    9.04    0.53
   0   4  -8    9.82    0.80
   0   4  -8    9.00    1.15
   0   4  -8    9.29    0.81
   0  -4   8   10.80    2.23
   0  -4   8    9.78    0.57
   0  -4   8    8.54    0.79
   0  -4   8   11.14    1.31
  -1   4  -8    2.45    0.31
  -1   4  -8    2.64    0.34
  -1   4  -8    2.36    0.87
  -1   4  -8    2.61    0.51
  -1   4  -8    0.59    3.09
   1  -4   8   -0.01    1.44
   1  -4   8    2.61    1.10
   1  -4   8    2.25    0.26
   1  -4   8    2.47    0.34
  -2   4  -8    4.96    0.27
  -2   4  -8   -3.17    3.21
  -2   4  -8    5.26    0.53
  -2   4  -8    5.35    0.41
   2  -4   8    7.74    1.65
   2  -4   8    5.09    0.56
   2  -4   8    5.25    0.45
  -3   4  -8   20.04    0.83
  -3   4  -8   21.95    1.44
  -3   4  -8   19.95    1.23
   3  -4   8   19.87    1.30
  -4   4  -8    0.08    0.15
  -4   4  -8   -0.24    1.11
  -4   4  -8   -0.30    0.19
  -4   4  -8    0.03    0.03
   4  -4   8    0.08    0.10
   4  -4   8    1.14    1.61
   4  -4   8   -0.01    0.04
  -5   4  -8    0.24    0.06
  -5   4  -8    0.20    0.11
   5  -4   8    0.25    0.18
   5  -4   8    0.19    0.11
   5   3  -8    0.60    0.19
   4   3  -8    0.46    0.20
   4   3  -8    0.22    0.14
  -4  -3   8    0.16    0.07
  -4  -3   8    0.33    0.16
  -4  -3   8    3.54    2.51
   3   3  -8   12.90    1.04
   3   3  -8   14.11    0.91
  -3  -3   8   12.51    1.03
  -3  -3   8   16.49    2.62
  -3  -3   8   13.73    0.67
  -3  -3   8   12.53    0.86
  -3  -3   8   14.43    0.78
   2   3  -8   13.23    0.85
   2   3  -8   12.47    1.26
  -2  -3   8   12.31    0.62
  -2  -3   8   13.88    2.39
  -2  -3   8   12.79    0.96
  -2  -3   8   12.24    0.88
   1   3  -8    5.73    0.57
   1   3  -8    5.82    0.49
   1   3  -8    4.98    0.69
  -1  -3   8    5.51    0.57
  -1  -3   8    4.84    0.39
  -1  -3   8    7.30    1.47
  -1  -3   8    4.49    1.06
   0   3  -8    1.21    0.88
   0   3  -8    1.29    0.21
   0   3  -8    1.52    0.95
   0   3  -8    0.81    0.23
   0   3  -8    0.96    0.34
   0   3  -8    1.66    0.37
   0  -3   8    1.04    0.45
   0  -3   8    0.75    0.76
   0  -3   8    1.11    0.20
  -1   3  -8    4.62    1.56
  -1   3  -8    1.02    0.53
  -1   3  -8    1.79    0.38
  -1   3  -8    1.29    0.37
   1  -3   8    1.62    0.26
   1  -3   8    2.09    0.81
   1  -3   8    1.47    0.20
  -2   3  -8   -0.18    0.21
  -2   3  -8    0.02    0.05
  -2   3  -8   -0.01    0.02
  -2   3  -8    0.20    0.10
   2  -3   8    0.13    0.11
   2  -3   8   -0.07    0.47
   2  -3   8    0.05    0.06
  -3   3  -8    0.29    0.64
  -3   3  -8    0.54    0.09
  -3   3  -8    1.01    0.28
   3  -3   8    0.63    0.18
   3  -3   8    0.52    0.26
  -4   3  -8   -0.09    0.10
  -4   3  -8    0.38    0.25
  -4   3  -8    0.02    0.03
   4  -3   8   -0.08    0.06
   4  -3   8    0.01    0.11
  -5   3  -8    0.23    0.13
  -5   3  -8    0.56    0.08
   5  -3   8    2.04    1.52
   5  -3   8    0.57    0.13
   5  -3   8    0.45    0.20
  -5  -2   8    0.60    0.17
  -5  -2   8    0.77    0.11
   4   2  -8    0.71    0.26
   4   2  -8    0.55    0.21
  -4  -2   8    0.54    0.28
  -4  -2   8    0.27    0.11
  -4  -2   8    0.45    0.14
  -4  -2   8    0.19    0.90
   3   2  -8    1.99    0.29
   3   2  -8    1.66    0.38
  -3  -2   8    1.91    0.43
  -3  -2   8    1.96    0.22
  -3  -2   8    5.07    1.63
  -3  -2   8    1.61    0.19
   2   2  -8   40.56    1.73
   2   2  -8   38.83    1.84
  -2  -2   8   37.43    1.80
  -2  -2   8   38.51    1.97
  -2  -2   8   38.85    1.54
  -2  -2   8   37.94    3.57
  -2  -2   8   42.57    4.18
   1   2  -8   49.29    3.89
   1   2  -8   54.23    2.31
   1   2  -8   53.24    3.15
   1   2  -8   59.90    2.41
  -1  -2   8   54.90    4.16
  -1  -2   8   51.68    3.73
  -1  -2   8   42.88    3.59
  -1  -2   8   53.51    3.08
   0   2  -8   20.42    1.96
   0   2  -8   17.41    2.29
   0   2  -8   17.66    1.15
   0  -2   8   21.42    2.57
   0  -2   8   21.25    0.97
   0  -2   8   18.43    1.57
   0  -2   8   20.71    2.32
   0  -2   8   18.86    1.64
  -1   2  -8   15.32    2.23
  -1   2  -8   12.31    0.86
  -1   2  -8   13.44    1.35
  -1   2  -8   15.04    0.89
   1  -2   8   14.59    1.54
   1  -2   8   12.86    0.83
   1  -2   8   13.42    2.03
  -2   2  -8    3.17    1.81
  -2   2  -8    6.08    0.56
  -2   2  -8    6.19    1.19
  -2   2  -8    7.06    0.75
   2  -2   8    7.95    1.23
   2  -2   8    6.77    0.53
   2  -2   8    6.70    0.62
  -3   2  -8   10.72    1.99
  -3   2  -8   10.05    0.75
  -3   2  -8   10.76    0.51
   3  -2   8   10.96    2.40
   3  -2   8   10.17    0.88
   3  -2   8   10.34    0.74
  -4   2  -8    2.53    0.43
  -4   2  -8    2.35    0.32
  -4   2  -8    2.49    0.19
   4  -2   8    2.24    0.35
   4  -2   8    2.40    0.43
  -5   2  -8    0.61    0.08
  -5   2  -8    0.55    0.17
   5  -2   8    0.50    0.13
   5  -2   8    1.05    0.27
  -5  -1   8    0.06    0.04
  -5  -1   8    0.17    0.10
   4   1  -8    1.77    0.33
  -4  -1   8    1.50    0.19
  -4  -1   8    1.45    0.18
  -4  -1   8    1.34    1.28
  -4  -1   8    1.54    0.43
   3   1  -8    0.50    0.21
  -3  -1   8    1.41    0.82
  -3  -1   8    0.82    0.15
  -3  -1   8    0.23    0.69
  -3  -1   8    0.56    0.14
  -3  -1   8    0.93    0.29
   2   1  -8    0.49    0.17
   2   1  -8   -0.05    0.42
  -2  -1   8    0.26    0.61
  -2  -1   8    1.21    0.90
  -2  -1   8    0.83    0.27
   1   1  -8   -0.12    0.26
   1   1  -8    0.51    0.54
   1   1  -8    0.35    0.12
  -1  -1   8    0.11    0.29
  -1  -1   8    0.65    0.75
  -1  -1   8    0.26    0.34
   0   1  -8    1.04    0.55
   0  -1   8    0.52    0.38
   0  -1   8    0.71    0.14
   0  -1   8    1.27    0.46
   0  -1   8    0.27    0.21
  -1   1  -8   16.89    2.30
  -1   1  -8   18.76    1.03
  -1   1  -8   19.04    1.51
   1  -1   8   17.27    2.33
  -2   1  -8    3.88    1.82
  -2   1  -8    5.06    0.54
  -2   1  -8    5.80    0.54
  -2   1  -8    5.46    0.65
   2  -1   8    9.22    1.96
   2  -1   8    6.33    1.10
   2  -1   8    5.99    0.58
   2  -1   8    6.71    0.52
  -3   1  -8    5.83    0.44
  -3   1  -8    5.34    0.55
  -3   1  -8    5.91    0.33
   3  -1   8    7.76    1.49
   3  -1   8    5.49    0.53
   3  -1   8    5.89    0.65
  -4   1  -8   -0.03    0.13
   4  -1   8    1.44    1.90
   4  -1   8    0.01    0.12
   4  -1   8   -0.02    0.11
  -5   1  -8    0.18    0.05
  -5   1  -8    0.00    0.15
   5  -1   8    0.23    0.09
   5  -1   8    0.24    0.17
  -5   0   8    0.65    0.22
  -5   0   8    0.60    0.10
   4   0  -8    5.94    0.54
  -4   0   8    7.20    0.75
  -4   0   8    7.11    0.45
  -4   0   8    8.09    2.55
  -4   0   8   10.17    2.84
  -4   0   8    6.62    0.45
   3   0  -8    4.27    0.32
  -3   0   8    3.55    0.49
  -3   0   8    3.82    1.48
  -3   0   8    3.17    1.38
  -3   0   8    3.27    0.29
  -3   0   8    3.53    0.33
  -3   0   8    3.09    0.40
   2   0  -8   14.22    0.72
  -2   0   8   11.62    2.02
  -2   0   8   16.31    2.52
   1   0  -8    0.00    0.17
   1   0  -8    0.02    0.33
   1   0  -8    0.02    0.07
  -1   0   8   -0.42    0.28
   0   0  -8    3.13    0.96
   0   0  -8    4.93    0.75
   0   0   8    4.54    1.06
   0   0   8    4.74    0.57
  -1   0  -8    9.30    1.11
  -1   0  -8    8.48    0.63
  -1   0  -8   10.30    1.55
  -1   0  -8    7.45    1.87
   1   0   8    9.05    1.08
   1   0   8    8.09    1.13
   1   0   8    8.03    1.15
   1   0   8    8.62    1.59
  -2   0  -8    3.75    0.41
  -2   0  -8    3.41    0.49
  -2   0  -8    3.88    0.92
  -2   0  -8    2.89    1.41
   2   0   8    4.37    1.35
   2   0   8    4.04    0.47
   2   0   8    4.40    0.40
   2   0   8    3.08    0.70
   2   0   8    4.14    0.93
   2   0   8    7.79    2.00
  -3   0  -8    0.24    0.26
  -3   0  -8    0.40    0.16
  -3   0  -8    0.30    0.12
  -3   0  -8    0.21    0.06
   3   0   8    0.24    0.14
   3   0   8    0.26    0.15
  -4   0  -8    4.46    0.40
  -4   0  -8    5.52    0.64
  -4   0  -8    4.95    0.30
  -4   0  -8    4.64    0.46
   4   0   8    3.96    0.47
  -5   0  -8    0.26    0.20
  -5   0  -8    0.31    0.06
   5   0   8    0.44    0.17
   5   0   8   -0.88    1.06
   5   0   8    0.61    0.20
  -5   1   8    0.48    0.20
  -5   1   8    0.41    0.10
  -5   1   8    0.33    0.09
  -4   1   8    0.55    0.15
  -4   1   8    0.83    0.12
  -4   1   8    0.57    0.19
  -4   1   8    0.79    0.28
   3  -1  -8   24.20    3.28
   3  -1  -8   26.44    1.11
   3  -1  -8   26.06    3.11
  -3   1   8   29.07    1.64
  -3   1   8   27.03    1.13
  -3   1   8   26.48    1.29
  -3   1   8   28.57    1.41
  -3   1   8   28.08    3.50
   2  -1  -8    7.62    1.69
   2  -1  -8    8.02    0.46
  -2   1   8    8.89    1.26
  -2   1   8    7.89    0.61
  -2   1   8    9.72    2.19
   1  -1  -8   38.56    2.77
   1  -1  -8   37.36    3.44
   1  -1  -8   35.91    2.78
   1  -1  -8   40.14    1.64
  -1   1   8   45.06    3.96
  -1   1   8   39.43    2.13
   0  -1  -8    4.68    1.01
   0  -1  -8    5.33    0.39
   0  -1  -8    5.60    1.12
   0   1   8    4.47    0.59
   0   1   8    5.52    1.13
  -1  -1  -8    7.99    1.69
  -1  -1  -8    7.35    0.60
  -1  -1  -8    9.40    0.61
  -1  -1  -8    7.03    1.10
   1   1   8    7.64    1.09
   1   1   8    8.46    0.56
   1   1   8    7.88    0.94
   1   1   8   10.21    1.78
  -2  -1  -8   18.50    2.12
  -2  -1  -8   17.59    0.89
  -2  -1  -8   14.92    1.06
  -2  -1  -8   18.38    1.22
   2   1   8   16.82    1.17
   2   1   8   19.29    1.05
   2   1   8   18.95    2.16
  -3  -1  -8   14.61    0.79
  -3  -1  -8   17.27    0.92
  -3  -1  -8   18.29    1.28
  -3  -1  -8   16.26    1.05
  -3  -1  -8   18.81    2.46
   3   1   8   16.47    1.08
   3   1   8   16.02    1.27
   3   1   8   18.32    2.44
  -4  -1  -8    2.41    0.42
  -4  -1  -8    2.92    0.38
  -4  -1  -8    2.71    0.31
  -4  -1  -8    3.32    0.22
   4   1   8    2.30    0.39
   4   1   8    3.89    0.57
  -5  -1  -8    1.09    0.10
   5   1   8    0.87    0.29
   5   1   8    0.02    1.21
   5   1   8    1.29    0.20
  -5   2   8    0.25    0.08
  -5   2   8    0.19    0.17
  -5   2   8    0.09    0.12
  -4   2   8    2.46    0.30
  -4   2   8    1.75    0.30
  -4   2   8    1.94    0.20
  -4   2   8    1.94    0.40
   3  -2  -8   -0.20    1.21
   3  -2  -8   -0.02    0.93
  -3   2   8    0.17    0.11
  -3   2   8    0.18    0.23
  -3   2   8   -0.02    0.66
  -3   2   8    0.16    0.12
   2  -2  -8  121.13    7.32
   2  -2  -8  120.00    4.29
  -2   2   8  133.00    8.72
  -2   2   8  115.75    5.55
  -2   2   8  109.05    4.39
  -2   2   8  116.87    4.47
   1  -2  -8   23.13    1.11
   1  -2  -8   21.22    2.50
   1  -2  -8   21.27    2.42
   1  -2  -8   23.09    1.03
  -1   2   8   23.32    1.84
  -1   2   8   26.03    2.61
  -1   2   8   20.46    2.49
   0  -2  -8    0.97    0.56
   0  -2  -8    1.46    0.24
   0   2   8    2.15    0.46
   0   2   8    0.77    0.42
   0   2   8    1.30    0.27
   0   2   8    1.71    0.67
  -1  -2  -8    0.47    0.36
  -1  -2  -8    0.47    0.90
   1   2   8    0.36    0.47
   1   2   8    0.90    0.20
   1   2   8    0.17    0.91
   1   2   8    1.00    0.29
  -2  -2  -8    0.55    0.25
  -2  -2  -8    0.42    0.25
  -2  -2  -8    0.43    0.82
  -2  -2  -8    0.30    0.09
  -2  -2  -8    0.37    0.11
   2   2   8    0.35    0.12
   2   2   8    0.77    0.50
   2   2   8    0.59    0.19
   2   2   8   -0.26    0.90
  -3  -2  -8   11.11    0.86
  -3  -2  -8   10.37    2.22
  -3  -2  -8   10.82    0.71
  -3  -2  -8   10.60    0.51
   3   2   8   10.64    1.02
   3   2   8    9.75    0.83
   3   2   8   11.53    2.10
  -4  -2  -8    0.15    0.10
  -4  -2  -8   -0.37    0.35
  -4  -2  -8    0.10    0.04
  -4  -2  -8    0.11    0.16
   4   2   8    0.45    0.29
   4   2   8   -1.57    1.37
   4   2   8    0.15    0.12
  -5  -2  -8    0.02    0.02
   5   2   8   -0.17    0.18
   5   2   8   -0.26    0.83
   5   2   8    0.20    0.08
  -5   3   8    0.53    0.19
  -5   3   8    0.50    0.12
  -4   3   8    1.39    0.32
  -4   3   8    2.34    1.99
   3  -3  -8    1.27    1.12
  -3   3   8    0.39    0.81
  -3   3   8    0.52    0.66
  -3   3   8    0.39    0.13
  -3   3   8    0.35    0.31
  -3   3   8    0.62    0.19
   2  -3  -8   15.89    0.78
   2  -3  -8   15.84    0.86
   2  -3  -8   15.19    2.28
  -2   3   8   13.33    0.92
  -2   3   8   14.40    2.56
  -2   3   8   17.82    1.07
  -2   3   8   11.11    1.77
  -2   3   8   14.82    0.93
   1  -3  -8   24.97    1.26
   1  -3  -8   25.01    1.15
   1  -3  -8   23.92    2.68
  -1   3   8   22.38    1.35
  -1   3   8   26.34    2.25
  -1   3   8   26.13    1.27
   0  -3  -8   20.02    1.05
   0  -3  -8   22.71    2.39
   0  -3  -8   18.86    2.94
   0  -3  -8   21.89    1.21
   0   3   8   19.07    1.29
   0   3   8   22.85    1.90
   0   3   8   21.59    2.05
   0   3   8   22.90    3.09
   0   3   8   19.75    1.12
  -1  -3  -8    3.25    0.24
  -1  -3  -8    3.40    0.35
  -1  -3  -8    4.49    0.96
  -1  -3  -8    3.28    0.40
  -1  -3  -8    4.89    2.74
   1   3   8    3.35    0.37
   1   3   8    2.58    0.43
   1   3   8    3.37    0.53
  -2  -3  -8   10.84    0.70
  -2  -3  -8    8.08    1.06
  -2  -3  -8    9.64    0.84
  -2  -3  -8   12.38    2.25
  -2  -3  -8   11.47    0.59
   2   3   8    9.35    0.76
   2   3   8   10.41    0.96
   2   3   8   10.34    0.99
  -3  -3  -8    5.15    0.51
  -3  -3  -8    4.72    0.56
  -3  -3  -8    4.42    0.26
   3   3   8    3.70    0.51
   3   3   8    4.40    0.65
   3   3   8    2.63    1.57
  -4  -3  -8    9.22    0.41
  -4  -3  -8    9.87    0.66
   4   3   8    8.37    0.86
   4   3   8    7.68    0.71
  -5   4   8    0.42    0.15
  -5   4   8    0.36    0.10
  -4   4   8    5.68    3.42
   3  -4  -8    0.51    0.19
   3  -4  -8    2.16    1.48
   3  -4  -8    0.73    0.18
  -3   4   8    0.46    0.18
  -3   4   8    0.01    0.94
  -3   4   8    0.53    0.20
  -3   4   8   -0.57    0.51
   2  -4  -8    0.62    0.15
   2  -4  -8    0.38    0.97
   2  -4  -8    0.64    0.19
  -2   4   8    1.23    0.89
  -2   4   8    1.31    0.34
  -2   4   8    0.63    0.22
  -2   4   8    0.63    0.17
   1  -4  -8    0.20    0.10
   1  -4  -8    0.51    0.18
   1  -4  -8    1.06    0.53
  -1   4   8    0.18    0.22
  -1   4   8    0.18    0.12
  -1   4   8    0.41    0.13
  -1   4   8   -0.74    1.53
  -1   4   8    0.20    0.50
   0  -4  -8    0.28    0.06
   0  -4  -8    0.51    0.18
   0  -4  -8    0.19    0.09
   0  -4  -8    0.46    0.19
   0  -4  -8    0.50    0.64
   0  -4  -8    0.29    0.08
   0   4   8    0.11    3.00
   0   4   8    0.36    0.12
   0   4   8   -0.03    0.16
  -1  -4  -8    1.57    0.16
  -1  -4  -8    1.22    0.36
  -1  -4  -8    1.40    0.90
  -1  -4  -8    1.62    0.25
  -1  -4  -8    1.66    0.32
   1   4   8   -2.21    2.22
   1   4   8    2.18    1.11
   1   4   8    2.04    0.42
   1   4   8    1.75    0.35
   1   4   8    1.85    0.35
  -2  -4  -8    2.03    0.28
  -2  -4  -8    2.16    0.21
  -2  -4  -8    4.11    1.52
  -2  -4  -8    2.51    0.40
   2   4   8    1.80    1.30
   2   4   8    1.81    0.32
   2   4   8    1.96    3.85
   2   4   8    2.88    0.49
  -3  -4  -8    0.64    2.31
  -3  -4  -8    0.82    0.33
  -3  -4  -8    0.65    0.23
   3   4   8    0.23    1.51
   3   4   8    0.89    0.31
   3   4   8    0.75    0.21
  -4  -4  -8    5.19    0.40
   4   4   8    4.59    0.45
   4   4   8    3.78    0.51
  -5   5   8    0.58    0.15
  -5   5   8    0.39    0.09
   4  -5  -8    0.97    0.26
   4  -5  -8    1.64    0.23
  -4   5   8    1.30    0.22
  -4   5   8    1.09    0.32
   3  -5  -8    1.48    0.27
   3  -5  -8    1.29    0.28
  -3   5   8    1.64    0.29
  -3   5   8    1.24    1.40
   2  -5  -8    2.03    0.33
   2  -5  -8    2.46    0.30
   2  -5  -8    2.09    0.77
  -2   5   8    2.16    0.42
  -2   5   8    2.09    0.34
  -2   5   8    2.14    0.32
   1  -5  -8    0.61    0.24
   1  -5  -8    0.97    0.12
   1  -5  -8    0.54    0.19
   1  -5  -8    0.35    0.70
  -1   5   8    0.65    0.20
  -1   5   8    1.39    0.78
  -1   5   8   -0.27    3.20
  -1   5   8    1.33    0.44
   0  -5  -8   14.20    1.09
   0  -5  -8   14.55    0.93
   0  -5  -8   15.11    0.68
   0  -5  -8   14.48    1.13
   0  -5  -8   14.35    2.24
   0  -5  -8   15.03    0.67
   0   5   8   15.76    0.93
   0   5   8   14.02    1.18
   0   5   8   15.21    2.15
  -1  -5  -8    2.36    1.25
  -1  -5  -8    0.55    0.44
  -1  -5  -8    1.38    0.29
  -1  -5  -8    1.04    0.15
   1   5   8   -0.38    1.57
   1   5   8    1.18    0.24
   1   5   8    1.21    0.44
   1   5   8    1.50    0.56
   1   5   8    1.83    1.34
  -2  -5  -8    1.08    1.55
   2   5   8    1.42    0.48
   2   5   8    0.36    2.28
   2   5   8   -0.04    0.37
  -3  -5  -8    2.19    0.36
   3   5   8    2.30    0.50
   3   5   8    1.71    0.30
   3   5   8    0.01    1.26
   4   5   8    0.58    0.13
   4  -6  -8    0.39    0.14
   4  -6  -8    0.29    0.09
  -4   6   8    0.14    0.09
   3  -6  -8    0.18    0.08
   3  -6  -8    0.10    0.13
  -3   6   8    0.14    0.10
  -3   6   8    0.09    0.10
   1  -6  -8    9.88    0.92
   1  -6  -8    9.86    0.47
   1  -6  -8    9.78    0.49
  -1   6   8   10.14    0.95
  -1   6   8    9.42    0.67
  -1   6   8    9.43    0.72
  -1   6   8    7.26    1.69
   0  -6  -8    0.42    0.11
   0  -6  -8    0.29    0.16
   0  -6  -8   -0.23    1.17
   0  -6  -8    0.83    0.46
   0  -6  -8    1.33    0.88
   0   6   8    0.37    1.92
   0   6   8    0.59    0.27
   0   6   8    0.82    0.21
   0   6   8    0.09    0.81
  -1  -6  -8    1.91    0.59
  -1  -6  -8    3.29    1.57
  -1  -6  -8    1.70    0.19
  -1  -6  -8    1.85    0.35
   1   6   8    0.78    0.90
   1   6   8    2.54    0.69
   1   6   8    0.64    3.80
  -2  -6  -8    0.55    0.25
  -2  -6  -8    0.74    0.15
   2   6   8    1.65    0.55
   2   6   8    0.66    0.22
   2   6   8    0.36    2.14
   3   6   8   -0.06    0.82
   3   6   8    1.05    0.23
  -4   7   8    0.08    0.07
  -4   7   8    0.04    0.04
   3  -7  -8    0.34    0.29
   3  -7  -8    0.28    0.10
   3  -7  -8    0.30    0.10
  -3   7   8    0.39    0.13
  -3   7   8    0.14    0.10
   2  -7  -8    0.60    0.23
   2  -7  -8    0.57    0.18
   2  -7  -8    1.12    0.12
  -2   7   8    0.91    0.24
  -2   7   8    0.98    0.22
  -2   7   8    1.68    0.45
   1  -7  -8    0.55    0.24
   1  -7  -8    0.22    0.11
   1  -7  -8   -1.67    1.21
   1  -7  -8    0.18    0.06
  -1   7   8    0.31    0.12
  -1   7   8    0.44    0.21
  -1   7   8   -1.31    1.43
  -1   7   8    0.10    0.14
   0  -7  -8    4.13    1.76
   0   7   8   -0.29    1.82
   0   7   8    2.34    1.41
  -1  -7  -8    0.30    0.17
  -1  -7  -8   -0.04    0.04
   1   7   8    0.32    0.20
   1   7   8   -0.69    2.13
  -2  -7  -8    0.85    0.28
   2   7   8    0.30    1.11
   2   7   8    0.92    1.71
   3  -8  -8    0.01    0.03
   3  -8  -8    0.03    0.06
   3  -8  -8    0.04    0.14
  -3   8   8   -0.01    0.05
  -3   8   8    0.07    0.08
   2  -8  -8    1.43    0.13
   2  -8  -8    0.94    0.30
   2  -8  -8    1.82    0.25
  -2   8   8    1.77    0.21
  -2   8   8    1.94    0.23
  -2   8   8    1.81    0.32
   1  -8  -8    0.06    0.09
   1  -8  -8    0.54    0.34
  -1   8   8    0.15    0.15
   0  -8  -8    0.34    0.10
   0   8   8    0.20    2.19
   0   8   8    0.64    0.27
  -1  -8  -8    1.08    0.32
  -1  -8  -8    0.53    0.10
   1   8   8    0.22    1.48
   1   8   8    1.32    0.41
   0   9  -9   -0.13    0.28
   0   9  -9    0.59    1.43
   0  -9   9    0.36    0.22
  -1   9  -9    0.39    0.21
   1  -9   9    0.37    0.39
  -2   9  -9    0.23    0.20
   2  -9   9    0.04    0.03
   2  -9   9    0.05    0.04
   2   8  -9   -0.13    1.23
  -2  -8   9    0.08    0.10
  -2  -8   9   -0.01    0.04
   1   8  -9    0.90    2.67
   0   8  -9    1.06    3.04
  -1   8  -9    0.27    2.71
  -1   8  -9    3.08    0.52
   1  -8   9    3.97    0.62
   1  -8   9    3.18    0.24
  -3   8  -9    0.46    0.22
  -3   8  -9    0.37    0.12
   3  -8   9    0.27    0.12
   3  -8   9    0.00    0.23
   3  -8   9    0.26    0.06
   3   7  -9    0.21    0.12
   2   7  -9    0.66    0.22
   2   7  -9    1.31    1.89
   2   7  -9    0.96    0.33
  -2  -7   9    0.79    0.27
  -2  -7   9    0.80    0.12
   1   7  -9    0.12    0.34
   1   7  -9   -0.48    2.91
   1   7  -9    0.53    0.19
  -1  -7   9    0.63    0.27
  -1  -7   9    0.72    0.14
   0   7  -9    0.30    0.25
   0  -7   9    0.06    0.18
   0  -7   9    1.07    1.33
  -1   7  -9    1.19    2.82
  -1   7  -9    0.44    1.74
  -1   7  -9    0.26    0.21
   1  -7   9    0.05    0.35
   1  -7   9   -0.38    0.31
   1  -7   9    0.07    0.06
   1  -7   9    0.13    0.11
  -2   7  -9   -3.12    1.62
   2  -7   9    0.46    0.22
  -3   7  -9    0.00    0.12
  -3   7  -9   -0.14    0.09
   3  -7   9    0.30    0.15
   3  -7   9   -0.07    0.06
  -4   7  -9    0.13    0.12
  -4   7  -9    0.41    0.11
   4  -7   9    0.34    0.18
   4  -7   9    0.30    0.11
   3   6  -9    1.51    0.40
   3   6  -9    2.43    2.48
   3   6  -9    1.44    0.33
  -3  -6   9    1.89    0.22
  -3  -6   9    1.53    0.33
  -3  -6   9    1.80    0.20
   2   6  -9    0.36    1.59
   2   6  -9    1.14    0.30
   2   6  -9    1.25    0.37
  -2  -6   9    1.34    1.60
  -2  -6   9    1.07    0.18
  -2  -6   9    1.41    0.21
  -2  -6   9    1.56    0.33
   1   6  -9   10.18    0.84
   1   6  -9    9.80    1.03
   1   6  -9   10.51    0.64
  -1  -6   9   11.82    0.58
  -1  -6   9   11.64    1.02
  -1  -6   9    9.09    2.11
  -1  -6   9    9.61    2.12
   0   6  -9    2.59    0.38
   0   6  -9    3.23    0.54
   0   6  -9    1.84    0.24
   0   6  -9   -0.64    2.65
   0   6  -9    2.37    0.53
   0  -6   9    2.25    0.20
   0  -6   9    2.70    0.47
  -1   6  -9   -1.55    1.58
  -1   6  -9   -0.65    0.84
  -1   6  -9    1.04    0.33
   1  -6   9    0.57    0.21
   1  -6   9    0.88    0.30
  -2   6  -9    0.12    1.00
  -2   6  -9   -1.16    1.53
  -2   6  -9    1.35    0.30
   2  -6   9    0.84    0.30
   2  -6   9   -0.42    2.16
   2  -6   9    1.22    0.28
   2  -6   9    1.75    0.34
  -3   6  -9    0.28    0.15
  -3   6  -9   -2.23    1.63
   3  -6   9    0.45    0.19
   3  -6   9    0.27    0.11
  -4   6  -9    1.40    0.26
  -4   6  -9    1.61    0.30
   4  -6   9    1.43    0.21
   4  -6   9    1.68    0.28
   4   5  -9   -0.06    0.09
   4   5  -9    0.30    0.24
  -4  -5   9    0.09    0.05
  -4  -5   9    0.00    0.04
   3   5  -9    0.26    1.99
   3   5  -9    0.27    0.15
   3   5  -9    0.34    0.22
  -3  -5   9    0.41    0.14
   2   5  -9    0.17    0.15
   2   5  -9   -0.80    1.05
   2   5  -9    0.10    0.12
  -2  -5   9   -1.84    1.91
  -2  -5   9    0.13    0.14
  -2  -5   9    0.44    0.16
  -2  -5   9    1.56    1.04
   1   5  -9    1.66    0.76
   1   5  -9    0.29    0.24
   1   5  -9    0.32    0.16
  -1  -5   9    0.32    0.15
  -1  -5   9   -0.20    0.70
  -1  -5   9    0.17    0.08
  -1  -5   9    0.59    0.25
  -1  -5   9   -0.24    0.70
   0   5  -9    1.14    0.28
   0   5  -9    0.54    0.30
   0   5  -9   -0.61    0.55
   0   5  -9    0.88    0.13
   0  -5   9    0.51    0.10
   0  -5   9    1.18    0.99
   0  -5   9    0.64    0.17
   0  -5   9    0.41    0.19
   0  -5   9    0.81    0.35
  -1   5  -9    0.00    0.61
  -1   5  -9    0.43    0.22
  -1   5  -9    0.52    3.38
  -1   5  -9    0.47    0.13
   1  -5   9    0.63    1.12
   1  -5   9    1.32    0.41
   1  -5   9    0.87    1.23
   1  -5   9    0.39    0.19
   1  -5   9    0.52    0.14
  -2   5  -9    0.40    0.20
  -2   5  -9    0.91    0.28
  -2   5  -9    0.32    0.12
  -2   5  -9   -0.32    0.86
  -2   5  -9    1.08    3.66
   2  -5   9    0.40    0.17
   2  -5   9    0.24    0.31
   2  -5   9   -1.12    0.95
   2  -5   9    0.38    0.14
  -3   5  -9    0.09    0.10
  -3   5  -9   -0.06    0.11
  -3   5  -9    0.03    0.03
   3  -5   9   -0.06    0.08
   3  -5   9    1.08    2.66
   3  -5   9    0.07    0.12
  -4   5  -9   -0.03    0.20
  -4   5  -9    0.13    0.08
   4  -5   9    0.59    0.18
   4  -5   9    0.00    0.05
  -5   5  -9    0.01    0.06
   5  -5   9    0.11    0.07
   4   4  -9    1.87    0.26
   4   4  -9    1.35    0.37
  -4  -4   9    1.16    0.18
  -4  -4   9    1.90    0.34
   3   4  -9    0.20    0.14
  -3  -4   9   -0.04    0.18
  -3  -4   9    0.14    0.10
  -3  -4   9    0.73    1.21
   2   4  -9    0.65    0.22
   2   4  -9    0.65    0.26
  -2  -4   9    0.53    0.13
  -2  -4   9    0.79    0.24
   1   4  -9    0.33    0.14
   1   4  -9    0.33    0.15
   1   4  -9    0.31    0.11
   1   4  -9   -0.06    0.40
  -1  -4   9   -0.43    0.33
  -1  -4   9    0.18    0.06
  -1  -4   9    0.02    0.19
  -1  -4   9    0.24    0.15
  -1  -4   9    0.44    0.59
   0   4  -9   18.16    0.88
   0   4  -9   18.95    1.08
   0   4  -9   18.46    1.26
   0   4  -9   15.69    1.09
   0  -4   9   18.14    1.24
   0  -4   9   18.80    1.96
   0  -4   9   18.94    0.90
   0  -4   9   21.50    2.07
  -1   4  -9    0.65    0.38
  -1   4  -9    0.51    0.20
  -1   4  -9    0.56    0.24
  -1   4  -9    1.05    0.38
  -1   4  -9    0.52    0.12
   1  -4   9    1.06    0.77
   1  -4   9    0.38    0.29
   1  -4   9    0.55    0.14
   1  -4   9    0.06    1.00
   1  -4   9    0.51    0.18
  -2   4  -9    2.34    6.12
   2  -4   9   -0.33    1.56
   2  -4   9    2.42    1.19
  -3   4  -9    1.62    0.14
  -3   4  -9    2.08    0.33
  -3   4  -9    1.75    0.89
  -3   4  -9    1.99    0.37
   3  -4   9   -1.22    1.65
   3  -4   9    1.56    0.27
   3  -4   9    1.52    0.30
  -4   4  -9    0.06    0.03
  -4   4  -9   -0.01    0.10
  -4   4  -9    0.10    0.16
   4  -4   9    0.11    0.07
   4  -4   9    0.20    0.16
   4  -4   9    0.13    1.41
  -5   4  -9    0.24    0.05
  -5   4  -9    0.05    0.09
   5  -4   9    0.12    0.15
   5  -4   9    0.31    0.10
  -5  -3   9   -0.02    0.03
  -5  -3   9    0.05    0.07
   4   3  -9    2.30    0.40
   4   3  -9    2.61    0.32
  -4  -3   9    3.44    0.58
   3   3  -9    8.77    0.81
   3   3  -9    9.35    0.71
  -3  -3   9    8.54    0.81
  -3  -3   9    6.81    0.61
  -3  -3   9    6.56    0.51
  -3  -3   9    3.85    2.30
  -3  -3   9    8.99    0.48
   2   3  -9   15.10    0.80
   2   3  -9   17.41    1.02
   2   3  -9   16.19    1.16
  -2  -3   9   16.43    1.13
  -2  -3   9   17.51    0.78
  -2  -3   9   16.25    1.07
  -2  -3   9   16.21    2.48
  -2  -3   9   16.80    2.61
   1   3  -9   28.73    1.41
   1   3  -9   29.17    1.61
   1   3  -9   22.44    2.34
   1   3  -9   30.58    1.80
  -1  -3   9   27.57    1.14
  -1  -3   9   30.46    3.07
  -1  -3   9   27.63    2.83
  -1  -3   9   26.79    1.55
   0   3  -9    5.93    0.49
   0   3  -9    5.37    0.59
   0   3  -9    5.15    0.79
   0   3  -9    8.80    1.92
   0   3  -9    5.95    0.59
   0  -3   9    5.41    0.92
   0  -3   9    5.34    0.46
   0  -3   9    5.41    0.94
  -1   3  -9    0.46    0.13
  -1   3  -9    0.40    0.14
  -1   3  -9   -0.03    0.14
  -1   3  -9    0.20    0.34
   1  -3   9    0.17    0.09
   1  -3   9   -0.03    0.37
  -2   3  -9    5.34    0.39
  -2   3  -9    4.60    0.51
  -2   3  -9    5.90    1.20
  -2   3  -9    5.20    0.74
  -2   3  -9    5.05    0.27
   2  -3   9    5.68    0.48
   2  -3   9    7.83    1.83
   2  -3   9    5.53    0.57
  -3   3  -9    1.22    0.12
  -3   3  -9    1.17    0.25
   3  -3   9    1.00    0.32
   3  -3   9    1.05    0.25
  -4   3  -9    0.19    0.18
  -4   3  -9    0.05    0.03
  -4   3  -9   -0.03    0.16
   4  -3   9    0.27    0.11
   4  -3   9    0.04    0.16
  -5   3  -9    0.09    0.06
  -5   3  -9    0.16    0.12
   5  -3   9    0.10    0.08
   5  -3   9    0.07    0.14
   5  -3   9    0.90    1.64
  -5  -2   9   -0.03    0.03
  -5  -2   9    0.13    0.09
   3   2  -9   -0.06    0.17
   3   2  -9   -0.22    0.13
  -3  -2   9   -0.01    0.14
  -3  -2   9    0.10    0.06
  -3  -2   9    0.26    0.09
  -3  -2   9   -0.31    0.81
   2   2  -9    0.63    0.21
   2   2  -9    0.93    0.23
  -2  -2   9    0.86    0.29
  -2  -2   9    0.81    0.64
  -2  -2   9    0.30    0.37
  -2  -2   9    0.77    0.75
  -2  -2   9    0.75    0.13
   1   2  -9    0.51    0.16
   1   2  -9    0.56    0.48
   1   2  -9    0.37    0.15
  -1  -2   9    0.55    0.45
  -1  -2   9    0.67    0.51
   0   2  -9   49.23    2.18
   0   2  -9   46.58    2.19
   0   2  -9   49.32    4.07
   0   2  -9   46.00    3.47
   0  -2   9   48.00    1.96
   0  -2   9   47.68    4.06
   0  -2   9   51.06    2.97
   0  -2   9   43.89    3.87
   0  -2   9   48.29    3.07
  -1   2  -9   16.81    2.74
  -1   2  -9   15.08    1.10
  -1   2  -9   15.93    1.49
  -1   2  -9   15.66    1.00
   1  -2   9   16.35    0.96
   1  -2   9   21.37    2.37
   1  -2   9   17.34    0.86
   1  -2   9   14.62    2.45
  -2   2  -9   12.05    1.62
  -2   2  -9   10.64    1.02
  -2   2  -9   10.74    0.78
  -2   2  -9   10.45    0.47
   2  -2   9   11.55    0.71
   2  -2   9   11.46    0.87
   2  -2   9   11.11    1.67
  -3   2  -9    4.83    0.28
  -3   2  -9    4.51    0.49
   3  -2   9    2.16    2.45
   3  -2   9    5.30    0.51
   3  -2   9    4.96    0.61
  -4   2  -9    0.07    0.04
  -4   2  -9    0.34    0.17
  -4   2  -9    0.22    0.20
   4  -2   9    0.00    0.09
   4  -2   9    0.12    0.11
  -5   2  -9    0.12    0.21
  -5   2  -9    0.10    0.04
   5  -2   9    0.23    0.10
   5  -2   9    0.10    0.16
  -5  -1   9    0.20    0.11
  -5  -1   9   -0.02    0.03
   4   1  -9    0.24    0.24
  -4  -1   9    0.50    0.14
  -4  -1   9    0.36    0.12
  -4  -1   9    0.57    0.25
  -4  -1   9    2.72    1.33
   3   1  -9    1.00    0.25
  -3  -1   9    0.44    0.12
  -3  -1   9    0.52    0.12
  -3  -1   9    0.88    0.86
  -3  -1   9    1.12    0.31
   2   1  -9   18.12    0.89
   2   1  -9   17.28    0.95
  -2  -1   9   14.43    2.33
  -2  -1   9   14.00    2.42
  -2  -1   9   17.62    0.82
   1   1  -9    0.22    0.29
   1   1  -9    0.35    0.11
   1   1  -9    0.65    0.55
   1   1  -9    0.24    0.11
  -1  -1   9    0.89    0.54
  -1  -1   9    0.28    0.47
  -1  -1   9    0.00    0.33
   0   1  -9   10.60    1.81
   0   1  -9   11.97    0.79
   0   1  -9   11.89    1.45
   0  -1   9   13.21    0.70
   0  -1   9   10.85    1.77
   0  -1   9   12.30    1.41
   0  -1   9   12.02    1.68
  -1   1  -9  103.26    6.76
  -1   1  -9  103.81    3.84
  -1   1  -9  102.60    4.00
   1  -1   9   95.72    3.96
   1  -1   9  109.83    3.82
   1  -1   9  100.94    5.34
  -2   1  -9    7.47    0.36
  -2   1  -9    6.08    0.82
  -2   1  -9    8.77    0.83
   2  -1   9    8.12    0.71
   2  -1   9    9.14    1.42
  -3   1  -9    6.86    0.84
  -3   1  -9    7.85    0.40
  -3   1  -9    7.81    0.86
   3  -1   9    6.30    0.61
   3  -1   9    0.47    2.81
   3  -1   9    9.91    2.02
   3  -1   9   13.12    3.00
   3  -1   9    7.58    0.79
  -4   1  -9    1.55    0.15
  -4   1  -9    1.61    0.36
  -4   1  -9    1.84    0.47
   4  -1   9    1.72    0.33
   4  -1   9    1.50    0.25
  -5   1  -9    1.97    0.14
  -5   1  -9    1.89    0.30
   5  -1   9    1.74    0.25
   5  -1   9    1.75    0.37
  -5   0   9    0.08    0.04
  -5   0   9    0.07    0.08
   4   0  -9    3.74    0.41
  -4   0   9    3.88    0.30
  -4   0   9    3.34    0.30
  -4   0   9    1.51    1.96
  -4   0   9    3.72    0.56
   3   0  -9    5.30    0.44
  -3   0   9    5.70    0.39
  -3   0   9    6.21    0.45
  -3   0   9    5.34    1.85
  -3   0   9    6.57    0.71
  -3   0   9    4.85    1.84
  -3   0   9    5.53    0.53
   2   0  -9    0.90    0.16
  -2   0   9    0.50    0.15
  -2   0   9    1.07    0.76
  -2   0   9    0.51    0.42
  -2   0   9    1.20    0.30
   1   0  -9    1.04    0.65
   1   0  -9    0.72    0.40
   1   0  -9    0.83    0.24
  -1   0   9    0.46    0.56
  -1   0   9    1.58    0.62
   0   0  -9   30.54    3.03
   0   0  -9   28.35    2.32
   0   0  -9   30.43    1.48
   0   0   9   33.70    3.18
   0   0   9   33.51    2.71
   0   0   9   32.52    1.81
  -1   0  -9   58.48    2.59
  -1   0  -9   57.24    3.54
  -1   0  -9   57.78    4.68
  -1   0  -9   58.02    2.49
   1   0   9   59.08    4.83
   1   0   9   57.23    2.32
   1   0   9   60.21    3.71
  -2   0  -9    7.23    0.62
  -2   0  -9    6.99    0.35
  -2   0  -9    7.00    1.24
  -2   0  -9    7.28    0.76
   2   0   9    8.50    0.97
   2   0   9    7.89    0.60
   2   0   9    8.72    1.55
   2   0   9    6.88    0.67
   2   0   9    8.26    1.52
  -3   0  -9    4.33    0.64
  -3   0  -9    3.26    0.43
  -3   0  -9    3.85    0.36
  -3   0  -9    3.79    0.24
   3   0   9    4.62    1.60
   3   0   9    4.02    0.46
   3   0   9    3.45    0.54
  -4   0  -9    0.46    0.10
  -4   0  -9    0.53    0.23
  -4   0  -9    0.94    0.29
   4   0   9    0.43    0.16
   4   0   9    0.28    0.22
  -5   0  -9    0.49    0.06
  -5   0  -9    0.27    0.15
   5   0   9    0.95    1.59
   5   0   9    0.48    0.20
   5   0   9    0.67    0.16
  -5   1   9    0.17    0.06
  -5   1   9    0.22    0.11
  -5   1   9    0.24    0.08
  -4   1   9    2.07    0.26
  -4   1   9    1.93    0.46
  -4   1   9    1.97    0.31
  -4   1   9    3.18    2.03
  -4   1   9    2.31    0.22
   3  -1  -9    0.09    0.13
   3  -1  -9    2.54    1.31
  -3   1   9    0.13    0.10
  -3   1   9    0.08    0.49
  -3   1   9   -0.05    0.08
   2  -1  -9   10.51    2.26
   2  -1  -9   12.02    0.67
  -2   1   9   13.28    1.40
  -2   1   9   12.40    0.77
  -2   1   9   10.91    0.68
  -2   1   9   12.10    0.96
  -2   1   9    9.69    2.01
   1  -1  -9    7.31    0.47
   1  -1  -9    8.03    1.30
   1  -1  -9    7.21    0.53
  -1   1   9    7.66    1.50
  -1   1   9    7.69    1.40
   0  -1  -9    9.87    1.69
   0  -1  -9   11.01    1.65
   0   1   9    8.71    1.65
   0   1   9    9.70    1.39
   0   1   9   11.35    0.90
  -1  -1  -9   15.68    2.85
  -1  -1  -9   13.21    0.74
  -1  -1  -9   12.96    0.84
  -1  -1  -9   11.16    1.41
  -1  -1  -9   12.07    0.85
   1   1   9   13.90    1.37
   1   1   9   12.58    1.45
   1   1   9   13.54    0.77
   1   1   9   12.67    2.26
   1   1   9   11.97    0.86
  -2  -1  -9    2.29    1.05
  -2  -1  -9    1.17    0.33
  -2  -1  -9    1.39    0.28
  -2  -1  -9    1.44    0.20
  -2  -1  -9    1.49    0.13
   2   1   9    1.44    0.30
   2   1   9    2.89    1.02
   2   1   9    1.30    1.76
   2   1   9    1.36    0.33
  -3  -1  -9    0.75    1.41
  -3  -1  -9    0.44    0.29
  -3  -1  -9    0.34    0.20
  -3  -1  -9    0.14    0.11
   3   1   9    0.88    2.66
   3   1   9    0.43    0.83
   3   1   9    0.13    0.17
  -4  -1  -9    2.70    0.20
  -4  -1  -9    2.75    0.37
  -4  -1  -9    2.10    0.45
   4   1   9    3.15    0.51
   4   1   9    2.39    0.36
  -5  -1  -9    1.27    0.10
   5   1   9    1.40    0.22
   5   1   9    1.17    0.28
  -5   2   9    0.23    0.18
  -5   2   9    0.41    0.09
  -5   2   9    0.01    0.16
  -4   2   9    0.10    0.19
  -4   2   9    0.16    0.09
  -4   2   9    0.04    0.08
   3  -2  -9    0.47    0.14
   3  -2  -9    8.98    5.40
  -3   2   9    0.71    0.30
  -3   2   9   -0.47    0.53
  -3   2   9   -0.28    1.22
  -3   2   9    0.26    0.16
  -3   2   9    0.22    0.12
   2  -2  -9    1.27    0.21
   2  -2  -9    1.39    0.73
  -2   2   9    0.14    0.79
  -2   2   9    1.56    0.78
  -2   2   9    1.38    0.23
  -2   2   9    0.97    0.21
   1  -2  -9    2.15    0.75
   1  -2  -9    2.28    0.24
   1  -2  -9    1.64    0.25
  -1   2   9    3.08    0.61
  -1   2   9    2.03    0.99
   0  -2  -9   18.41    0.96
   0  -2  -9   18.49    1.09
   0  -2  -9   16.48    2.06
   0   2   9   16.70    1.79
   0   2   9   18.76    1.44
   0   2   9   19.25    2.71
  -1  -2  -9    2.14    0.25
  -1  -2  -9    1.87    0.31
  -1  -2  -9    1.99    1.51
  -1  -2  -9    2.00    0.33
  -1  -2  -9    2.46    0.74
  -1  -2  -9    2.02    0.18
  -1  -2  -9    1.91    0.35
   1   2   9    1.61    0.27
   1   2   9    2.38    0.35
   1   2   9    0.19    1.36
   1   2   9   -0.18    1.48
   1   2   9    2.90    0.86
   1   2   9    1.97    0.57
  -2  -2  -9    0.91    0.31
  -2  -2  -9    0.81    0.10
  -2  -2  -9    0.83    0.19
  -2  -2  -9    0.83    0.28
   2   2   9    0.61    0.18
   2   2   9    0.60    0.24
   2   2   9    1.92    0.72
   2   2   9   -0.86    1.15
   2   2   9    0.16    0.47
  -3  -2  -9   49.87    2.09
  -3  -2  -9   48.69    1.75
  -3  -2  -9   38.87    4.43
  -3  -2  -9   48.31    2.30
   3   2   9   55.23    4.96
   3   2   9   45.84    2.56
   3   2   9   45.18    2.29
   4   2   9    2.89    2.05
  -5  -2  -9    0.39    0.05
   5   2   9   -0.02    0.72
   5   2   9    0.68    0.12
  -5   3   9    0.25    0.07
  -5   3   9    0.04    0.09
   4  -3  -9    0.24    0.21
  -4   3   9    0.20    0.09
  -4   3   9    0.45    0.23
  -4   3   9    0.30    0.17
   3  -3  -9    1.32    0.24
   3  -3  -9    1.18    0.22
  -3   3   9    1.31    0.40
  -3   3   9    0.99    1.00
  -3   3   9    2.66    1.13
  -3   3   9    1.16    0.33
   2  -3  -9    1.11    0.20
   2  -3  -9    0.72    0.19
   2  -3  -9    2.09    1.24
  -2   3   9    0.79    0.20
  -2   3   9    0.90    0.30
  -2   3   9    0.44    0.67
  -2   3   9    1.11    0.21
  -2   3   9    0.57    0.61
   1  -3  -9   20.73    1.13
   1  -3  -9   20.14    1.01
  -1   3   9   22.47    2.08
  -1   3   9   18.02    1.00
  -1   3   9   19.21    1.09
  -1   3   9   20.84    2.51
   0  -3  -9    0.67    0.22
   0  -3  -9    0.92    0.59
   0   3   9   -0.85    1.28
   0   3   9    0.18    0.30
   0   3   9    0.02    0.48
  -1  -3  -9    4.40    1.16
  -1  -3  -9    3.38    0.44
  -1  -3  -9    4.06    0.46
  -1  -3  -9    3.84    0.27
   1   3   9    0.54    1.96
   1   3   9    4.00    0.55
   1   3   9    4.14    0.43
   1   3   9    4.32    0.53
   1   3   9    4.51    0.97
  -2  -3  -9    5.00    1.91
  -2  -3  -9    5.91    0.62
  -2  -3  -9    5.42    0.46
  -2  -3  -9    4.53    0.64
  -2  -3  -9    5.30    0.35
   2   3   9    4.87    0.66
   2   3   9    6.39    0.82
   2   3   9    5.35    0.55
  -3  -3  -9   23.89    1.25
  -3  -3  -9   21.28    0.86
  -3  -3  -9   21.89    1.36
   3   3   9   22.27    1.59
   3   3   9   21.72    1.38
  -4  -3  -9    0.22    0.04
  -4  -3  -9    0.10    0.14
   4   3   9   -0.47    1.70
   4   3   9    0.15    0.10
   4   3   9    0.07    0.19
  -5   4   9    0.46    0.13
  -5   4   9    0.81    0.12
   4  -4  -9    0.34    0.16
   4  -4  -9    0.39    0.15
  -4   4   9    0.08    0.08
  -4   4   9   -0.02    0.09
   3  -4  -9    3.44    0.39
   3  -4  -9   11.27    3.94
   3  -4  -9    3.34    0.34
  -3   4   9    2.61    0.43
  -3   4   9    3.12    0.40
  -3   4   9    3.41    0.69
  -3   4   9    5.11    1.59
   2  -4  -9    3.43    1.51
   2  -4  -9    3.68    0.43
   2  -4  -9    3.90    0.37
  -2   4   9    3.26    0.50
  -2   4   9    3.53    0.45
  -2   4   9    5.66    1.18
  -2   4   9    3.74    0.43
   1  -4  -9    0.53    0.16
   1  -4  -9    0.84    0.63
   1  -4  -9    0.83    0.26
  -1   4   9    0.49    0.50
  -1   4   9    0.77    0.19
  -1   4   9    0.97    3.47
  -1   4   9    0.62    0.17
  -1   4   9    1.09    0.30
   0  -4  -9    0.34    0.09
   0  -4  -9    1.33    0.67
   0  -4  -9    0.38    0.20
   0  -4  -9    0.54    0.22
   0  -4  -9    0.16    0.07
   0   4   9    0.35    0.32
   0   4   9    0.81    0.30
   0   4   9   -0.17    1.88
   0   4   9    0.16    0.13
   0   4   9   -0.97    1.86
  -1  -4  -9    1.45    0.28
  -1  -4  -9    0.83    0.32
  -1  -4  -9    0.99    0.21
  -1  -4  -9    1.59    1.03
   1   4   9    1.57    1.21
   1   4   9    1.17    0.38
   1   4   9    1.93    0.61
  -2  -4  -9   12.39    2.34
  -2  -4  -9    8.55    0.49
  -2  -4  -9    8.06    0.78
   2   4   9   12.70    2.81
   2   4   9    7.80    0.87
   2   4   9    8.14    0.71
   2   4   9    8.62    1.04
  -3  -4  -9    4.02    2.30
  -3  -4  -9    0.97    0.35
   3   4   9    0.99    0.30
   3   4   9    0.31    1.54
   3   4   9    0.78    0.24
  -4  -4  -9    0.36    0.13
   4   4   9    0.35    0.14
   4   4   9    0.50    0.82
   4   4   9    0.67    0.26
  -5   5   9    0.01    0.05
  -5   5   9    0.02    0.04
   4  -5  -9    0.35    0.13
   4  -5  -9    0.06    0.15
  -4   5   9    0.06    0.07
  -4   5   9    0.06    0.05
  -3   5   9    2.27    1.72
   2  -5  -9   14.86    1.05
   2  -5  -9   15.56    0.93
   2  -5  -9   16.47    2.75
  -2   5   9   15.32    2.50
  -2   5   9   15.09    0.97
  -2   5   9   16.32    1.08
  -2   5   9   15.51    1.11
  -2   5   9   13.43    1.35
   1  -5  -9    6.31    1.70
   1  -5  -9    6.96    0.37
   1  -5  -9    6.05    0.58
   1  -5  -9    7.00    0.71
  -1   5   9    6.06    0.54
  -1   5   9    7.67    0.64
  -1   5   9    7.16    0.77
  -1   5   9    7.36    1.42
   0  -5  -9    0.87    0.30
   0  -5  -9    0.85    0.24
   0  -5  -9    0.72    0.97
   0  -5  -9    0.92    0.12
   0   5   9   -0.35    2.64
   0   5   9    1.32    0.24
   0   5   9   -0.65    3.37
   0   5   9    1.28    0.45
  -1  -5  -9    0.54    0.22
  -1  -5  -9   -0.04    0.12
  -1  -5  -9    0.04    0.15
  -1  -5  -9   -0.15    0.70
  -1  -5  -9    0.51    0.88
   1   5   9    0.65    0.21
   1   5   9    1.72    1.37
   1   5   9   -1.12    1.71
   1   5   9    0.27    0.25
   2   5   9    0.24    0.29
  -3  -5  -9    1.47    0.41
   3   5   9    0.32    1.87
   3   5   9    1.18    0.26
   3   5   9    1.21    0.40
   4  -6  -9    0.39    0.19
   4  -6  -9    0.14    0.11
   3  -6  -9    0.10    0.14
   3  -6  -9    0.15    0.13
   3  -6  -9    0.20    0.04
  -3   6   9    0.17    0.10
  -3   6   9    0.07    0.09
   2  -6  -9    0.55    0.17
   2  -6  -9    0.62    0.21
   1  -6  -9    1.98    0.18
   1  -6  -9    1.67    0.30
   1  -6  -9    1.38    0.40
  -1   6   9    1.97    0.31
  -1   6   9   -1.88    2.65
  -1   6   9    1.92    0.30
  -1   6   9    2.03    0.41
   0  -6  -9    2.31    0.21
   0  -6  -9    1.99    0.46
   0  -6  -9    2.08    0.32
   0   6   9    0.16    1.16
   0   6   9    2.94    0.54
   0   6   9    2.71    0.33
   0   6   9    1.12    1.01
  -1  -6  -9    0.53    0.13
  -1  -6  -9   -0.23    0.31
  -1  -6  -9    0.61    1.29
  -1  -6  -9    0.48    0.19
   1   6   9   -0.25    0.85
   1   6   9    0.25    3.51
   1   6   9   -0.44    1.59
   1   6   9    0.41    0.18
  -2  -6  -9    1.29    0.26
   2   6   9   -0.01    1.42
   2   6   9    1.94    0.61
   3   6   9   -0.69    1.34
   3   6   9   -0.32    0.74
   4  -7  -9   -0.15    0.13
  -4   7   9    0.10    0.05
  -4   7   9    0.09    0.06
   3  -7  -9    0.10    0.11
   3  -7  -9    0.11    0.04
   3  -7  -9    0.00    0.07
  -3   7   9    0.16    0.08
  -3   7   9    0.04    0.06
   2  -7  -9   -0.08    0.05
   2  -7  -9    0.00    0.02
  -2   7   9    0.02    0.07
  -2   7   9   -0.06    0.06
  -2   7   9   -0.26    0.19
   1  -7  -9    0.14    0.07
   1  -7  -9    0.26    0.12
  -1   7   9    0.37    0.13
  -1   7   9    0.39    0.23
  -1   7   9    0.33    0.14
   0  -7  -9   -0.08    0.10
   0  -7  -9   -0.67    0.38
   0  -7  -9    0.00    0.03
   0   7   9    0.01    2.02
   0   7   9    0.30    0.20
  -1  -7  -9    0.17    0.06
  -1  -7  -9    0.53    0.22
   1   7   9    0.50    0.45
   1   7   9   -0.09    1.58
  -2  -7  -9    0.09    0.10
   2   7   9    0.29    1.40
   2   7   9    0.17    1.61
   3  -8  -9    0.62    0.15
  -3   8   9    0.52    0.12
   2  -8  -9    0.92    0.21
   2  -8  -9    1.35    0.12
  -2   8   9    2.06    0.38
  -2   8   9    1.71    0.21
   1  -8  -9    0.47    0.41
   1  -8  -9    0.09    0.12
  -1   8   9    0.15    0.22
   0   8   9    1.17    0.37
   0   8   9    0.22    1.62
  -1  -8  -9    0.59    0.22
   1   8   9    0.25    0.33
   1   8   9    0.10    1.37
   0  -9  10    1.29    0.37
   0  -9  10    1.03    0.17
   0  -9  10    0.61    0.08
  -1   9 -10    0.56    0.24
   1  -9  10    0.41    0.59
  -2   9 -10    0.25    0.17
   2   8 -10   -0.27    1.51
  -2  -8  10    0.02    0.10
  -2  -8  10    0.15    0.05
   1   8 -10   -0.54    1.31
   1   8 -10    0.42    0.71
  -1  -8  10    0.22    0.16
   0   8 -10    2.35    0.69
   0  -8  10    1.83    0.36
   0  -8  10    1.23    0.13
  -1   8 -10    0.05    1.76
  -1   8 -10    1.32    0.43
   1  -8  10    1.37    0.52
   1  -8  10    0.86    0.12
  -3   8 -10    0.61    0.19
  -3   8 -10    0.15    0.11
   3  -8  10    0.20    0.05
   3  -8  10    0.35    0.11
   3   7 -10   -0.17    0.09
  -3  -7  10    0.23    0.06
   2   7 -10    0.24    0.14
   2   7 -10   -0.36    0.30
   2   7 -10   -1.18    1.00
  -2  -7  10    0.25    0.19
   1   7 -10    0.66    0.38
   1   7 -10    0.47    0.17
   1   7 -10    0.26    2.88
  -1  -7  10    0.30    0.10
  -1  -7  10    0.64    0.32
   0   7 -10    2.09    4.31
   0   7 -10    0.56    0.27
   0  -7  10    1.53    1.74
   0  -7  10    0.78    0.31
   0  -7  10    0.34    0.09
  -1   7 -10    0.76    3.60
  -1   7 -10    0.54    0.27
  -2   7 -10   -1.93    2.72
  -3   7 -10    1.90    0.34
  -3   7 -10    2.01    0.24
   3  -7  10    1.92    0.25
   3  -7  10    1.82    0.32
  -4   7 -10    0.63    0.11
   4  -7  10    0.63    0.10
   3   6 -10    1.47    0.25
   3   6 -10    0.89    0.36
   3   6 -10   -0.91    1.33
  -3  -6  10    1.38    0.23
  -3  -6  10    1.48    0.17
  -3  -6  10    1.36    0.20
   2   6 -10   -0.25    0.15
   2   6 -10    0.01    0.08
   2   6 -10   -0.02    0.52
  -2  -6  10    0.32    0.18
  -2  -6  10    0.01    0.04
   1   6 -10   -0.10    2.33
   1   6 -10    1.59    0.29
   1   6 -10    1.34    0.32
   1   6 -10    1.02    0.45
  -1  -6  10    1.87    1.27
  -1  -6  10    1.52    0.49
  -1  -6  10    1.55    0.16
  -1  -6  10   -0.22    1.56
   0   6 -10    0.14    2.29
   0   6 -10    1.32    0.33
   0   6 -10    1.94    0.47
   0   6 -10    2.21    0.47
   0   6 -10    2.09    1.45
   0   6 -10    1.43    0.20
   0  -6  10    1.20    0.14
   0  -6  10    1.62    0.52
  -1   6 -10   11.39    0.72
  -1   6 -10   11.86    1.00
  -1   6 -10   11.21    2.03
   1  -6  10   11.10    1.02
   1  -6  10   10.82    0.72
   1  -6  10   10.74    0.88
  -2   6 -10   32.53    1.86
  -2   6 -10   34.13    1.53
  -2   6 -10   30.48    1.61
  -2   6 -10   28.97    3.45
   2  -6  10   32.52    1.81
   2  -6  10   28.60    1.53
   2  -6  10   31.11    1.91
  -3   6 -10    0.30    0.16
  -3   6 -10    0.60    0.23
   3  -6  10    0.30    0.13
   3  -6  10    0.21    0.16
   3  -6  10    1.17    2.10
  -4   6 -10    0.01    0.06
   4  -6  10   -0.04    0.05
   4  -6  10    0.30    0.15
   4   5 -10    0.37    0.29
   4   5 -10    0.16    0.11
  -4  -5  10    0.00    0.06
  -4  -5  10    0.02    0.05
   3   5 -10    2.36    3.15
   3   5 -10    8.57    0.72
   3   5 -10    7.99    0.84
  -3  -5  10    7.15    0.65
  -3  -5  10    8.13    0.64
  -3  -5  10    8.15    0.54
   2   5 -10    1.07    0.28
   2   5 -10    1.19    0.42
  -2  -5  10    1.46    1.83
  -2  -5  10    1.47    0.43
  -2  -5  10    1.60    0.29
  -2  -5  10    3.18    1.48
   1   5 -10    1.88    0.23
   1   5 -10    1.90    0.51
   1   5 -10    1.71    0.37
  -1  -5  10    2.56    0.39
  -1  -5  10    1.93    1.08
  -1  -5  10    1.49    0.89
  -1  -5  10    1.69    0.37
  -1  -5  10    1.96    0.19
   0   5 -10    0.17    0.09
   0   5 -10    0.47    0.21
   0   5 -10    0.41    0.18
   0   5 -10    0.17    0.21
   0  -5  10    1.26    1.00
   0  -5  10    0.37    0.27
  -1   5 -10    0.46    0.18
  -1   5 -10   -0.71    0.62
  -1   5 -10    0.60    3.51
  -1   5 -10    0.21    0.11
   1  -5  10    0.58    0.19
   1  -5  10   -0.27    1.37
   1  -5  10    0.14    0.12
   1  -5  10    1.31    1.21
   1  -5  10    0.14    0.15
  -2   5 -10   48.47    2.45
  -2   5 -10   57.18    4.62
  -2   5 -10   50.68    2.42
  -2   5 -10   54.38    2.15
   2  -5  10   52.56    2.26
   2  -5  10   46.55    2.61
   2  -5  10   46.62    2.40
  -3   5 -10    5.53    0.59
  -3   5 -10    5.94    0.66
  -3   5 -10    6.31    2.11
  -3   5 -10    5.43    0.30
   3  -5  10    4.47    0.60
   3  -5  10    4.77    0.51
  -4   5 -10    0.14    0.06
  -4   5 -10   -0.01    0.02
  -4   5 -10    0.05    0.15
   4  -5  10   -0.03    0.12
   4  -5  10    0.20    0.09
  -5   5 -10    0.21    0.09
   5  -5  10    0.38    0.10
   4   4 -10    0.15    0.10
   4   4 -10    0.39    0.22
  -4  -4  10    0.04    0.08
   3   4 -10    5.01    0.67
   3   4 -10    4.60    0.52
  -3  -4  10    3.44    0.47
  -3  -4  10    4.54    0.57
  -3  -4  10    4.85    1.67
  -3  -4  10    4.30    0.46
   2   4 -10    0.64    0.17
   2   4 -10    0.46    0.18
   2   4 -10    0.48    0.26
  -2  -4  10    1.44    1.08
  -2  -4  10    0.52    0.12
  -2  -4  10    0.72    0.24
  -2  -4  10    1.08    0.76
   1   4 -10    0.08    0.13
   1   4 -10    0.70    0.62
   1   4 -10    0.22    0.07
   1   4 -10    0.27    0.15
  -1  -4  10    0.47    0.59
  -1  -4  10    0.33    0.12
  -1  -4  10    0.41    0.21
  -1  -4  10    0.61    0.22
   0   4 -10    1.02    0.30
   0   4 -10    1.42    0.40
   0   4 -10    1.13    0.17
   0   4 -10    0.86    0.23
   0   4 -10    0.78    0.61
   0  -4  10    1.33    0.31
   0  -4  10   -0.48    0.85
   0  -4  10    1.32    0.37
   0  -4  10    0.94    0.19
   0  -4  10   -0.03    0.55
  -1   4 -10    2.01    0.33
  -1   4 -10    2.05    0.23
  -1   4 -10    1.83    0.87
  -1   4 -10    2.08    0.37
   1  -4  10    2.11    0.43
   1  -4  10    2.21    0.85
   1  -4  10    1.65    0.25
   1  -4  10    2.29    0.34
   1  -4  10    0.27    1.53
  -2   4 -10   11.38    1.92
  -2   4 -10    4.24    7.05
  -2   4 -10   10.62    0.65
  -2   4 -10   11.52    0.93
   2  -4  10    9.58    0.73
   2  -4  10   13.54    2.24
   2  -4  10   10.36    0.86
   2  -4  10   11.50    1.01
  -3   4 -10    2.99    0.42
  -3   4 -10    3.65    0.54
  -3   4 -10    3.11    0.21
   3  -4  10    2.49    0.33
   3  -4  10    2.57    0.43
  -4   4 -10    1.44    0.32
  -4   4 -10    0.88    0.11
  -4   4 -10    0.59    0.21
   4  -4  10   -0.29    1.87
   4  -4  10    0.88    0.22
   4  -4  10    1.47    0.28
  -5   4 -10    0.25    0.14
  -5   4 -10    0.36    0.05
   5  -4  10    0.23    0.11
   5  -4  10    0.65    0.19
  -5  -3  10    0.03    0.03
  -5  -3  10   -0.04    0.05
   4   3 -10    0.40    0.14
   4   3 -10    0.07    0.18
  -4  -3  10    0.09    0.11
  -4  -3  10    0.02    0.05
   3   3 -10    1.18    0.35
   3   3 -10    1.13    0.27
  -3  -3  10    1.00    1.56
  -3  -3  10    1.28    0.39
  -3  -3  10   -0.50    0.70
  -3  -3  10    0.64    0.25
  -3  -3  10    0.89    0.14
   2   3 -10    4.42    0.55
   2   3 -10    4.08    0.44
  -2  -3  10    4.11    0.49
  -2  -3  10    4.02    0.31
  -2  -3  10    2.61    1.24
  -2  -3  10    5.85    1.88
  -2  -3  10    3.89    0.51
   1   3 -10    7.89    0.74
   1   3 -10    7.80    0.62
   1   3 -10    7.11    0.73
  -1  -3  10    8.10    0.69
  -1  -3  10    5.36    1.24
  -1  -3  10    7.44    0.70
  -1  -3  10    5.66    1.37
  -1  -3  10    7.26    0.42
   0   3 -10   13.24    0.83
   0   3 -10   12.46    1.02
   0   3 -10   12.19    0.95
   0   3 -10   12.06    2.62
   0   3 -10   12.57    0.97
   0  -3  10   11.51    2.36
   0  -3  10   12.74    1.47
   0  -3  10   11.29    2.19
   0  -3  10   11.80    0.75
   0  -3  10   14.54    1.20
   0  -3  10   13.42    1.59
   0  -3  10   10.60    0.57
  -1   3 -10    0.60    0.13
  -1   3 -10    1.32    0.56
  -1   3 -10   -1.05    1.92
  -1   3 -10    0.61    0.14
  -1   3 -10    0.34    0.15
   1  -3  10    0.55    0.69
   1  -3  10   -0.42    1.12
   1  -3  10    1.34    0.50
   1  -3  10   -0.84    1.11
   1  -3  10    0.69    0.19
  -2   3 -10   12.26    1.18
  -2   3 -10   11.36    0.64
  -2   3 -10   11.52    1.72
  -2   3 -10   10.36    0.83
   2  -3  10   11.61    0.88
   2  -3  10   12.88    1.98
   2  -3  10   11.68    0.75
   2  -3  10    9.23    1.03
  -3   3 -10    0.45    0.08
  -3   3 -10    0.25    0.92
  -3   3 -10    0.62    0.24
   3  -3  10    0.35    0.14
   3  -3  10    0.43    0.17
  -4   3 -10   11.15    0.77
  -4   3 -10   10.89    0.51
   4  -3  10   11.27    0.94
   4  -3  10   11.17    0.79
  -5   3 -10    0.19    0.11
   5  -3  10    0.63    0.90
   5  -3  10    0.09    0.07
  -5  -2  10    0.16    0.09
  -5  -2  10    0.17    0.06
   4   2 -10    1.27    0.30
  -4  -2  10    0.55    0.13
  -4  -2  10   -1.80    1.16
  -4  -2  10    0.82    0.31
   3   2 -10    0.90    0.22
   3   2 -10    0.47    0.22
  -3  -2  10    1.24    0.74
  -3  -2  10    0.38    0.22
  -3  -2  10    0.59    0.14
  -3  -2  10    0.53    0.16
   2   2 -10    2.52    0.33
   2   2 -10    1.95    0.32
  -2  -2  10    2.19    0.47
  -2  -2  10    1.99    0.20
  -2  -2  10    0.94    0.99
  -2  -2  10    1.11    0.66
  -2  -2  10    2.24    0.49
   1   2 -10   22.21    1.30
   1   2 -10   22.92    1.15
   1   2 -10   23.05    2.21
   1   2 -10   20.63    1.23
  -1  -2  10   23.74    2.45
  -1  -2  10   21.78    0.93
  -1  -2  10   22.83    2.73
  -1  -2  10   17.98    1.29
   0   2 -10    0.87    0.24
   0   2 -10    0.53    0.17
   0   2 -10    0.71    0.17
   0   2 -10   -0.22    0.61
   0  -2  10    0.83    0.20
   0  -2  10    0.18    0.37
   0  -2  10    0.25    0.69
  -1   2 -10    2.21    0.41
  -1   2 -10    1.05    1.38
  -1   2 -10    1.79    0.36
  -1   2 -10    2.71    0.56
  -1   2 -10    2.73    0.29
   1  -2  10    2.34    0.26
   1  -2  10    2.55    0.33
   1  -2  10    1.01    1.01
   1  -2  10    3.53    0.81
  -2   2 -10    0.46    0.07
  -2   2 -10    0.55    0.25
  -2   2 -10    0.31    0.49
  -2   2 -10    0.34    0.10
  -2   2 -10    0.34    0.20
   2  -2  10    0.67    0.21
   2  -2  10    1.59    0.91
   2  -2  10    0.27    0.13
   2  -2  10   -0.26    1.99
  -3   2 -10    1.14    0.12
  -3   2 -10    1.30    0.26
   3  -2  10    0.62    0.27
   3  -2  10   -0.28    1.64
   3  -2  10    0.88    0.22
  -4   2 -10    2.28    0.18
  -4   2 -10    1.64    0.29
  -4   2 -10    2.66    0.62
   4  -2  10    1.88    0.48
   4  -2  10    1.96    0.30
  -5   2 -10    0.11    0.13
  -5   2 -10    0.13    0.04
   5  -2  10    1.13    1.27
   5  -2  10    0.11    0.08
   5  -2  10    0.18    0.16
  -5  -1  10    0.15    0.10
   4   1 -10    4.02    0.50
  -4  -1  10    3.90    1.91
  -4  -1  10    6.05    0.82
  -4  -1  10    4.46    0.36
  -4  -1  10    4.83    0.34
   3   1 -10    1.68    0.28
  -3  -1  10    1.15    0.18
  -3  -1  10    1.40    0.43
  -3  -1  10    1.48    0.96
  -3  -1  10    1.29    0.20
   2   1 -10   17.73    1.03
   2   1 -10   19.41    0.95
   2   1 -10   13.55    2.09
  -2  -1  10   18.04    0.86
  -2  -1  10   17.53    1.03
  -2  -1  10   19.45    1.29
  -2  -1  10   18.99    2.74
   1   1 -10    1.03    0.48
   1   1 -10    0.27    0.18
   1   1 -10    0.14    0.11
   1   1 -10    0.38    0.11
  -1  -1  10    0.58    0.50
   0   1 -10   34.88    1.74
   0   1 -10   36.14    3.50
   0   1 -10   34.97    1.72
   0  -1  10   37.03    1.55
   0  -1  10   34.04    3.57
   0  -1  10   37.48    3.28
  -1   1 -10   46.08    2.06
  -1   1 -10   43.25    1.86
  -1   1 -10   44.02    4.65
  -1   1 -10   43.94    2.20
   1  -1  10   43.09    1.98
   1  -1  10   45.91    1.83
   1  -1  10   38.37    3.20
   1  -1  10   44.44    3.30
   1  -1  10   42.56    4.38
  -2   1 -10    0.35    0.07
  -2   1 -10    0.26    0.13
  -2   1 -10    0.28    0.18
   2  -1  10   -0.66    1.60
   2  -1  10   -0.18    0.53
   2  -1  10    0.36    0.20
   2  -1  10    0.36    0.14
   2  -1  10    1.28    0.65
  -3   1 -10    0.88    0.11
  -3   1 -10    1.11    0.35
  -3   1 -10    1.16    0.25
   3  -1  10    0.94    0.29
   3  -1  10    2.07    1.40
   3  -1  10   -1.17    2.04
   3  -1  10    0.99    0.23
  -4   1 -10    0.92    0.25
  -4   1 -10    0.60    0.09
  -4   1 -10    0.50    0.26
   4  -1  10    0.15    0.18
   4  -1  10   -0.92    1.36
   4  -1  10    0.39    0.15
  -5   1 -10    0.07    0.03
  -5   1 -10   -0.03    0.09
   5  -1  10    0.12    0.16
   5  -1  10    0.13    0.09
  -5   0  10    0.32    0.07
  -5   0  10    0.18    0.09
  -5   0  10   -0.03    0.23
  -4   0  10   -1.50    1.55
  -4   0  10    0.51    0.29
  -3   0  10    0.92    0.66
  -3   0  10    0.39    0.13
  -3   0  10    0.35    0.72
  -3   0  10    0.64    0.27
  -3   0  10    0.30    0.09
  -3   0  10    0.41    0.23
   2   0 -10    3.16    0.35
   2   0 -10    3.07    0.39
  -2   0  10    2.84    1.35
  -2   0  10    3.10    0.48
  -2   0  10    2.87    0.28
  -2   0  10    2.33    1.01
   1   0 -10    0.64    0.19
  -1   0  10    0.97    0.73
   0   0 -10    1.86    0.41
   0   0 -10    1.27    0.22
   0   0 -10    1.21    0.35
   0   0 -10    0.66    0.68
   0   0  10    2.10    0.95
  -1   0 -10    0.08    0.09
  -1   0 -10    1.43    1.02
   1   0  10    0.28    0.32
   1   0  10    0.02    0.08
   1   0  10    0.12    0.09
   1   0  10    0.10    0.36
  -2   0 -10    5.58    1.18
  -2   0 -10    5.49    0.66
  -2   0 -10    4.99    0.50
  -2   0 -10    4.99    0.28
   2   0  10    4.84    0.58
   2   0  10    5.31    0.98
   2   0  10    7.77    2.07
   2   0  10    5.38    0.51
  -3   0 -10    2.58    0.19
  -3   0 -10    3.06    0.58
  -3   0 -10    2.54    0.37
   3   0  10    2.34    0.43
   3   0  10    2.36    0.35
  -4   0 -10    0.31    0.07
  -4   0 -10    0.69    0.22
   4   0  10    0.44    0.17
   4   0  10    1.73    2.42
   4   0  10    0.48    0.16
  -5   0 -10    0.01    0.15
  -5   0 -10    0.07    0.02
   5   0  10    0.16    0.09
   5   0  10    0.23    0.20
   5   0  10    0.07    1.21
  -5   1  10    0.19    0.14
  -5   1  10    0.37    0.09
  -4   1  10    2.13    0.53
  -4   1  10    1.95    0.27
  -4   1  10    2.42    0.54
   3  -1 -10   -1.60    1.36
  -3   1  10    0.73    0.23
  -3   1  10    0.69    0.28
  -3   1  10   -0.34    0.81
  -3   1  10    0.64    0.16
  -3   1  10    0.44    0.13
   2  -1 -10   23.89    1.15
  -2   1  10   22.19    1.18
  -2   1  10   20.87    1.43
  -2   1  10   20.25    1.05
   1  -1 -10   59.28    2.47
   1  -1 -10   57.60    4.82
   1  -1 -10   58.56    2.34
  -1   1  10   58.11    4.84
   0  -1 -10   23.40    2.65
   0  -1 -10   23.27    1.13
   0  -1 -10   23.14    2.56
   0  -1 -10   21.56    1.23
   0   1  10   20.81    2.28
   0   1  10   26.64    1.44
   0   1  10   27.18    3.59
   0   1  10   22.98    1.42
  -1  -1 -10   52.36    2.44
  -1  -1 -10   56.20    3.69
  -1  -1 -10   49.52    5.14
  -1  -1 -10   54.82    2.24
  -1  -1 -10   55.80    2.43
   1   1  10   55.99    5.41
   1   1  10   54.66    2.29
   1   1  10   56.75    3.52
   1   1  10   56.09    2.49
  -2  -1 -10    6.01    0.70
  -2  -1 -10    6.74    1.88
  -2  -1 -10    5.62    0.55
  -2  -1 -10    5.55    0.29
   2   1  10    5.55    0.54
   2   1  10    0.66    3.53
   2   1  10    4.47    0.85
   2   1  10    7.34    1.36
  -3  -1 -10   19.58    1.22
  -3  -1 -10   19.11    0.79
  -3  -1 -10   21.18    1.56
  -3  -1 -10   13.37    2.79
   3   1  10   19.66    2.83
   3   1  10   22.25    1.50
   3   1  10   18.76    1.22
  -4  -1 -10    1.72    0.40
  -4  -1 -10    1.18    0.11
  -4  -1 -10    1.07    0.32
   4   1  10    1.12    0.30
   4   1  10    0.94    0.36
  -5  -1 -10    0.01    0.02
   5   1  10    0.28    0.10
   5   1  10   -0.80    0.68
  -5   2  10   -0.04    0.14
  -5   2  10    0.04    0.05
  -5   2  10   -0.16    0.11
  -4   2  10    0.45    0.16
  -4   2  10    0.45    0.13
  -4   2  10    0.38    0.22
   3  -2 -10    6.04    1.93
   3  -2 -10    4.64    0.45
  -3   2  10    5.92    2.19
  -3   2  10    4.23    1.94
  -3   2  10    5.24    0.65
  -3   2  10    4.99    0.52
  -3   2  10    4.30    0.43
   2  -2 -10    4.93    0.38
   2  -2 -10    4.75    0.43
  -2   2  10    4.53    0.46
  -2   2  10    4.38    0.41
  -2   2  10    4.37    1.05
  -2   2  10    3.58    0.47
   1  -2 -10   16.17    0.96
   1  -2 -10   15.56    0.83
  -1   2  10   16.83    1.48
  -1   2  10   14.29    0.89
  -1   2  10   12.57    0.98
   0  -2 -10    6.97    2.29
   0  -2 -10    3.25    1.07
   0  -2 -10    4.78    0.42
   0  -2 -10    4.41    0.47
   0   2  10    5.56    1.04
   0   2  10    4.57    0.42
   0   2  10    3.24    0.71
   0   2  10    3.46    0.49
   0   2  10    5.23    0.74
  -1  -2 -10   16.93    1.05
  -1  -2 -10   16.66    1.91
  -1  -2 -10   15.84    1.04
  -1  -2 -10   14.35    3.79
  -1  -2 -10   15.17    0.69
  -1  -2 -10   16.37    0.89
  -1  -2 -10   13.71    1.07
   1   2  10   17.95    3.44
   1   2  10   17.01    0.95
   1   2  10   14.48    1.13
   1   2  10   15.42    1.06
   1   2  10   14.80    1.37
   1   2  10   17.01    1.78
  -2  -2 -10    0.51    0.29
  -2  -2 -10    0.99    0.33
  -2  -2 -10    0.32    0.81
   2   2  10    1.07    0.57
   2   2  10    1.47    0.80
   2   2  10   -0.45    1.52
   2   2  10    0.90    0.31
   2   2  10    0.87    0.22
  -3  -2 -10   13.15    2.49
  -3  -2 -10   11.37    0.50
  -3  -2 -10   10.71    0.87
   3   2  10   10.36    0.87
   3   2  10   11.06    1.05
   3   2  10   10.84    2.46
  -4  -2 -10    0.08    0.13
  -4  -2 -10   -0.18    0.29
   4   2  10    0.29    0.13
   4   2  10    0.33    0.23
  -5   3  10   -0.04    0.07
  -5   3  10    0.09    0.04
   4  -3 -10    0.37    0.21
  -4   3  10   -0.11    0.21
  -4   3  10    0.03    0.06
  -4   3  10    0.01    0.09
   3  -3 -10    0.84    0.21
  -3   3  10    1.72    1.44
  -3   3  10    0.62    0.23
   2  -3 -10    1.65    1.05
   2  -3 -10    0.89    0.23
   2  -3 -10    1.07    0.20
  -2   3  10    1.13    0.32
  -2   3  10    1.08    0.29
  -2   3  10    1.58    0.98
  -2   3  10    0.91    0.24
   1  -3 -10    1.02    0.28
   1  -3 -10    1.27    0.21
   1  -3 -10    1.84    0.86
  -1   3  10    1.90    1.91
  -1   3  10    1.22    0.38
  -1   3  10    1.72    0.67
  -1   3  10    1.07    0.25
  -1   3  10    1.08    0.95
  -1   3  10    1.41    0.28
   0  -3 -10    5.52    0.50
   0  -3 -10    5.85    0.33
   0  -3 -10    6.29    1.65
   0   3  10    5.65    0.98
   0   3  10    5.81    0.66
   0   3  10    8.52    2.41
   0   3  10    5.99    0.52
  -1  -3 -10    0.38    0.09
  -1  -3 -10    0.77    0.28
  -1  -3 -10    0.56    0.24
  -1  -3 -10    0.50    0.19
  -1  -3 -10    0.53    0.59
  -1  -3 -10    0.70    0.18
   1   3  10    0.77    0.23
   1   3  10    0.74    0.34
   1   3  10    0.96    0.48
   1   3  10   -0.55    2.34
   1   3  10    0.70    0.20
  -2  -3 -10    7.72    1.66
  -2  -3 -10    5.73    0.68
  -2  -3 -10    6.18    0.66
   2   3  10    8.23    0.95
   2   3  10    5.39    0.69
   2   3  10    8.80    1.62
   2   3  10    6.09    0.62
  -3  -3 -10   10.98    0.46
  -3  -3 -10    9.25    3.12
  -3  -3 -10   10.08    1.19
   3   3  10   11.05    1.03
   3   3  10   11.56    0.89
  -4  -3 -10    1.20    0.08
  -4  -3 -10    1.18    0.23
   4   3  10    1.05    0.26
   4   3  10    0.06    1.89
   4   3  10    0.63    0.27
  -5   4  10    0.01    0.03
  -5   4  10    0.05    0.05
   4  -4 -10    0.60    0.26
   4  -4 -10    0.75    0.20
  -4   4  10    0.29    0.15
  -4   4  10    0.29    0.12
   3  -4 -10   16.34    0.91
   3  -4 -10   15.14    0.99
   3  -4 -10   11.22    4.65
  -3   4  10   11.38    2.56
  -3   4  10   15.01    0.98
  -3   4  10   16.77    1.25
  -3   4  10   16.97    1.18
   2  -4 -10    2.45    0.35
   2  -4 -10    2.27    0.31
   2  -4 -10    2.94    1.40
  -2   4  10    0.60    1.00
  -2   4  10    2.76    0.39
  -2   4  10    3.17    0.45
  -2   4  10    2.16    0.32
   1  -4 -10    0.18    0.07
   1  -4 -10    1.26    0.74
   1  -4 -10    0.15    0.06
   1  -4 -10    0.24    0.15
  -1   4  10    0.24    0.23
  -1   4  10    0.34    0.15
  -1   4  10   -0.50    2.58
   0  -4 -10    2.69    1.59
   0  -4 -10    2.74    0.22
   0  -4 -10    3.13    0.38
   0  -4 -10    3.12    0.45
   0   4  10    0.47    2.94
   0   4  10    4.80    1.27
   0   4  10    0.04    1.71
   0   4  10    2.85    0.49
   0   4  10    3.28    0.39
  -1  -4 -10    7.65    0.73
  -1  -4 -10    8.02    2.02
  -1  -4 -10    7.60    0.69
  -1  -4 -10    8.59    0.46
  -1  -4 -10    7.46    0.96
  -1  -4 -10    7.00    0.54
   1   4  10    7.72    0.60
   1   4  10    7.44    1.66
   1   4  10    6.95    0.83
  -2  -4 -10   -0.05    1.11
  -2  -4 -10    1.20    0.35
   2   4  10    5.14    2.12
   2   4  10    1.19    0.34
   2   4  10    1.20    0.29
   2   4  10    1.93    0.68
  -3  -4 -10    3.62    0.46
   3   4  10    3.51    0.45
   3   4  10    4.21    0.56
   3   4  10    0.35    2.30
  -4  -4 -10    1.64    0.21
   4   4  10   -0.09    1.02
   4   4  10    1.85    0.24
   4  -5 -10    0.09    0.18
   4  -5 -10   -0.05    0.11
  -4   5  10    0.11    0.06
  -4   5  10    0.16    0.09
   3  -5 -10    0.68    0.21
   3  -5 -10    0.78    0.10
   3  -5 -10    0.48    0.17
  -3   5  10    0.44    0.21
  -3   5  10    0.90    0.26
   2  -5 -10    5.97    0.33
   2  -5 -10    6.30    0.67
   2  -5 -10    6.71    2.45
   2  -5 -10    6.10    0.55
  -2   5  10    7.42    0.70
  -2   5  10    6.39    1.94
  -2   5  10    4.06    0.75
  -2   5  10    6.38    0.65
  -2   5  10    6.35    0.57
   1  -5 -10    5.64    1.78
   1  -5 -10    8.81    0.71
   1  -5 -10    8.76    0.45
   1  -5 -10    9.85    0.88
  -1   5  10    8.56    0.71
  -1   5  10    8.54    0.89
  -1   5  10    8.83    0.64
  -1   5  10    9.76    1.68
   0  -5 -10    1.78    1.12
   0  -5 -10    0.62    0.33
   0  -5 -10    0.06    0.12
   0   5  10   -0.20    3.01
   0   5  10   -0.49    0.47
   0   5  10    0.26    0.11
  -1  -5 -10    0.10    0.05
  -1  -5 -10   -0.87    0.81
  -1  -5 -10   -0.10    1.44
  -1  -5 -10    0.12    0.14
  -1  -5 -10    0.18    0.17
  -1  -5 -10   -0.08    0.14
   1   5  10    0.24    0.24
   1   5  10   -0.17    1.49
  -2  -5 -10    0.93    0.29
   2   5  10   -1.50    1.39
   2   5  10    1.10    0.49
   2   5  10    0.92    0.24
  -3  -5 -10    0.04    0.06
   3   5  10    0.06    1.02
   3   5  10    0.07    0.47
   4  -6 -10    0.78    0.17
   4  -6 -10    0.48    0.22
  -4   6  10    0.29    0.13
  -4   6  10    0.35    0.11
   3  -6 -10    0.90    0.25
   3  -6 -10    0.64    0.24
  -3   6  10    0.87    0.21
  -3   6  10    1.05    0.29
   2  -6 -10    2.03    0.29
   2  -6 -10    1.41    0.41
   2  -6 -10    1.80    0.15
  -2   6  10    2.23    0.56
  -2   6  10    1.61    0.27
  -2   6  10    1.04    0.26
  -2   6  10   -2.63    2.83
   1  -6 -10    0.95    0.11
   1  -6 -10    1.02    0.55
   1  -6 -10    0.87    0.25
  -1   6  10    1.00    0.33
  -1   6  10    0.98    0.27
  -1   6  10   -1.52    1.81
  -1   6  10    2.13    1.49
  -1   6  10    0.79    0.20
   0  -6 -10    0.90    0.25
   0  -6 -10    0.57    0.27
   0  -6 -10    1.06    0.15
   0   6  10    0.93    0.36
   0   6  10    0.06    1.61
  -1  -6 -10    7.23    2.63
  -2  -6 -10    4.04    0.50
  -3  -6 -10    0.30    0.14
   3   6  10   -0.31    0.43
   3   6  10   -0.43    0.55
   3  -7 -10    0.15    0.14
   3  -7 -10    0.04    0.07
   3  -7 -10    0.17    0.06
  -3   7  10   -0.01    0.08
  -3   7  10    0.04    0.08
   2  -7 -10    1.30    0.33
   2  -7 -10    1.50    0.25
   2  -7 -10    1.49    0.14
  -2   7  10    1.20    0.22
  -2   7  10    2.05    0.47
  -2   7  10    1.40    0.24
   1  -7 -10    1.33    0.14
   1  -7 -10    1.06    0.39
  -1   7  10    1.80    0.54
  -1   7  10    1.52    0.25
   0  -7 -10    0.26    0.35
   0   7  10    0.34    0.20
   0   7  10    0.86    1.08
  -1  -7 -10    0.86    0.32
  -1  -7 -10    0.28    0.08
   1   7  10   -0.14    0.37
   1   7  10    0.97    0.40
  -2  -7 -10    1.20    0.21
   2   7  10    0.14    1.88
   2   7  10   -0.92    1.42
   2  -8 -10   -0.23    0.17
   2  -8 -10    0.02    0.17
   2  -8 -10    0.08    0.04
  -2   8  10    0.36    0.23
  -2   8  10    0.17    0.10
  -2   8  10    0.14    0.11
   1  -8 -10    0.61    0.09
   1  -8 -10    0.28    0.12
  -1   8  10    0.72    0.27
   0  -8 -10    0.69    0.38
   0  -8 -10    0.28    0.06
   0   8  10    0.52    0.27
  -1  -8 -10    2.30    0.87
   1   8  10    2.95    0.63
   0   9 -11   -0.39    0.72
   0   9 -11    0.82    0.35
   0  -9  11    0.04    0.05
   0  -9  11   -0.21    0.16
   0  -9  11    0.20    0.13
  -1   9 -11    0.22    0.23
   1  -9  11    0.68    0.34
   2   8 -11   -1.08    0.92
   1   8 -11   -0.25    0.66
   1   8 -11    1.86    0.97
  -1  -8  11    0.36    0.10
  -1  -8  11    0.61    0.25
   0   8 -11   -0.27    2.44
   0  -8  11    0.00    0.17
   0  -8  11    0.05    0.04
  -1   8 -11    0.43    0.23
  -1   8 -11    0.47    1.38
  -3   8 -11    1.03    0.20
  -3   8 -11    1.28    0.27
   3  -8  11    1.38    0.12
   2   7 -11    0.49    0.17
   2   7 -11    0.11    0.34
   2   7 -11    0.40    1.02
  -2  -7  11    0.42    0.10
   1   7 -11   -0.46    0.37
   1   7 -11   -1.73    1.20
   1   7 -11    0.14    0.14
   0   7 -11    2.68    0.57
   0   7 -11    2.05    0.28
   0  -7  11    2.81    0.46
   0  -7  11    1.16    1.76
   0  -7  11    2.25    0.20
  -1   7 -11    2.10    0.37
   1  -7  11    1.72    0.17
   1  -7  11    6.18    2.29
  -2   7 -11    1.73    3.57
  -3   7 -11    0.37    0.14
  -3   7 -11    0.68    0.26
   3  -7  11    0.35    0.11
   3  -7  11    0.15    0.19
  -4   7 -11    0.16    0.08
   4  -7  11    0.09    0.07
   3   6 -11    2.44    0.44
   3   6 -11   -0.17    1.80
   3   6 -11    3.50    0.40
  -3  -6  11    3.09    0.27
  -3  -6  11    3.32    0.34
   2   6 -11    0.36    0.14
   2   6 -11    0.77    2.81
   2   6 -11   -0.08    0.20
  -2  -6  11    0.57    0.15
   1   6 -11    1.85    0.22
   1   6 -11    0.46    2.61
   1   6 -11    1.30    0.32
   1   6 -11    1.21    0.54
   1   6 -11    3.50    0.91
  -1  -6  11    1.48    0.16
  -1  -6  11    2.28    1.61
   0   6 -11    0.50    0.47
   0   6 -11    0.75    3.40
   0   6 -11    1.30    0.18
   0   6 -11    0.41    0.24
   0  -6  11    0.98    0.13
   0  -6  11    0.85    0.31
  -1   6 -11    1.88    0.26
  -1   6 -11    0.32    2.39
   1  -6  11    1.69    0.22
   1  -6  11    2.70    0.42
  -2   6 -11    0.10    0.07
  -2   6 -11   -0.02    0.18
  -2   6 -11    0.58    0.27
   2  -6  11   -0.03    0.13
  -3   6 -11    0.03    0.14
  -3   6 -11   -0.04    0.11
   3  -6  11    0.11    0.07
   3  -6  11    0.30    1.16
   3  -6  11   -0.05    0.12
  -4   6 -11    0.16    0.08
   4  -6  11    0.24    0.15
   4   5 -11    0.34    0.15
   4   5 -11    0.89    0.36
  -4  -5  11    0.59    0.13
  -4  -5  11    0.30    0.09
   3   5 -11    0.06    2.28
   3   5 -11    3.83    0.44
   3   5 -11    3.81    0.54
  -3  -5  11    3.37    0.39
  -3  -5  11    3.27    0.40
  -3  -5  11    3.85    0.34
  -2  -5  11    1.71    1.44
  -2  -5  11    0.97    1.86
   1   5 -11    0.29    0.12
   1   5 -11    0.58    0.20
  -1  -5  11   -1.07    0.90
  -1  -5  11    0.40    0.27
  -1  -5  11    0.67    0.31
   0   5 -11    0.41    0.18
   0   5 -11   -0.26    0.18
   0   5 -11    0.08    0.07
   0   5 -11   -0.06    0.11
   0  -5  11   -0.02    0.05
   0  -5  11    0.13    0.41
   0  -5  11   -0.73    1.86
   0  -5  11    0.06    0.10
  -1   5 -11    2.65    0.44
  -1   5 -11   -0.60    2.44
  -1   5 -11    3.25    0.34
   1  -5  11    3.25    0.34
   1  -5  11    3.02    0.40
   1  -5  11    0.75    2.24
   1  -5  11    3.64    0.56
  -2   5 -11   21.51    1.38
  -2   5 -11   19.94    1.27
  -2   5 -11   18.77    1.03
  -2   5 -11   21.95    2.66
   2  -5  11   18.40    1.27
   2  -5  11   18.65    1.12
   2  -5  11   21.75    1.50
  -3   5 -11    2.01    1.93
  -3   5 -11    0.45    0.16
  -3   5 -11    0.58    0.22
   3  -5  11    0.64    0.24
   3  -5  11    0.29    0.12
   3  -5  11   -0.34    1.58
  -4   5 -11    0.28    0.16
   4  -5  11    0.25    0.10
   4  -5  11    0.45    0.22
   4  -5  11   -0.58    1.74
   4   4 -11    1.70    0.35
   4   4 -11    2.77    0.31
  -4  -4  11    2.65    0.25
  -4  -4  11    2.40    0.36
   3   4 -11   16.24    1.07
   3   4 -11   15.49    1.24
  -3  -4  11   14.26    1.11
  -3  -4  11   14.71    0.84
  -3  -4  11   14.60    0.91
  -3  -4  11   16.52    0.75
   2   4 -11    1.29    0.36
   2   4 -11    1.36    0.20
   2   4 -11    1.27    0.31
  -2  -4  11    0.81    1.14
  -2  -4  11    1.10    0.16
  -2  -4  11    1.45    0.47
  -2  -4  11    2.43    1.63
  -2  -4  11    1.00    0.33
   1   4 -11    2.67    0.41
   1   4 -11    3.01    0.28
   1   4 -11    3.54    0.53
  -1  -4  11    1.72    1.08
  -1  -4  11    3.25    1.13
  -1  -4  11    3.07    0.25
  -1  -4  11    2.38    0.26
  -1  -4  11    3.76    0.45
   0   4 -11    1.81    0.50
   0   4 -11    1.66    0.21
   0   4 -11    1.56    0.29
   0   4 -11    1.52    0.32
   0   4 -11    2.38    0.91
   0  -4  11    2.19    0.90
   0  -4  11    0.47    1.57
   0  -4  11    3.09    1.52
   0  -4  11    0.44    0.81
   0  -4  11    1.74    0.38
  -1   4 -11    0.07    0.11
  -1   4 -11    0.01    0.05
  -1   4 -11    0.43    0.42
  -1   4 -11    0.12    0.17
   1  -4  11    0.17    0.21
   1  -4  11    0.15    0.08
   1  -4  11    0.83    2.00
  -2   4 -11   38.66    2.06
  -2   4 -11   40.71    1.71
  -2   4 -11   42.63    3.65
  -2   4 -11   40.77    1.47
   2  -4  11   40.59    2.07
   2  -4  11   39.95    1.85
   2  -4  11   35.68    2.22
  -3   4 -11   -0.24    1.17
  -3   4 -11    0.48    0.08
  -3   4 -11    0.61    0.24
  -3   4 -11    0.70    0.30
   3  -4  11    0.84    0.27
   3  -4  11    0.64    0.20
   3  -4  11   -0.37    1.19
  -4   4 -11    1.64    0.36
  -4   4 -11    1.41    0.41
  -4   4 -11    1.09    0.11
   4  -4  11    1.23    0.33
   4  -4  11    1.10    0.27
   4  -4  11    0.51    1.14
  -5   4 -11    0.51    0.06
  -5   4 -11    0.45    0.14
   5  -4  11    0.55    0.12
   4   3 -11    0.55    0.20
   4   3 -11    0.65    0.27
  -4  -3  11    0.23    0.09
  -4  -3  11    0.35    0.14
   3   3 -11   25.44    1.41
   3   3 -11   25.08    1.62
  -3  -3  11   24.48    1.63
  -3  -3  11   23.05    3.50
  -3  -3  11   26.02    1.11
   2   3 -11    7.67    0.67
   2   3 -11    8.49    0.84
  -2  -3  11   11.09    2.20
  -2  -3  11    7.37    2.14
  -2  -3  11    8.31    0.80
  -2  -3  11    8.05    0.48
   1   3 -11   12.00    1.00
   1   3 -11    9.40    0.86
   1   3 -11   12.51    0.84
  -1  -3  11   12.12    2.06
  -1  -3  11   11.06    0.58
  -1  -3  11   11.25    0.94
  -1  -3  11   11.39    1.80
  -1  -3  11   12.74    0.94
   0   3 -11   -0.05    0.09
   0   3 -11    0.33    0.18
   0   3 -11    0.13    0.08
   0  -3  11    0.62    0.23
   0  -3  11   -0.18    0.19
   0  -3  11   -0.13    0.54
   0  -3  11    1.13    0.75
   0  -3  11    0.06    1.33
   0  -3  11    0.01    0.04
  -1   3 -11    0.52    0.25
  -1   3 -11    1.01    0.30
  -1   3 -11    0.78    0.29
  -1   3 -11    0.88    0.21
  -1   3 -11    0.88    0.17
   1  -3  11    1.21    0.24
   1  -3  11    0.87    1.84
   1  -3  11    1.00    0.21
   1  -3  11    1.02    0.65
  -2   3 -11    9.34    0.58
  -2   3 -11    9.56    0.44
  -2   3 -11    9.28    1.02
  -2   3 -11    9.44    0.79
  -2   3 -11   10.66    1.66
   2  -3  11   10.32    0.83
   2  -3  11    9.36    0.96
   2  -3  11   11.57    2.22
   2  -3  11    9.13    0.67
  -3   3 -11    1.47    0.40
  -3   3 -11    1.17    0.12
   3  -3  11    1.79    0.32
   3  -3  11    0.84    0.23
  -4   3 -11    5.10    0.29
  -4   3 -11    4.87    0.49
  -4   3 -11    6.22    0.85
   4  -3  11    4.59    0.56
   4  -3  11    4.73    0.47
  -5   3 -11    0.47    0.06
  -5   3 -11    0.45    0.19
   5  -3  11    0.54    0.94
   5  -3  11    0.26    0.11
   5  -3  11    0.35    0.29
  -5  -2  11    0.03    0.06
  -5  -2  11    0.01    0.03
   4   2 -11    1.44    0.33
  -4  -2  11    1.32    0.16
  -4  -2  11    2.37    0.58
  -4  -2  11    1.57    0.20
  -3  -2  11    1.20    1.05
  -3  -2  11    2.14    1.34
   2   2 -11    0.66    0.23
   2   2 -11    0.73    0.22
  -2  -2  11    0.68    0.27
  -2  -2  11    0.48    0.51
  -2  -2  11    1.54    0.77
  -2  -2  11    0.56    0.12
   1   2 -11    0.46    0.20
   1   2 -11    0.83    0.21
  -1  -2  11    1.50    0.86
  -1  -2  11   -0.32    0.88
  -1  -2  11    0.45    0.10
  -1  -2  11    0.22    0.25
   0   2 -11    3.09    0.45
   0   2 -11    1.63    1.36
   0   2 -11    3.14    0.41
   0   2 -11    2.82    0.35
   0  -2  11    3.32    1.24
   0  -2  11    2.29    0.36
   0  -2  11    3.28    0.43
   0  -2  11    2.95    0.89
   0  -2  11    2.03    1.26
  -1   2 -11    8.65    0.40
  -1   2 -11    8.65    0.73
  -1   2 -11   10.08    0.67
  -1   2 -11   10.24    1.11
  -1   2 -11    8.43    2.81
  -1   2 -11    9.07    0.78
   1  -2  11    9.91    0.59
   1  -2  11    9.93    0.70
   1  -2  11    9.52    1.49
   1  -2  11   12.86    2.54
  -2   2 -11    2.15    0.24
  -2   2 -11    2.88    0.50
  -2   2 -11    2.30    0.16
  -2   2 -11    1.64    0.33
   2  -2  11    0.63    0.92
   2  -2  11    1.11    0.65
   2  -2  11    3.81    1.35
   2  -2  11    1.87    0.28
   2  -2  11   -0.26    1.22
   2  -2  11    1.93    0.34
   3  -2  11    1.43    1.82
   3  -2  11    0.93    2.10
  -4   2 -11    1.71    0.15
  -4   2 -11    1.78    0.30
  -4   2 -11    1.60    0.43
   4  -2  11    1.79    1.89
   4  -2  11    1.59    0.26
   4  -2  11    1.69    0.41
  -5   2 -11    0.03    0.08
  -5   2 -11    0.13    0.04
   5  -2  11    0.34    0.80
   5  -2  11    0.04    0.07
  -5  -1  11    1.24    0.12
  -5  -1  11    1.46    0.24
  -4  -1  11   -5.41    3.77
  -4  -1  11    0.38    0.19
   3   1 -11    0.40    0.16
   3   1 -11    0.13    0.17
  -3  -1  11    0.10    0.15
  -3  -1  11   -0.16    0.69
  -3  -1  11    0.12    0.07
  -3  -1  11    0.03    0.05
  -3  -1  11   -0.73    0.80
   2   1 -11    8.63    0.60
   2   1 -11    8.94    0.67
   2   1 -11    8.52    0.68
  -2  -1  11    8.52    1.93
  -2  -1  11   10.21    2.03
  -2  -1  11    8.26    0.51
  -2  -1  11    7.70    0.65
  -2  -1  11    9.43    0.88
   1   1 -11    7.43    0.62
   1   1 -11    8.23    0.55
   1   1 -11    7.60    0.60
  -1  -1  11    6.13    0.72
  -1  -1  11    6.12    1.40
  -1  -1  11    6.69    0.41
  -1  -1  11    9.22    1.96
   0   1 -11    9.73    0.76
   0   1 -11    9.37    0.74
   0   1 -11   10.15    0.65
   0   1 -11    6.74    1.74
   0  -1  11    9.30    1.57
   0  -1  11    9.11    0.61
   0  -1  11    9.52    1.99
  -1   1 -11    1.23    0.34
  -1   1 -11    1.96    1.42
  -1   1 -11    1.39    0.20
  -1   1 -11    0.03    0.53
  -1   1 -11    1.04    0.28
   1  -1  11    0.11    1.33
   1  -1  11    0.94    0.17
   1  -1  11    0.72    0.22
   1  -1  11    0.07    0.45
   1  -1  11    0.68    2.08
   1  -1  11    0.69    0.46
  -2   1 -11    0.75    0.25
  -2   1 -11    0.42    0.21
  -2   1 -11    0.55    0.07
   2  -1  11   -0.05    0.60
   2  -1  11    0.96    0.48
   2  -1  11    1.28    1.20
   2  -1  11    2.64    1.13
   2  -1  11    0.55    0.20
   2  -1  11    0.61    0.29
  -3   1 -11    2.30    0.36
  -3   1 -11    1.92    0.55
  -3   1 -11    2.23    0.17
   3  -1  11    2.21    1.80
   3  -1  11    0.01    1.66
   3  -1  11    2.21    0.40
   3  -1  11    2.39    0.41
  -4   1 -11    9.93    0.45
  -4   1 -11    8.97    0.70
   4  -1  11    8.80    0.71
   4  -1  11    8.71    0.86
  -5   1 -11    0.79    0.08
  -5   1 -11    0.59    0.16
   5  -1  11    0.85    0.25
   5  -1  11    0.87    0.15
  -5   0  11    0.03    0.10
  -5   0  11    0.28    0.12
  -5   0  11    0.33    0.07
  -4   0  11    2.95    2.41
  -4   0  11    2.01    0.52
  -4   0  11    1.82    0.21
  -4   0  11    1.59    0.19
   3   0 -11    0.48    0.26
   3   0 -11    0.35    0.15
  -3   0  11    0.07    0.15
  -3   0  11    0.02    0.19
  -3   0  11    0.19    0.10
  -3   0  11    0.40    1.03
   2   0 -11    0.14    0.11
   2   0 -11    0.09    0.13
  -2   0  11   -0.18    0.28
  -2   0  11    0.16    0.09
  -2   0  11    0.05    0.20
  -2   0  11    0.03    0.16
  -2   0  11    0.57    0.19
   1   0 -11    4.22    0.38
   1   0 -11    3.96    0.43
  -1   0  11    5.33    1.72
   0   0 -11    0.28    0.11
   0   0 -11    1.51    0.96
   0   0  11    1.10    0.91
   0   0  11   -0.21    0.30
   0   0  11    0.57    0.35
  -1   0 -11    0.84    0.84
  -1   0 -11    1.77    1.46
  -1   0 -11    1.58    0.39
  -1   0 -11    1.74    0.25
  -1   0 -11    2.09    0.35
   1   0  11    1.00    0.58
   1   0  11    1.50    0.22
   1   0  11    0.94    2.15
   1   0  11    0.83    0.57
   1   0  11    1.65    0.28
  -2   0 -11    6.57    0.31
  -2   0 -11    4.83    1.43
  -2   0 -11    7.04    0.77
  -2   0 -11    6.18    0.60
   2   0  11    4.24    0.92
   2   0  11    6.14    1.54
   2   0  11    6.93    0.93
   2   0  11    1.18    3.18
   2   0  11    6.59    0.56
  -3   0 -11    1.13    0.32
  -3   0 -11    1.29    0.12
  -3   0 -11    1.56    0.48
   3   0  11    1.35    0.32
   3   0  11    1.07    0.31
   3   0  11    1.26    1.62
  -4   0 -11    1.33    0.27
   4   0  11   -0.31    1.00
   4   0  11    0.73    0.21
   4   0  11    1.31    0.36
  -5   0 -11    0.42    0.14
  -5   0 -11    0.60    0.06
   5   0  11    1.00    0.25
   5   0  11    0.39    0.11
  -5   1  11    0.72    0.22
  -5   1  11    0.84    0.11
   4  -1 -11    0.63    0.27
  -4   1  11    3.37    1.97
   3  -1 -11    8.14    0.63
  -3   1  11    8.41    0.68
  -3   1  11    8.41    0.91
  -3   1  11    8.07    2.64
  -3   1  11    8.54    0.60
  -2   1  11    3.83    0.47
  -2   1  11    3.57    0.34
  -2   1  11    3.38    0.41
  -2   1  11    5.19    0.60
   1  -1 -11    3.46    0.34
   1  -1 -11    2.92    0.36
  -1   1  11    2.77    0.31
  -1   1  11    3.17    0.36
  -1   1  11    3.06    1.22
  -1   1  11    2.85    0.46
   0  -1 -11   -0.20    0.42
   0  -1 -11    0.19    0.12
   0  -1 -11   -0.79    0.87
   0   1  11    0.37    0.49
   0   1  11   -1.25    0.99
   0   1  11    0.29    0.25
  -1  -1 -11    6.93    1.31
  -1  -1 -11    5.66    2.43
  -1  -1 -11    6.69    0.52
  -1  -1 -11    6.30    0.81
  -1  -1 -11    6.28    0.61
  -1  -1 -11    5.55    0.57
   1   1  11    5.42    1.10
   1   1  11    7.54    1.18
   1   1  11    6.60    1.85
   1   1  11    6.71    0.52
   1   1  11    6.33    0.62
   1   1  11    8.12    0.90
  -2  -1 -11   24.56    0.92
  -2  -1 -11   24.52    1.64
  -2  -1 -11   23.68    1.38
  -2  -1 -11   20.22    2.52
   2   1  11   23.34    1.33
   2   1  11   23.97    1.54
   2   1  11   22.52    1.67
   2   1  11   29.39    2.87
  -3  -1 -11    3.00    0.43
  -3  -1 -11    3.31    0.72
  -3  -1 -11    2.46    0.18
   3   1  11   -0.15    1.74
   3   1  11    2.92    0.49
   3   1  11    2.03    0.35
   3   1  11    2.46    1.62
  -4  -1 -11    0.49    0.26
   4   1  11    0.97    0.24
   4   1  11   -0.67    1.04
   4   1  11    0.70    0.24
  -5  -1 -11    0.32    0.04
   5   1  11   -0.34    0.94
  -5   2  11    0.13    0.17
  -5   2  11    0.21    0.07
   4  -2 -11    0.53    0.24
  -4   2  11    0.44    0.20
  -4   2  11    0.41    0.27
  -4   2  11    0.46    0.13
   3  -2 -11   20.91    3.44
   3  -2 -11   15.53    0.84
   3  -2 -11   15.32    0.95
  -3   2  11   14.85    0.88
  -3   2  11   12.48    1.15
  -3   2  11   11.67    0.92
   2  -2 -11    1.37    0.25
   2  -2 -11    1.68    0.28
   2  -2 -11    2.77    1.35
  -2   2  11    2.09    1.07
  -2   2  11    1.50    0.24
  -2   2  11    1.61    0.34
  -2   2  11    3.08    1.52
  -2   2  11    1.34    0.27
   1  -2 -11    5.06    0.44
   1  -2 -11    4.71    0.51
   1  -2 -11    7.25    1.57
  -1   2  11    4.25    0.52
  -1   2  11    4.37    0.39
  -1   2  11    4.61    0.45
   0  -2 -11    0.59    0.16
   0  -2 -11    0.40    0.15
   0  -2 -11    1.33    0.86
   0   2  11   -1.66    1.40
   0   2  11    1.64    1.49
   0   2  11    0.19    0.38
   0   2  11    0.36    0.17
   0   2  11    0.37    0.22
  -1  -2 -11    8.02    0.42
  -1  -2 -11    8.78    0.74
  -1  -2 -11    7.92    0.72
  -1  -2 -11    8.32    0.61
  -1  -2 -11    7.89    0.71
  -1  -2 -11   11.05    1.57
   1   2  11    8.31    0.74
   1   2  11    8.06    0.61
   1   2  11    6.67    0.77
   1   2  11   10.46    1.37
   1   2  11    8.79    1.10
  -2  -2 -11   23.54    1.58
  -2  -2 -11   16.45    2.59
  -2  -2 -11   21.68    1.35
   2   2  11   23.65    1.54
   2   2  11   21.31    1.27
   2   2  11   25.89    2.64
   2   2  11   19.92    1.56
  -3  -2 -11   15.17    0.62
  -3  -2 -11   14.60    1.05
  -3  -2 -11   18.73    3.82
  -3  -2 -11   15.00    1.34
   3   2  11   15.07    1.08
   3   2  11   15.64    1.27
  -4  -2 -11    0.68    0.10
  -4  -2 -11    0.91    0.28
  -4  -2 -11    0.36    0.28
   4   2  11   -0.17    0.79
   4   2  11    0.76    0.23
   4   2  11    0.44    0.23
   4   2  11    1.58    1.84
  -5   3  11    0.55    0.09
  -5   3  11    0.45    0.13
  -4   3  11    0.04    0.08
  -4   3  11    0.08    0.09
  -4   3  11    0.01    0.20
   3  -3 -11    1.57    0.25
   3  -3 -11    1.57    0.30
  -3   3  11    1.29    0.22
  -3   3  11    0.47    1.25
  -3   3  11    2.12    0.53
   2  -3 -11    0.56    0.90
   2  -3 -11    0.09    0.10
   2  -3 -11    0.22    0.09
  -2   3  11   -0.31    0.81
  -2   3  11    0.28    0.14
  -2   3  11    0.44    0.60
  -2   3  11    0.33    0.13
  -2   3  11    0.07    0.21
   1  -3 -11    0.18    0.11
   1  -3 -11   -0.02    0.06
   1  -3 -11    0.12    0.08
  -1   3  11   -0.72    3.49
  -1   3  11    0.39    2.12
  -1   3  11   -0.14    0.17
  -1   3  11    0.05    0.07
  -1   3  11    0.37    0.64
  -1   3  11   -0.54    0.64
   0  -3 -11    0.10    0.11
   0  -3 -11    0.25    0.08
   0  -3 -11    0.85    0.30
   0  -3 -11    0.25    0.12
   0  -3 -11    1.16    0.81
   0   3  11    0.26    1.73
   0   3  11    0.83    0.48
   0   3  11    0.48    0.16
   0   3  11    0.04    2.13
   0   3  11    0.37    0.20
  -1  -3 -11    0.72    0.24
  -1  -3 -11    0.38    0.10
  -1  -3 -11    0.63    0.29
  -1  -3 -11    1.15    0.80
  -1  -3 -11    0.51    0.18
  -1  -3 -11    0.97    0.28
   1   3  11    2.08    0.96
   1   3  11    0.42    0.25
   1   3  11   -0.63    1.49
   1   3  11    0.41    0.26
   1   3  11    0.65    0.17
  -2  -3 -11    8.49    2.34
  -2  -3 -11    6.95    0.80
  -2  -3 -11    8.04    0.78
   2   3  11    7.45    0.66
   2   3  11    9.50    1.00
   2   3  11    8.18    2.31
   2   3  11    7.33    0.83
  -3  -3 -11   -0.52    2.94
   3   3  11    0.43    0.20
   3   3  11   -0.54    1.26
  -4  -3 -11    0.05    0.11
   4   3  11   -0.10    0.19
   4   3  11    0.11    0.10
   4   3  11    0.21    1.43
  -5   4  11    0.60    0.08
  -5   4  11    0.54    0.14
   4  -4 -11    0.65    0.22
   3  -4 -11    0.36    0.13
  -3   4  11    0.41    0.17
  -3   4  11    0.15    0.10
  -3   4  11    0.49    0.27
   2  -4 -11    3.10    0.35
   2  -4 -11    2.45    0.20
   2  -4 -11    3.21    0.45
   2  -4 -11    1.15    1.38
  -2   4  11    2.07    1.29
  -2   4  11    2.66    0.47
  -2   4  11    2.08    1.29
  -2   4  11    3.23    0.37
  -2   4  11    3.15    0.51
   1  -4 -11   23.88    3.08
   1  -4 -11   20.40    1.35
   1  -4 -11   20.30    0.85
   1  -4 -11   21.47    1.19
  -1   4  11   21.27    2.24
  -1   4  11   21.16    1.25
  -1   4  11   18.99    1.06
  -1   4  11   21.88    1.46
   0  -4 -11    3.63    1.22
   0  -4 -11    1.89    0.31
   0  -4 -11    1.69    0.44
   0   4  11    1.44    2.43
   0   4  11    2.67    0.39
   0   4  11    3.45    1.12
   0   4  11    2.45    0.45
   0   4  11   -0.01    2.93
  -1  -4 -11    1.87    1.24
  -1  -4 -11    2.09    0.40
  -1  -4 -11    3.22    0.42
  -1  -4 -11    1.99    0.47
  -1  -4 -11    2.90    0.24
  -1  -4 -11    2.72    0.32
   1   4  11    3.02    2.08
   1   4  11    2.24    0.32
   1   4  11    2.24    0.62
  -2  -4 -11    1.75    1.36
  -2  -4 -11    1.67    0.56
   2   4  11    1.50    0.28
   2   4  11   -0.41    1.32
   2   4  11    2.55    0.45
  -3  -4 -11    2.62    0.37
   3   4  11    1.80    0.36
   3   4  11    2.09    0.33
   4   4  11    0.71    1.12
   4  -5 -11    1.37    0.37
   4  -5 -11    0.86    0.25
  -4   5  11    0.58    0.15
  -4   5  11    0.55    0.20
   3  -5 -11    0.46    0.14
   3  -5 -11    0.05    0.12
  -3   5  11    0.25    0.11
  -3   5  11    0.16    0.13
   2  -5 -11    2.41    0.18
   2  -5 -11    2.52    0.33
   2  -5 -11    2.84    0.43
  -2   5  11    2.74    0.34
  -2   5  11    3.17    0.60
  -2   5  11    2.75    0.46
  -2   5  11    2.20    0.39
  -2   5  11    2.42    2.06
   1  -5 -11    1.64    0.16
   1  -5 -11    1.33    0.32
   1  -5 -11    1.37    0.42
   1  -5 -11    2.34    1.53
  -1   5  11    1.76    0.29
  -1   5  11    2.38    0.45
  -1   5  11    1.97    0.25
  -1   5  11    0.89    3.00
  -1   5  11    3.26    1.51
   0  -5 -11    0.48    0.17
   0  -5 -11    0.24    0.21
   0  -5 -11    1.91    1.47
   0   5  11   -0.23    1.39
   0   5  11    0.69    0.28
   0   5  11    0.72    0.21
   0   5  11    1.57    0.90
   0   5  11   -0.16    2.96
  -1  -5 -11    2.29    1.34
  -1  -5 -11    1.78    0.37
  -1  -5 -11    1.57    0.18
  -1  -5 -11    1.73    0.30
  -1  -5 -11    1.04    0.29
   1   5  11    1.54    1.20
   1   5  11    0.48    1.77
   1   5  11    0.79    2.67
  -2  -5 -11    0.56    0.24
   2   5  11   -0.04    2.30
   2   5  11    1.39    0.50
   2   5  11    0.22    0.24
  -3  -5 -11    0.73    0.24
   3   5  11    1.02    1.88
   3   5  11    0.48    0.18
   3   5  11    0.15    0.94
   4  -6 -11    0.77    0.18
  -4   6  11    0.34    0.14
  -4   6  11    0.37    0.10
   3  -6 -11    0.27    0.11
   3  -6 -11    0.27    0.16
  -3   6  11    0.22    0.17
  -3   6  11    0.28    0.13
   2  -6 -11    0.44    0.13
   2  -6 -11    0.27    0.15
   2  -6 -11    0.44    0.10
  -2   6  11    0.97    0.33
  -2   6  11    0.54    0.20
  -2   6  11    0.29    0.13
   1  -6 -11    0.80    0.11
   1  -6 -11    0.71    0.24
   1  -6 -11    0.62    0.28
  -1   6  11    1.00    0.23
  -1   6  11    1.12    0.25
  -1   6  11    1.62    2.40
   0  -6 -11   -0.08    0.20
   0  -6 -11    0.09    0.06
   0  -6 -11    0.88    0.33
   0  -6 -11    0.23    0.15
   0   6  11    0.01    1.73
   0   6  11    0.48    0.22
  -1  -6 -11   -0.04    0.03
  -1  -6 -11   -0.15    0.29
  -1  -6 -11   -0.07    0.15
   1   6  11    0.40    0.25
   1   6  11   -0.89    1.15
   1   6  11   -1.73    1.76
  -2  -6 -11    0.33    0.22
   2   6  11   -0.83    0.82
  -3  -6 -11    0.02    0.06
   3  -7 -11    1.18    0.19
  -3   7  11    1.50    0.19
  -3   7  11    1.15    0.19
   2  -7 -11    0.24    0.08
   2  -7 -11    0.12    0.15
   2  -7 -11    0.27    0.14
  -2   7  11    0.12    0.12
  -2   7  11    0.23    0.22
  -2   7  11    0.44    0.13
   1  -7 -11    0.35    0.19
   1  -7 -11    0.30    0.09
   1  -7 -11    0.47    0.17
  -1   7  11    0.54    0.23
  -1   7  11    0.58    0.20
  -1   7  11    0.66    0.34
   0   7  11    1.24    0.48
   0   7  11    0.04    1.90
  -1  -7 -11    0.02    0.03
  -1  -7 -11    0.35    0.23
   1   7  11   -0.03    0.27
   2  -8 -11    1.73    0.12
   1  -8 -11    0.16    0.03
  -1   8  11    0.09    0.20
   0  -8 -11    1.30    0.47
   1   8 -12   -0.25    2.21
   0   8 -12   -0.37    2.34
   0  -8  12    0.00    0.16
   0  -8  12    0.08    0.05
  -1   8 -12    0.81    2.92
  -1   8 -12    2.19    0.59
  -3   8 -12    0.02    0.07
   3  -8  12    0.00    0.02
   2   7 -12    0.42    0.34
   2   7 -12    0.62    0.20
   2   7 -12    1.18    1.57
  -2  -7  12    0.52    0.13
  -2  -7  12    0.54    0.24
   1   7 -12   -0.43    2.36
   1   7 -12    0.41    0.50
   1   7 -12    0.50    0.22
  -1  -7  12    1.25    0.40
  -1  -7  12    0.88    0.13
   0   7 -12    0.31    0.12
   0   7 -12   -0.98    2.22
   0   7 -12    0.07    0.26
   0  -7  12    0.18    0.24
   0  -7  12    0.25    0.07
  -1   7 -12    0.18    0.11
  -1   7 -12    0.29    0.23
  -1   7 -12    0.47    1.84
   1  -7  12    0.15    0.05
  -2   7 -12    0.46    2.41
   2  -7  12    0.32    0.29
  -3   7 -12    0.90    0.21
   3  -7  12    0.95    0.27
   3  -7  12    0.67    0.13
   3   6 -12    0.42    0.14
   3   6 -12    0.49    1.43
   3   6 -12   -0.12    0.18
  -3  -6  12    0.14    0.10
  -3  -6  12    0.08    0.05
   2   6 -12   -1.28    1.33
   2   6 -12    0.05    0.24
  -2  -6  12    0.39    0.18
  -2  -6  12    0.04    0.06
   1   6 -12    0.37    0.24
  -1  -6  12    2.21    1.72
   0   6 -12    0.95    0.46
   0   6 -12    2.26    5.16
   0   6 -12    0.44    0.14
   0   6 -12    0.69    0.20
   0  -6  12   -0.82    0.76
   0  -6  12    0.84    0.15
   0  -6  12    0.49    0.20
  -1   6 -12    9.03    0.87
  -1   6 -12    9.14    0.64
   1  -6  12    9.54    0.96
   1  -6  12    8.28    0.82
  -2   6 -12    0.38    3.65
  -2   6 -12    2.73    0.46
  -2   6 -12    2.44    0.32
  -2   6 -12    2.48    0.31
   2  -6  12    0.17    1.84
   2  -6  12    2.44    0.50
   2  -6  12    1.99    0.36
   2  -6  12    1.75    0.27
  -3   6 -12    0.62    0.30
  -3   6 -12    0.25    0.16
   3  -6  12    0.48    0.16
   3  -6  12    1.00    1.32
   3  -6  12    0.52    0.17
  -4   6 -12    0.05    0.07
   4  -6  12    0.04    0.08
   4  -6  12    0.29    0.21
   4   5 -12    0.47    0.17
  -4  -5  12    0.65    0.10
  -4  -5  12    0.50    0.09
   3   5 -12    0.36    0.16
   3   5 -12    0.30    0.14
   3   5 -12   -1.66    2.00
  -3  -5  12    0.24    0.11
  -3  -5  12    0.41    0.18
   2   5 -12    0.27    0.17
   2   5 -12    0.22    0.18
  -2  -5  12   -0.83    1.27
  -2  -5  12    0.33    0.22
  -2  -5  12    0.36    0.17
  -2  -5  12    2.35    2.16
   1   5 -12    4.79    0.39
   1   5 -12    4.15    0.65
   1   5 -12    4.45    0.55
  -1  -5  12    5.40    0.51
  -1  -5  12    4.99    2.01
  -1  -5  12    4.87    0.66
  -1  -5  12    4.09    1.78
  -1  -5  12    4.86    0.31
   0   5 -12    0.04    0.24
   0   5 -12    0.26    0.15
   0   5 -12    0.21    0.09
   0  -5  12    0.24    0.14
   0  -5  12    0.20    0.07
  -1   5 -12    0.76    0.26
  -1   5 -12    0.58    3.41
  -1   5 -12    0.76    0.20
   1  -5  12    0.73    0.27
   1  -5  12    0.00    1.20
   1  -5  12    0.85    0.19
   1  -5  12    0.99    0.39
   1  -5  12    0.30    0.98
  -2   5 -12    9.13    0.62
  -2   5 -12    8.41    0.82
  -2   5 -12    8.58    0.77
  -2   5 -12   -1.11    4.00
   2  -5  12    9.58    0.82
   2  -5  12    8.40    0.89
   2  -5  12    8.42    0.66
  -3   5 -12    6.67    0.67
  -3   5 -12    5.72    0.69
   3  -5  12    6.58    0.55
   3  -5  12    5.34    0.63
  -4   5 -12    0.08    0.16
  -4   5 -12   -0.02    0.05
   4  -5  12    0.00    1.28
   4  -5  12    0.02    0.08
   4  -5  12    0.04    0.16
   4   4 -12    0.33    0.19
   4   4 -12    0.36    0.12
  -4  -4  12    0.27    0.09
  -4  -4  12    0.22    0.08
   3   4 -12    0.36    0.13
  -3  -4  12    2.25    1.88
  -3  -4  12    0.00    0.19
  -3  -4  12    0.09    0.14
  -2  -4  12    1.19    0.95
   1   4 -12    0.09    0.08
   1   4 -12    0.30    0.18
   1   4 -12    0.20    0.13
  -1  -4  12    0.05    0.04
  -1  -4  12   -0.05    0.22
  -1  -4  12    0.15    0.13
  -1  -4  12    0.10    0.91
   0   4 -12    0.45    0.19
   0   4 -12    0.15    0.23
   0  -4  12    0.04    0.53
   0  -4  12   -0.45    0.89
  -1   4 -12    0.46    0.22
  -1   4 -12    0.40    0.23
  -1   4 -12    0.20    0.10
   1  -4  12   -0.58    1.10
   1  -4  12    0.24    0.09
   1  -4  12    0.18    1.47
   1  -4  12    1.72    1.04
   1  -4  12    0.41    0.28
  -2   4 -12    0.29    0.20
   2  -4  12    0.01    0.14
   2  -4  12   -0.59    1.92
  -3   4 -12    0.68    0.26
  -3   4 -12    0.47    0.07
  -3   4 -12    0.62    0.26
   3  -4  12    0.35    0.13
   3  -4  12   -0.45    0.91
  -4   4 -12    0.05    0.09
  -4   4 -12    0.02    0.03
  -4   4 -12   -0.11    0.13
   4  -4  12    0.00    0.05
   4  -4  12    0.61    0.93
   4   3 -12    0.52    0.22
   4   3 -12    0.10    0.15
  -4  -3  12    0.18    0.13
  -4  -3  12    0.24    0.09
   3   3 -12    0.12    0.22
   3   3 -12    0.51    0.22
  -3  -3  12    0.29    0.09
  -3  -3  12    0.26    0.12
  -3  -3  12   -0.96    1.80
  -3  -3  12   -0.83    0.94
  -3  -3  12    0.43    0.16
   2   3 -12    4.42    0.50
   2   3 -12    4.37    0.61
  -2  -3  12    3.75    0.55
  -2  -3  12    4.73    1.86
  -2  -3  12    4.01    0.54
  -2  -3  12    4.33    1.40
  -2  -3  12    4.96    0.36
   1   3 -12   14.32    1.04
   1   3 -12   14.01    1.14
   1   3 -12   15.18    1.00
  -1  -3  12   14.62    1.11
  -1  -3  12   14.97    0.72
  -1  -3  12   14.76    2.50
  -1  -3  12   15.95    1.12
   0   3 -12   14.74    1.12
   0   3 -12   14.05    1.11
   0   3 -12   13.84    0.92
   0   3 -12   12.41    0.95
   0  -3  12   15.74    2.83
   0  -3  12   12.15    1.99
   0  -3  12   13.50    1.08
   0  -3  12   13.97    0.66
  -1   3 -12    9.60    1.26
  -1   3 -12    9.71    0.86
  -1   3 -12   11.01    0.73
  -1   3 -12   10.59    0.59
  -1   3 -12    9.52    1.00
   1  -3  12   10.69    0.67
   1  -3  12   11.42    0.81
   1  -3  12    8.92    0.89
  -2   3 -12    7.88    0.54
  -2   3 -12    9.48    1.29
  -2   3 -12    8.25    0.39
  -2   3 -12    8.24    0.74
   2  -3  12    7.31    0.70
   2  -3  12    7.98    0.59
   2  -3  12    7.91    0.86
  -3   3 -12    3.06    0.20
  -3   3 -12    2.42    0.40
  -3   3 -12    2.17    0.29
   3  -3  12    3.11    2.03
   3  -3  12    2.52    0.35
   3  -3  12    2.41    0.41
   3  -3  12    1.01    2.37
  -4   3 -12    0.19    0.17
  -4   3 -12    0.05    0.03
  -4   3 -12    0.11    0.14
   4  -3  12   -0.59    0.75
   4  -3  12    0.16    0.09
   4  -3  12    0.16    0.13
  -5   3 -12    0.12    0.07
   5  -3  12   -0.10    0.06
   5  -3  12   -0.21    0.81
  -5  -2  12    0.02    0.04
  -5  -2  12    0.00    0.03
   4   2 -12    0.44    0.18
   4   2 -12    0.45    0.25
  -4  -2  12   -0.05    0.11
  -4  -2  12    0.14    0.07
   3   2 -12    0.11    0.12
   3   2 -12    0.26    0.12
  -3  -2  12    0.26    0.19
  -3  -2  12    0.00    0.05
  -3  -2  12    0.04    0.04
  -3  -2  12   -1.88    1.24
  -3  -2  12    1.62    1.07
   2   2 -12    0.04    0.11
   2   2 -12   -0.07    0.12
  -2  -2  12   -0.18    0.84
  -2  -2  12    0.31    0.79
  -2  -2  12    0.21    0.12
  -2  -2  12    0.07    0.07
  -2  -2  12    0.38    0.23
   1   2 -12    1.08    0.25
   1   2 -12    0.80    0.23
   1   2 -12    0.52    0.21
  -1  -2  12   -0.02    1.78
  -1  -2  12    0.61    0.14
  -1  -2  12    1.79    0.68
  -1  -2  12    0.15    0.25
  -1  -2  12    0.34    0.78
  -1  -2  12    0.71    0.24
   0   2 -12    6.83    0.68
   0   2 -12    7.00    0.69
   0   2 -12    6.47    0.56
   0  -2  12    6.20    0.37
   0  -2  12    6.58    1.99
   0  -2  12    5.78    0.69
  -1   2 -12   18.50    0.74
  -1   2 -12   19.87    1.08
  -1   2 -12   17.81    1.37
  -1   2 -12   18.37    1.16
  -1   2 -12   19.03    1.24
   1  -2  12   18.97    2.37
   1  -2  12   19.94    0.96
   1  -2  12   19.67    1.11
   1  -2  12   18.94    2.45
  -2   2 -12    3.66    0.22
  -2   2 -12    3.78    0.33
  -2   2 -12    3.93    0.47
  -2   2 -12    3.89    0.65
   2  -2  12    3.55    0.40
   2  -2  12    3.62    0.51
   2  -2  12    3.03    0.65
   2  -2  12    1.01    2.73
   2  -2  12    6.62    2.23
  -3   2 -12    0.74    0.31
  -3   2 -12    0.50    0.08
   3  -2  12    0.40    0.14
   3  -2  12    4.69    2.52
   3  -2  12   -0.09    2.69
   3  -2  12    0.34    0.20
  -4   2 -12    0.15    0.22
   4  -2  12    3.15    2.17
  -5   2 -12    1.08    0.09
   5  -2  12    0.41    0.97
   5  -2  12    1.01    0.15
  -5  -1  12    0.39    0.15
  -5  -1  12    0.28    0.05
   4   1 -12    0.23    0.20
   4   1 -12    0.31    0.23
  -4  -1  12   -0.04    0.05
  -4  -1  12   -0.09    0.16
  -4  -1  12   -0.01    0.04
   3   1 -12    2.47    0.38
   3   1 -12    2.35    0.31
  -3  -1  12    0.13    1.33
  -3  -1  12    2.13    0.24
  -3  -1  12    2.55    0.64
  -3  -1  12    2.26    0.24
  -3  -1  12    0.94    1.04
   2   1 -12    5.47    0.58
   2   1 -12    4.92    0.55
   2   1 -12    5.68    0.47
  -2  -1  12    5.75    0.39
  -2  -1  12    5.38    0.64
  -2  -1  12    4.51    1.69
  -2  -1  12    3.88    0.51
  -2  -1  12    3.90    0.66
  -2  -1  12    2.65    1.37
   1   1 -12   14.28    0.94
   1   1 -12   13.96    0.96
   1   1 -12   14.23    0.83
  -1  -1  12   11.91    1.16
  -1  -1  12   14.11    2.57
  -1  -1  12   14.63    0.68
   0   1 -12    0.11    0.09
   0   1 -12    0.23    0.14
   0   1 -12    0.08    0.12
   0  -1  12    0.41    0.65
   0  -1  12    0.09    1.01
   0  -1  12    0.28    0.26
   0  -1  12    0.09    0.36
  -1   1 -12    1.65    0.85
  -1   1 -12    1.69    0.14
  -1   1 -12    1.65    0.30
  -1   1 -12    1.55    0.33
  -1   1 -12    1.93    0.47
  -1   1 -12    1.94    0.26
   1  -1  12   -0.40    1.05
   1  -1  12    1.77    0.22
   1  -1  12    2.46    0.43
   1  -1  12    0.70    1.15
   1  -1  12    1.53    0.27
   1  -1  12    3.38    1.72
   1  -1  12    1.36    0.76
  -2   1 -12    7.86    0.38
  -2   1 -12    7.76    0.58
  -2   1 -12    7.82    0.91
  -2   1 -12    9.87    0.79
   2  -1  12   13.67    3.11
   2  -1  12    8.08    0.63
   2  -1  12    7.98    0.77
   2  -1  12   11.91    2.06
   2  -1  12    7.65    1.47
   2  -1  12    7.77    1.00
  -3   1 -12    0.60    0.24
  -3   1 -12    0.32    0.28
  -3   1 -12    0.28    0.06
   3  -1  12    0.27    0.14
   3  -1  12    0.29    0.16
   3  -1  12    0.12    1.70
   3  -1  12    0.05    1.13
  -4   1 -12   -0.03    0.12
  -4   1 -12    0.08    0.03
   4  -1  12    0.18    0.09
   4  -1  12    0.49    0.20
   4  -1  12   -0.89    1.56
  -5   1 -12    0.28    0.04
  -5   1 -12    0.20    0.07
   5  -1  12    0.38    0.10
   5  -1  12   -0.02    0.65
  -5   0  12    0.74    0.11
  -5   0  12    0.63    0.19
  -4   0  12    4.53    2.51
   3   0 -12   -0.08    0.16
  -3   0  12    0.24    0.09
  -3   0  12    0.04    0.09
  -3   0  12    0.87    0.98
  -3   0  12    0.25    0.24
  -3   0  12    0.22    0.19
   2   0 -12    1.34    0.23
  -2   0  12    0.84    0.18
  -2   0  12    1.12    0.32
  -2   0  12    1.39    0.43
  -2   0  12    2.40    1.12
  -2   0  12    0.94    0.17
  -2   0  12    1.10    0.27
   1   0 -12    1.24    0.25
  -1   0  12    1.54    0.30
  -1   0  12    1.38    0.17
  -1   0  12    1.36    0.23
  -1   0  12    0.81    0.90
   0   0 -12   -0.02    0.12
   0   0 -12    0.04    0.08
   0   0 -12    0.05    0.09
   0   0 -12    0.57    0.77
   0   0  12   -0.05    0.11
   0   0  12   -0.42    1.32
   0   0  12    0.84    0.45
  -1   0 -12    0.63    0.23
  -1   0 -12    0.60    0.20
  -1   0 -12   -1.60    1.99
  -1   0 -12    0.31    0.22
  -1   0 -12    0.27    0.28
   1   0  12    0.83    0.19
   1   0  12    0.86    0.32
   1   0  12   -0.32    1.15
   1   0  12    3.28    2.49
   1   0  12    0.20    1.69
   1   0  12    0.58    0.21
  -2   0 -12   10.35    1.63
  -2   0 -12    7.83    0.72
  -2   0 -12    9.05    0.96
  -2   0 -12    8.23    0.39
   2   0  12   10.31    0.97
   2   0  12    8.38    0.81
   2   0  12    8.28    0.67
  -3   0 -12    0.76    0.10
  -3   0 -12    1.29    0.37
  -3   0 -12    0.61    0.35
   3   0  12    1.12    0.35
   3   0  12    0.88    2.50
   3   0  12    0.79    0.24
   3   0  12    2.06    2.17
  -4   0 -12    1.98    0.32
  -4   0 -12    1.96    0.15
   4   0  12    0.13    1.45
   4   0  12    2.07    0.38
   4   0  12    1.53    0.34
  -5   0 -12    0.83    0.09
  -5   0 -12    0.32    0.21
   5   0  12    0.72    0.15
  -5   1  12   -0.02    0.04
  -5   1  12   -0.03    0.07
   4  -1 -12    2.80    0.38
  -4   1  12    5.00    2.34
   3  -1 -12    3.91    1.97
   3  -1 -12    1.46    0.34
   3  -1 -12    1.48    0.26
  -3   1  12    0.88    0.25
  -3   1  12    1.03    0.23
  -3   1  12    1.24    0.36
   2  -1 -12    0.98    0.30
   2  -1 -12    0.64    0.78
   2  -1 -12    1.00    0.25
  -2   1  12    1.29    0.35
  -2   1  12    1.02    0.30
  -2   1  12    2.75    1.30
  -2   1  12    1.03    0.25
  -2   1  12    0.91    0.21
   1  -1 -12    8.22    0.67
   1  -1 -12    8.24    0.60
   1  -1 -12    8.90    2.42
  -1   1  12    6.56    1.60
  -1   1  12    8.09    0.63
  -1   1  12    7.14    0.69
   0  -1 -12   -0.30    0.58
   0  -1 -12   -0.28    0.62
   0   1  12    0.83    0.38
   0   1  12   -0.16    1.44
   0   1  12   -0.12    0.41
  -1  -1 -12   -0.05    0.12
  -1  -1 -12    0.11    0.14
  -1  -1 -12    0.25    0.11
  -1  -1 -12    0.00    0.07
   1   1  12    0.24    1.57
   1   1  12   -0.28    0.58
   1   1  12    0.04    0.13
   1   1  12    0.62    0.66
   1   1  12   -0.15    0.80
   1   1  12    0.16    0.11
   1   1  12    0.48    0.24
  -2  -1 -12    5.72    0.29
  -2  -1 -12    7.13    0.74
  -2  -1 -12    6.85    0.80
   2   1  12    0.64    3.01
   2   1  12    6.68    0.91
   2   1  12    5.00    0.67
   2   1  12    5.07    0.54
   2   1  12    7.05    2.21
   2   1  12    7.06    2.21
  -3  -1 -12    0.18    0.28
  -3  -1 -12    0.03    0.03
  -3  -1 -12   -0.01    0.09
   3   1  12   -0.73    1.43
   3   1  12    0.39    1.49
   3   1  12    0.31    0.17
  -4  -1 -12    0.62    0.07
  -4  -1 -12    0.72    0.24
   4   1  12    0.57    0.18
   4   1  12    0.05    0.54
   4   1  12    0.64    0.27
  -5   2  12   -0.21    0.15
  -5   2  12   -0.03    0.05
   4  -2 -12    4.01    0.43
  -4   2  12    3.09    0.43
  -4   2  12    3.96    0.36
  -4   2  12    3.15    0.50
   3  -2 -12    4.59    2.89
   2  -2 -12    6.18    0.60
   2  -2 -12    5.76    0.50
  -2   2  12    5.49    0.56
  -2   2  12    5.58    0.56
  -2   2  12    5.67    0.48
  -2   2  12    4.00    1.59
   1  -2 -12    1.75    0.27
   1  -2 -12    2.80    1.33
  -1   2  12    1.67    0.22
  -1   2  12    2.26    1.49
  -1   2  12    1.68    0.37
  -1   2  12    2.06    0.29
  -1   2  12    0.05    2.18
   0  -2 -12    2.60    1.07
   0  -2 -12    2.58    0.39
   0  -2 -12    2.94    0.34
   0  -2 -12    1.95    0.22
   0   2  12    1.44    0.55
   0   2  12    3.43    0.79
   0   2  12    2.80    0.36
   0   2  12    1.97    2.16
   0   2  12    2.61    0.44
  -1  -2 -12    7.45    1.38
  -1  -2 -12    4.10    0.43
  -1  -2 -12    5.16    0.56
  -1  -2 -12    5.13    0.58
  -1  -2 -12    4.70    0.54
   1   2  12    5.43    0.55
   1   2  12    4.75    1.09
   1   2  12    4.11    0.63
   1   2  12    4.96    0.45
  -2  -2 -12   54.70    2.62
  -2  -2 -12   50.64    2.66
   2   2  12   45.33    2.51
   2   2  12   45.12    2.62
   2   2  12   44.89    2.26
   2   2  12   52.32    4.04
  -3  -2 -12   -0.38    0.42
  -3  -2 -12    0.23    0.04
   3   2  12    0.29    0.11
   3   2  12    0.42    0.26
   3   2  12    1.28    1.42
  -4  -2 -12    0.71    0.21
  -4  -2 -12    0.60    0.06
   4   2  12    0.25    0.21
   4   2  12    0.62    0.18
   4   2  12    0.45    0.84
  -5   3  12    0.06    0.08
  -5   3  12    0.03    0.05
  -4   3  12   -0.06    0.09
  -4   3  12   -0.05    0.05
  -4   3  12   -0.13    0.14
   3  -3 -12   13.01    0.82
   3  -3 -12   12.69    0.93
  -3   3  12   13.83    4.00
  -3   3  12    9.36    0.97
  -3   3  12   11.86    0.93
  -3   3  12   12.16    0.81
   2  -3 -12    4.68    0.45
   2  -3 -12    6.13    1.67
   2  -3 -12    5.01    0.56
  -2   3  12    4.49    0.61
  -2   3  12    5.10    0.55
  -2   3  12    6.30    2.48
  -2   3  12    4.76    0.45
   1  -3 -12    0.41    0.17
   1  -3 -12   -0.54    0.47
  -1   3  12    0.24    0.13
  -1   3  12   -0.85    0.94
  -1   3  12   -0.57    3.10
  -1   3  12    0.43    0.55
  -1   3  12    0.42    0.25
   0  -3 -12    0.07    0.05
   0  -3 -12    0.04    0.08
   0  -3 -12    0.22    0.10
   0  -3 -12   -0.80    0.55
   0  -3 -12    0.26    0.27
   0   3  12    0.50    0.49
   0   3  12   -0.33    1.02
   0   3  12    0.07    0.09
   0   3  12    0.21    0.15
   0   3  12   -0.12    2.29
   0   3  12    0.73    0.72
  -1  -3 -12    3.65    0.49
  -1  -3 -12    3.66    0.27
  -1  -3 -12    3.85    0.53
  -1  -3 -12    4.32    0.52
  -1  -3 -12    3.46    0.38
   1   3  12    4.12    0.56
   1   3  12    4.25    0.38
   1   3  12    4.67    0.63
  -2  -3 -12    2.75    0.45
  -2  -3 -12    1.45    1.87
  -2  -3 -12    2.42    0.39
   2   3  12    1.77    0.42
   2   3  12    1.83    0.33
   2   3  12    0.59    1.60
  -3  -3 -12    0.11    0.11
   3   3  12   -0.93    0.99
   3   3  12   -0.24    0.23
   3   3  12    0.05    0.10
   4   3  12    0.35    0.26
   4   3  12    0.72    1.72
   4   3  12    0.20    1.16
   4   3  12    0.07    0.10
   4  -4 -12    0.43    0.25
   4  -4 -12    0.34    0.19
   3  -4 -12   13.87    1.02
   3  -4 -12   14.03    0.87
  -3   4  12   12.42    1.05
  -3   4  12   13.95    1.10
  -3   4  12   14.26    0.90
   2  -4 -12   12.44    0.60
   2  -4 -12   14.76    0.92
   2  -4 -12   13.44    1.04
   2  -4 -12   14.79    3.02
  -2   4  12   13.48    0.87
  -2   4  12   14.93    1.22
  -2   4  12   13.43    0.98
   1  -4 -12    4.76    0.30
   1  -4 -12    5.25    1.93
   1  -4 -12    4.77    0.63
   1  -4 -12    5.09    0.53
  -1   4  12    5.22    0.43
  -1   4  12    5.04    0.55
  -1   4  12    7.15    1.45
  -1   4  12    5.92    0.67
   0  -4 -12    0.47    0.10
   0  -4 -12    0.13    0.14
   0  -4 -12    2.46    1.09
   0  -4 -12    0.38    0.15
   0   4  12   -0.26    0.74
   0   4  12    0.78    0.20
   0   4  12   -0.57    1.30
   0   4  12   -0.92    0.98
  -1  -4 -12    1.41    0.34
  -1  -4 -12    2.22    0.56
  -1  -4 -12    1.41    0.16
  -1  -4 -12    1.44    0.43
  -1  -4 -12    1.45    1.74
   1   4  12    1.10    1.71
   1   4  12    1.15    1.46
   1   4  12    2.14    0.47
  -2  -4 -12    0.94    0.34
  -2  -4 -12    0.80    0.43
  -2  -4 -12   -1.16    1.75
   2   4  12   -0.06    0.37
   2   4  12    0.59    0.19
   2   4  12   -0.37    1.27
  -3  -4 -12    1.96    0.32
   3   4  12    1.30    0.44
   3   4  12    0.49    1.31
   3   4  12    1.53    0.26
   4  -5 -12    0.11    0.15
   4  -5 -12    0.40    0.37
  -4   5  12    0.13    0.07
  -4   5  12    0.18    0.10
   3  -5 -12    0.15    0.13
  -3   5  12    0.16    0.10
  -3   5  12    0.03    0.07
   2  -5 -12    3.72    0.54
   2  -5 -12    4.21    0.45
  -2   5  12    4.61    0.55
  -2   5  12    4.60    0.54
  -2   5  12    4.79    0.71
   1  -5 -12    0.43    0.26
   1  -5 -12    0.11    0.10
   1  -5 -12    0.31    0.08
  -1   5  12    0.24    0.15
  -1   5  12    0.69    0.15
  -1   5  12    0.84    0.32
  -1   5  12    0.73    1.76
   0  -5 -12    0.04    0.09
   0  -5 -12    0.19    0.20
   0  -5 -12    0.12    0.07
   0   5  12   -0.05    0.08
   0   5  12    0.08    0.20
   0   5  12    0.67    2.42
   0   5  12   -0.49    1.16
  -1  -5 -12    1.22    0.17
  -1  -5 -12    1.59    1.42
  -1  -5 -12    1.36    0.39
  -1  -5 -12    1.37    0.38
   1   5  12    3.37    1.03
   1   5  12   -1.09    1.53
   1   5  12   -0.01    1.16
   1   5  12    1.98    1.47
  -2  -5 -12    0.87    0.31
   2   5  12   -0.60    0.89
   2   5  12   -1.15    1.08
   3   5  12    0.25    0.63
   3   5  12   -0.03    1.17
   4  -6 -12    0.42    0.16
  -4   6  12    0.25    0.11
  -4   6  12    0.44    0.10
   3  -6 -12    0.82    0.25
   3  -6 -12    0.56    0.16
  -3   6  12    0.85    0.15
  -3   6  12    0.76    0.25
   2  -6 -12   -0.08    0.13
   2  -6 -12    0.14    0.10
   2  -6 -12    0.15    0.06
  -2   6  12    0.11    0.11
  -2   6  12    0.65    0.25
  -2   6  12    0.14    0.11
   1  -6 -12    2.69    0.43
   1  -6 -12    2.19    0.20
   1  -6 -12    1.96    0.32
  -1   6  12    2.58    0.36
  -1   6  12    2.62    0.48
  -1   6  12    2.36    0.26
   0  -6 -12   -0.09    0.21
   0  -6 -12   -0.17    1.64
   0  -6 -12   -0.04    0.03
   0   6  12    0.12    0.24
   0   6  12    0.06    1.55
  -1  -6 -12   -0.06    0.33
  -1  -6 -12   -0.04    0.13
  -1  -6 -12    0.13    0.05
   1   6  12   -0.38    2.58
   1   6  12   -0.15    1.24
  -2  -6 -12    0.89    0.30
   2   6  12    0.07    1.59
   2   6  12    0.10    2.49
   3  -7 -12    0.13    0.08
   3  -7 -12    0.24    0.22
  -3   7  12    0.03    0.07
   2  -7 -12    0.78    0.26
   2  -7 -12    1.66    0.13
   2  -7 -12    1.24    0.22
  -2   7  12    1.17    0.19
  -2   7  12    1.52    0.19
  -2   7  12    2.39    0.42
   1  -7 -12    0.30    0.27
   1  -7 -12    0.82    0.10
  -1   7  12    1.07    0.38
  -1  -7 -12    0.08    0.15
   1   7  12    0.57    0.27
   1   7  12   -0.15    0.47
   1  -8 -12   -0.03    0.14
   1  -8 -12    0.28    0.06
  -1   8  12    0.59    0.24
   0  -8 -12    0.16    0.05
   0   8  12    0.15    0.21
   1   8 -13    0.27    1.88
  -1  -8  13    0.13    0.15
   0   8 -13   -0.22    1.27
   0  -8  13    0.18    0.06
   0  -8  13   -0.02    0.14
  -1   8 -13    0.05    0.21
  -1   8 -13   -0.03    1.68
   1  -8  13    0.07    0.05
   2   7 -13    0.06    0.17
   2   7 -13   -0.46    0.61
  -2  -7  13    0.06    0.04
  -2  -7  13    0.07    0.10
   1   7 -13   -0.88    0.61
  -1  -7  13    0.62    0.26
   0   7 -13   10.10    0.86
   0   7 -13    8.21    0.57
   0   7 -13    1.69    3.71
   0  -7  13    8.46    0.89
   0  -7  13    8.11    0.43
  -1   7 -13   -2.00    1.98
  -1   7 -13    3.31    0.49
  -1   7 -13    2.64    0.32
   1  -7  13    2.24    0.47
   1  -7  13    3.07    0.22
  -2   7 -13    2.57    4.37
  -3   7 -13    0.28    0.14
   3  -7  13    0.06    0.08
   3   6 -13    0.42    0.30
   3   6 -13    0.00    1.63
  -3  -6  13   -0.03    0.04
   2   6 -13    0.32    0.22
   2   6 -13   -0.71    0.91
  -2  -6  13    0.00    0.03
  -2  -6  13    0.18    0.16
   1   6 -13    0.09    0.32
   1   6 -13   -1.02    0.95
   1   6 -13    0.30    0.18
  -1  -6  13   -0.96    1.48
   0   6 -13    1.59    7.83
   0   6 -13    0.78    0.23
   0   6 -13    2.04    0.60
   0   6 -13    0.56    0.18
   0  -6  13    0.71    1.15
   0  -6  13    0.68    0.39
  -1   6 -13    0.84    4.09
   1  -6  13    6.22    0.46
  -2   6 -13    0.86    4.02
  -2   6 -13    4.52    0.44
  -2   6 -13    4.17    0.57
  -2   6 -13    4.39    0.42
   2  -6  13    4.01    0.39
   2  -6  13    2.48    1.56
   2  -6  13    4.08    0.51
  -3   6 -13    0.55    0.17
  -3   6 -13    0.58    0.23
   3  -6  13    0.28    0.11
   3  -6  13    0.21    0.16
   3  -6  13    0.68    1.45
  -4   6 -13    0.22    0.08
   4  -6  13   -0.01    0.07
   3   5 -13    0.18    0.13
   3   5 -13    0.26    2.58
  -3  -5  13    0.11    0.16
  -3  -5  13    0.26    0.09
   2   5 -13    1.72    0.39
   2   5 -13    1.65    0.45
  -2  -5  13    1.35    0.31
  -2  -5  13    1.67    0.47
  -2  -5  13    5.31    2.63
   1   5 -13    1.25    0.41
   1   5 -13    0.75    0.21
   1   5 -13    0.57    0.16
  -1  -5  13    0.39    0.21
  -1  -5  13    0.46    1.29
  -1  -5  13    0.58    0.13
  -1  -5  13   -0.93    1.57
   0   5 -13    2.23    0.26
   0   5 -13    2.56    0.63
   0   5 -13    2.59    0.62
   0   5 -13    2.26    0.46
   0  -5  13    2.53    0.47
   0  -5  13    2.13    0.19
   0  -5  13    0.98    1.06
  -1   5 -13   -0.40    1.87
  -1   5 -13    0.49    0.24
   1  -5  13   -0.66    1.37
   1  -5  13    0.62    1.52
   1  -5  13    0.14    0.09
   1  -5  13    0.52    0.26
   1  -5  13    0.51    0.22
  -2   5 -13    0.56    0.23
  -2   5 -13    0.71    0.28
  -2   5 -13    2.81    6.92
  -2   5 -13    0.36    0.14
   2  -5  13   -0.27    0.73
   2  -5  13    0.89    0.36
   2  -5  13    0.34    0.13
   2  -5  13    0.53    0.20
   2  -5  13    0.91    1.21
  -3   5 -13    3.23    0.47
  -3   5 -13    3.36    0.46
   3  -5  13    3.37    0.44
   3  -5  13    2.66    0.34
  -4   5 -13    0.45    0.19
  -4   5 -13    0.51    0.17
   4  -5  13    0.45    0.13
   4  -5  13    0.86    0.23
   4   4 -13    1.51    0.23
  -4  -4  13    1.91    0.18
  -4  -4  13    1.60    0.24
   3   4 -13    0.88    0.28
   3   4 -13    1.03    0.36
  -3  -4  13    1.36    0.20
  -3  -4  13    0.89    0.27
  -3  -4  13    1.11    0.15
   2   4 -13    0.13    0.20
   2   4 -13    0.50    0.12
   2   4 -13    0.36    0.18
  -2  -4  13   -0.81    1.06
  -2  -4  13    0.21    0.09
  -2  -4  13    0.24    0.23
  -2  -4  13    0.23    0.17
  -2  -4  13    0.69    1.27
   1   4 -13    3.62    0.61
   1   4 -13    3.68    0.33
   1   4 -13    3.40    0.48
  -1  -4  13    3.40    0.30
  -1  -4  13    5.27    1.75
  -1  -4  13    3.88    0.48
  -1  -4  13    3.29    0.52
  -1  -4  13    1.76    1.50
   0   4 -13    1.31    0.18
   0   4 -13    0.79    0.25
   0   4 -13    1.04    0.41
   0  -4  13   -1.17    1.58
   0  -4  13    0.84    0.33
   0  -4  13    2.09    0.99
   0  -4  13    0.87    0.13
  -1   4 -13    9.81    1.06
  -1   4 -13    9.54    0.73
  -1   4 -13    8.77    1.03
  -1   4 -13   10.43    0.64
   1  -4  13   10.59    0.81
   1  -4  13   11.41    2.52
   1  -4  13   11.34    1.05
   1  -4  13   10.54    0.66
  -2   4 -13   11.92    0.99
  -2   4 -13   11.72    0.72
   2  -4  13   12.33    0.82
   2  -4  13   13.15    1.00
   2  -4  13   12.50    1.12
  -3   4 -13    0.53    0.24
  -3   4 -13    0.45    0.20
  -3   4 -13    0.79    0.09
   3  -4  13    0.65    0.27
   3  -4  13    0.51    0.18
   3  -4  13   -2.35    2.35
   3  -4  13    0.30    1.64
  -4   4 -13    0.06    0.03
  -4   4 -13    0.08    0.13
  -4   4 -13    0.19    0.15
   4  -4  13    0.08    0.21
   4  -4  13    0.02    0.06
   4  -4  13    1.12    1.65
   4   3 -13    2.53    2.78
   4   3 -13    0.80    0.19
   4   3 -13    0.34    0.24
  -4  -3  13    0.44    0.10
  -4  -3  13    0.49    0.16
   3   3 -13    1.53    0.27
   3   3 -13    1.95    0.49
  -3  -3  13    1.53    0.19
  -3  -3  13    3.46    2.23
  -3  -3  13    2.91    1.71
  -3  -3  13    1.12    0.34
  -3  -3  13    1.53    0.21
   2   3 -13    0.70    0.28
   2   3 -13    1.37    0.34
  -2  -3  13    1.02    0.29
  -2  -3  13    0.92    0.15
  -2  -3  13    1.62    0.43
  -2  -3  13    2.74    1.71
  -2  -3  13    0.08    1.14
   1   3 -13    0.49    0.16
   1   3 -13    0.40    0.21
  -1  -3  13    0.47    0.32
  -1  -3  13    0.63    0.64
  -1  -3  13    0.86    0.27
  -1  -3  13    0.96    0.79
  -1  -3  13    0.46    0.14
   0   3 -13    4.90    0.65
   0   3 -13    4.54    0.53
   0   3 -13    4.50    0.49
   0   3 -13    4.88    0.63
   0  -3  13    4.08    0.62
   0  -3  13    3.92    1.58
   0  -3  13    5.41    0.58
   0  -3  13    4.70    0.33
  -1   3 -13    0.05    0.06
  -1   3 -13   -0.42    0.24
  -1   3 -13   -0.01    0.11
  -1   3 -13    0.04    0.10
  -1   3 -13   -0.04    0.12
   1  -3  13   -0.02    1.84
   1  -3  13   -0.03    0.13
   1  -3  13   -0.03    0.09
   1  -3  13    0.40    0.29
   1  -3  13    0.17    0.94
   1  -3  13    0.11    0.49
  -2   3 -13    0.12    0.10
  -2   3 -13    0.10    0.04
  -2   3 -13    0.20    0.12
   2  -3  13    1.12    0.43
   2  -3  13    0.28    1.27
   2  -3  13   -0.46    1.67
   2  -3  13    0.29    0.17
   2  -3  13    0.08    0.07
   2  -3  13    0.49    1.05
  -3   3 -13    1.18    0.37
  -3   3 -13    1.05    0.11
   3  -3  13    0.60    1.06
   3  -3  13   -0.70    2.20
   3  -3  13    0.71    0.25
   3  -3  13    0.11    1.61
   3  -3  13    0.84    0.22
  -4   3 -13    0.10    0.03
  -4   3 -13    0.02    0.11
  -4   3 -13    0.12    0.15
   4  -3  13    0.25    0.15
   4  -3  13    0.18    0.08
   4  -3  13   -0.51    0.90
  -4  -2  13    0.80    0.29
  -4  -2  13    0.37    0.08
  -4  -2  13    0.37    0.10
   3   2 -13    0.22    0.19
   3   2 -13   -0.01    0.14
  -3  -2  13    0.18    0.07
  -3  -2  13    0.16    0.08
  -3  -2  13    0.72    1.12
  -3  -2  13    0.26    0.20
   2   2 -13    3.43    0.42
   2   2 -13    3.85    0.52
  -2  -2  13    3.80    0.50
  -2  -2  13    3.77    1.72
  -2  -2  13    4.38    0.33
  -2  -2  13    4.68    1.57
  -2  -2  13    3.61    0.53
   1   2 -13    7.71    0.74
   1   2 -13    7.83    0.64
   1   2 -13    6.85    0.72
  -1  -2  13    5.65    1.81
  -1  -2  13    7.67    0.74
  -1  -2  13    6.82    0.42
  -1  -2  13    6.37    0.67
   0   2 -13    0.89    0.23
   0   2 -13    0.53    0.30
   0   2 -13    0.97    0.27
   0   2 -13    1.10    0.32
   0  -2  13    0.90    0.12
   0  -2  13    0.53    0.48
   0  -2  13    0.44    1.85
   0  -2  13    1.20    0.38
  -1   2 -13    6.69    0.57
  -1   2 -13    6.41    0.71
  -1   2 -13    6.71    0.64
  -1   2 -13    7.28    0.83
   1  -2  13    7.12    0.50
   1  -2  13    7.24    0.61
   1  -2  13    7.93    2.18
   1  -2  13    8.86    1.60
   1  -2  13    6.67    0.72
  -2   2 -13    1.65    0.48
  -2   2 -13    2.92    0.18
  -2   2 -13    3.02    0.42
  -2   2 -13    2.48    0.27
   2  -2  13    2.53    0.44
   2  -2  13    3.04    0.59
   2  -2  13    2.38    0.32
   2  -2  13    2.27    1.11
   2  -2  13   -0.50    1.53
  -3   2 -13   -0.06    0.11
  -3   2 -13    0.05    0.03
   3  -2  13   -0.02    1.05
   3  -2  13    0.01    0.08
   3  -2  13    1.73    3.83
   4  -2  13    2.40    2.20
   4  -2  13    0.06    0.19
  -5   2 -13    0.72    0.18
  -5   2 -13    0.65    0.06
   5  -2  13    0.79    1.24
   5  -2  13    0.57    0.11
  -5  -1  13    0.08    0.06
   4   1 -13   -0.03    0.22
   4   1 -13    0.48    0.26
  -4  -1  13    0.12    0.06
  -4  -1  13    0.27    0.12
  -4  -1  13    0.02    0.04
   3   1 -13    0.10    0.13
   3   1 -13   -0.05    0.17
  -3  -1  13    0.05    0.04
  -3  -1  13    0.05    0.06
  -3  -1  13   -0.28    1.18
  -3  -1  13    0.54    0.23
   2   1 -13    0.16    0.11
   2   1 -13   -0.03    0.19
  -2  -1  13   -0.53    0.27
  -2  -1  13   -0.10    0.16
  -2  -1  13    0.23    0.21
  -2  -1  13    0.07    0.05
   1   1 -13    0.12    0.09
   1   1 -13    0.38    0.19
  -1  -1  13   -0.92    1.35
  -1  -1  13    0.54    0.24
  -1  -1  13   -0.13    0.40
  -1  -1  13    0.22    0.06
  -1  -1  13    0.06    0.17
   0   1 -13    1.03    0.34
   0   1 -13    1.24    0.28
   0   1 -13    0.96    0.32
   0  -1  13   -0.02    1.14
   0  -1  13    0.49    0.37
   0  -1  13    1.09    1.82
   0  -1  13    1.16    0.13
   0  -1  13    0.84    0.59
  -1   1 -13    4.02    0.41
  -1   1 -13    3.29    0.50
  -1   1 -13    3.72    1.26
  -1   1 -13    3.28    0.47
  -1   1 -13    3.21    0.42
   1  -1  13    3.54    0.33
   1  -1  13    4.17    1.33
   1  -1  13    3.42    0.55
   1  -1  13    4.32    1.14
   1  -1  13    3.49    0.42
  -2   1 -13    1.16    0.19
  -2   1 -13    1.43    0.13
  -2   1 -13    1.74    0.56
  -2   1 -13    1.57    0.31
   2  -1  13    3.03    1.35
   2  -1  13    1.42    0.24
   2  -1  13    0.66    1.04
   2  -1  13    1.31    0.36
  -3   1 -13    1.55    0.44
  -3   1 -13    1.18    0.11
  -3   1 -13    1.13    0.41
   3  -1  13    0.83    0.22
   3  -1  13    0.94    0.28
   3  -1  13    0.42    2.41
   3  -1  13    1.32    2.63
   4  -1  13    0.78    1.47
  -5   1 -13    0.46    0.13
  -5   1 -13    0.48    0.06
   5  -1  13    0.80    0.12
  -5   0  13    0.61    0.10
  -5   0  13    0.56    0.15
   4   0 -13    0.23    0.24
  -4   0  13    0.38    0.24
  -4   0  13   -0.01    0.08
  -4   0  13    0.21    0.08
   3   0 -13    3.48    0.42
   3   0 -13    1.10    2.24
   3   0 -13    3.16    0.45
  -3   0  13    2.69    0.37
  -3   0  13    3.62    0.60
  -3   0  13    3.04    1.54
  -3   0  13    3.05    0.26
  -3   0  13    2.82    0.30
   2   0 -13    6.63    0.61
   2   0 -13    6.21    0.58
   2   0 -13    6.59    0.51
  -2   0  13    5.44    0.53
  -2   0  13    6.38    0.76
  -2   0  13    4.95    0.44
  -2   0  13    5.29    0.57
  -2   0  13    4.65    1.73
  -2   0  13    6.28    0.46
   1   0 -13   10.60    0.81
   1   0 -13   11.56    0.73
   1   0 -13   11.46    0.85
  -1   0  13   11.86    0.80
  -1   0  13   11.16    2.28
  -1   0  13   10.39    0.86
  -1   0  13   10.77    0.59
   0   0 -13   38.96    1.88
   0   0 -13   29.69    3.57
   0   0 -13   35.04    1.63
   0   0 -13   36.41    1.82
   0   0  13   30.92    1.41
   0   0  13   33.89    1.88
   0   0  13   36.82    3.42
  -1   0 -13    2.12    0.96
  -1   0 -13    1.94    0.37
  -1   0 -13    1.43    0.35
  -1   0 -13    2.39    0.42
  -1   0 -13    1.85    0.37
   1   0  13    2.23    0.33
   1   0  13   -0.02    1.68
   1   0  13    1.89    0.24
   1   0  13    3.34    0.84
   1   0  13    3.45    1.02
  -2   0 -13   13.35    3.09
  -2   0 -13   13.25    0.98
  -2   0 -13   13.06    0.56
  -2   0 -13   14.22    1.29
   2   0  13   16.96    2.79
   2   0  13   13.22    1.23
   2   0  13   13.83    1.08
   2   0  13   12.81    0.90
  -3   0 -13    3.04    0.19
  -3   0 -13    3.76    0.49
  -3   0 -13    2.41    0.64
   3   0  13    3.15    0.49
   3   0  13    2.32    0.38
  -4   0 -13    0.61    0.08
  -4   0 -13    1.02    0.30
   4   0  13    0.68    0.20
   4   0  13    0.20    0.22
   4   0  13    0.00    1.50
  -5   1  13    0.10    0.08
   4  -1 -13    1.66    0.33
  -4   1  13    0.85    0.31
   3  -1 -13    8.59    2.71
   3  -1 -13    3.48    0.46
  -3   1  13    3.15    0.56
  -3   1  13    5.93    2.11
  -3   1  13    4.01    0.37
  -3   1  13    3.31    0.40
   2  -1 -13    4.27    0.41
   2  -1 -13    3.54    1.63
   2  -1 -13    3.87    0.47
  -2   1  13    3.83    0.42
  -2   1  13    3.83    0.44
  -2   1  13    4.22    1.55
  -2   1  13    4.89    0.51
  -2   1  13    3.39    0.96
   1  -1 -13    1.90    0.33
   1  -1 -13    1.84    0.27
   1  -1 -13    4.01    1.63
  -1   1  13    1.68    0.27
  -1   1  13   -0.30    1.74
  -1   1  13    1.81    0.21
  -1   1  13    1.87    0.99
  -1   1  13    1.84    0.51
   0  -1 -13   34.09    1.57
   0  -1 -13   32.99    3.52
   0  -1 -13   35.31    1.80
   0  -1 -13   33.33    1.77
   0   1  13   29.41    3.16
   0   1  13   34.47    1.68
   0   1  13   30.38    1.84
  -1  -1 -13    5.23    0.61
  -1  -1 -13    4.70    0.55
  -1  -1 -13    4.15    0.57
  -1  -1 -13    4.54    0.46
   1   1  13    6.78    1.13
   1   1  13    5.50    1.27
   1   1  13    4.76    0.41
   1   1  13    4.20    0.50
   1   1  13    4.70    0.63
  -2  -1 -13    1.74    0.13
  -2  -1 -13    1.93    0.34
  -2  -1 -13    2.56    0.63
  -2  -1 -13    2.31    1.38
   2   1  13    1.62    0.29
   2   1  13    0.68    3.23
   2   1  13    1.94    0.47
   2   1  13    0.46    1.27
  -3  -1 -13    0.13    0.04
  -3  -1 -13    0.19    0.16
  -3  -1 -13    0.16    0.25
   3   1  13    0.51    1.55
   3   1  13    0.71    0.28
   3   1  13    0.15    0.10
   3   1  13   -1.82    1.98
  -4  -1 -13    0.25    0.05
  -4  -1 -13    0.25    0.15
  -4  -1 -13   -0.08    0.10
   4   1  13   -0.04    1.56
   4   1  13    0.12    0.21
   4   1  13    0.15    0.09
  -5   2  13    0.19    0.05
  -4   2  13    0.02    0.11
  -4   2  13    0.30    0.13
  -4   2  13    0.07    0.05
   3  -2 -13    3.74    3.37
   3  -2 -13    2.93    0.37
   3  -2 -13    3.02    0.40
  -3   2  13    2.71    0.33
  -3   2  13    2.21    0.56
  -3   2  13    2.15    0.35
   2  -2 -13    3.58    1.50
   2  -2 -13    2.10    0.34
   2  -2 -13    2.10    0.31
  -2   2  13    2.08    0.42
  -2   2  13    0.68    0.82
  -2   2  13    2.17    0.28
  -2   2  13    2.08    0.32
   1  -2 -13    9.16    1.82
   1  -2 -13    5.84    0.62
   1  -2 -13    6.24    0.54
  -1   2  13    3.35    1.32
  -1   2  13    6.35    0.46
  -1   2  13    5.70    0.66
  -1   2  13    6.00    0.58
  -1   2  13    0.37    2.50
   0  -2 -13    5.93    1.91
   0  -2 -13    4.25    0.53
   0  -2 -13    4.36    0.47
   0  -2 -13    4.87    0.31
   0   2  13    4.44    0.31
   0   2  13    4.62    0.63
   0   2  13    5.05    0.98
   0   2  13    5.95    1.28
   0   2  13    4.68    0.50
   0   2  13    2.12    2.80
  -1  -2 -13    1.09    0.78
  -1  -2 -13    0.47    0.21
  -1  -2 -13    0.50    0.17
  -1  -2 -13    0.43    0.21
  -1  -2 -13    0.62    0.24
   1   2  13    0.49    0.16
   1   2  13    0.18    0.25
   1   2  13    0.92    0.34
  -2  -2 -13    8.99    2.56
  -2  -2 -13    5.48    0.79
  -2  -2 -13    5.45    0.61
   2   2  13    6.05    0.57
   2   2  13    7.83    0.88
   2   2  13    0.58    3.10
   2   2  13    6.36    0.71
  -3  -2 -13   11.81    0.91
  -3  -2 -13    9.51    1.05
   3   2  13   10.71    0.80
   3   2  13   10.19    0.98
  -4  -2 -13    1.39    0.22
   4   2  13    0.09    0.99
   4   2  13    1.02    0.18
  -5   3  13    0.14    0.05
   4  -3 -13    1.75    0.38
  -4   3  13    0.60    0.20
  -4   3  13    1.02    0.16
  -4   3  13    0.65    0.26
   3  -3 -13    2.48    0.35
  -3   3  13    2.52    0.58
  -3   3  13    2.26    0.38
  -3   3  13    2.56    0.33
  -3   3  13    3.84    1.39
  -2   3  13    1.83    1.23
  -2   3  13    0.64    0.25
   1  -3 -13    0.53    0.25
   1  -3 -13    0.58    0.11
   1  -3 -13    0.56    0.16
  -1   3  13    0.38    2.84
  -1   3  13    0.91    0.25
  -1   3  13    0.85    0.28
  -1   3  13    1.39    0.94
  -1   3  13    0.43    0.17
   0  -3 -13    8.14    0.68
   0  -3 -13    9.68    2.11
   0  -3 -13    8.43    0.44
   0  -3 -13    8.62    0.81
   0  -3 -13    8.45    0.82
   0   3  13    1.73    3.70
   0   3  13    8.29    0.70
   0   3  13    8.19    0.86
   0   3  13    7.06    1.32
   0   3  13    7.69    2.48
  -1  -3 -13    0.67    0.28
  -1  -3 -13    0.34    0.16
  -1  -3 -13    0.59    0.23
  -1  -3 -13    0.51    0.19
  -1  -3 -13    0.56    0.13
   1   3  13    0.15    0.15
   1   3  13   -0.12    1.82
   1   3  13    0.18    1.98
   1   3  13    1.26    1.22
   1   3  13    0.80    0.29
  -2  -3 -13   23.82    1.51
  -2  -3 -13   28.64    3.29
  -2  -3 -13   23.04    1.61
   2   3  13   23.53    1.32
   2   3  13   27.19    1.79
   2   3  13   26.57    1.64
   3   3  13    0.29    1.40
  -4  -3 -13    1.10    0.18
   4   3  13   -0.06    0.79
   4   3  13    1.11    0.16
   4  -4 -13    0.79    0.20
  -4   4  13    0.38    0.17
   3  -4 -13    7.12    0.70
   3  -4 -13    7.63    0.61
  -3   4  13    4.98    0.63
  -3   4  13    7.44    0.58
  -3   4  13    6.26    0.69
   2  -4 -13    0.11    0.12
  -2   4  13    0.08    0.10
  -2   4  13    0.26    0.21
  -2   4  13    0.00    0.06
   1  -4 -13    0.12    0.07
   1  -4 -13    0.11    0.12
   1  -4 -13    1.46    1.37
  -1   4  13    0.09    0.10
  -1   4  13    0.66    0.23
   0  -4 -13    0.56    0.13
   0  -4 -13    0.71    0.26
   0  -4 -13    0.42    0.16
   0  -4 -13   -1.16    0.79
   0   4  13    0.64    0.25
   0   4  13   -0.79    2.56
   0   4  13   -0.46    1.26
   0   4  13    2.40    1.13
   0   4  13    0.58    0.18
  -1  -4 -13    3.29    0.25
  -1  -4 -13    2.37    0.33
  -1  -4 -13    3.23    0.47
  -1  -4 -13    3.52    0.48
  -1  -4 -13    6.51    2.18
  -1  -4 -13    2.90    0.65
   1   4  13    3.33    1.36
   1   4  13    0.41    1.97
   1   4  13    4.33    0.62
  -2  -4 -13    7.90    2.67
  -2  -4 -13    5.92    0.63
  -2  -4 -13    5.76    0.71
   2   4  13    5.11    0.47
  -3  -4 -13    0.35    0.17
   3   4  13    0.16    0.15
   3   4  13    0.83    1.15
   4  -5 -13    1.47    0.28
  -4   5  13    1.40    0.18
   3  -5 -13    0.10    0.13
  -3   5  13    0.13    0.09
  -3   5  13   -0.07    0.08
   2  -5 -13    0.24    0.07
   2  -5 -13    0.07    0.12
   2  -5 -13    0.11    0.07
  -2   5  13    0.01    0.08
  -2   5  13   -0.09    0.21
  -2   5  13    0.04    0.07
  -2   5  13   -0.22    0.20
   1  -5 -13    0.20    0.20
   1  -5 -13    0.31    0.08
   1  -5 -13    0.16    0.11
  -1   5  13    0.03    0.10
  -1   5  13    0.16    0.10
  -1   5  13    0.25    0.24
   0  -5 -13    4.02    0.56
   0  -5 -13    3.16    0.41
   0  -5 -13    3.90    0.28
   0   5  13    3.60    0.60
   0   5  13   -0.40    2.50
   0   5  13    3.40    0.43
  -1  -5 -13   13.11    3.33
  -1  -5 -13   13.56    1.02
  -1  -5 -13   12.17    0.62
  -1  -5 -13   12.48    0.97
   1   5  13   13.83    1.21
  -2  -5 -13    1.11    0.33
   2   5  13    0.12    0.83
  -3  -5 -13    0.25    0.12
   3   5  13    0.67    1.61
   3   5  13    0.12    0.91
   3  -6 -13    0.15    0.16
   3  -6 -13    0.09    0.10
  -3   6  13    0.07    0.07
  -3   6  13    0.19    0.10
   2  -6 -13    0.31    0.13
   2  -6 -13    0.63    0.24
  -2   6  13    0.52    0.17
  -2   6  13    0.37    0.13
   1  -6 -13    0.14    0.08
   1  -6 -13   -0.16    0.11
  -1   6  13   -0.19    0.17
  -1   6  13    0.09    0.07
   0  -6 -13    0.33    0.12
   0  -6 -13    0.08    0.31
   0   6  13    0.23    0.19
   0   6  13   -0.54    0.81
  -1  -6 -13   -0.70    0.52
  -1  -6 -13    0.46    0.23
   1   6  13    0.07    0.21
   1   6  13    0.02    1.42
   1   6  13   -1.57    1.58
   2   6  13    0.73    1.00
   2   6  13    0.09    0.89
   3  -7 -13    0.28    0.08
  -3   7  13    0.04    0.07
  -3   7  13    0.12    0.05
   2  -7 -13    0.07    0.07
   2  -7 -13    0.07    0.16
  -2   7  13    0.43    0.11
  -2   7  13    0.16    0.09
   1  -7 -13    0.64    0.09
   1  -7 -13    0.51    0.16
   1  -7 -13    0.22    0.24
  -1   7  13    0.79    0.31
   0   7  13    1.38    0.62
  -1  -7 -13    2.68    0.35
   1   7  13    2.30    0.55
   1   8 -14   -0.17    1.11
  -1  -8  14    0.06    0.03
  -1  -8  14   -0.01    0.12
  -1   8 -14    0.40    2.49
   1  -8  14    0.36    0.34
   2   7 -14    0.06    0.86
   2   7 -14    0.47    0.16
  -2  -7  14    0.63    0.18
  -2  -7  14    0.31    0.09
   1   7 -14    1.42    3.52
   1   7 -14    0.98    0.24
  -1  -7  14    1.33    0.39
   0   7 -14    0.37    0.11
   0   7 -14   -0.04    1.26
   0   7 -14    1.00    0.44
   0  -7  14    0.38    0.08
  -1   7 -14    6.77    0.68
  -1   7 -14    5.68    0.48
  -1   7 -14    0.36    3.84
   1  -7  14    6.07    0.71
   1  -7  14    6.18    0.33
  -3   7 -14    0.86    0.26
  -3   7 -14    0.71    0.23
   3   6 -14   -0.31    1.13
  -3  -6  14    0.09    0.04
   2   6 -14   -0.08    0.08
   2   6 -14   -0.35    0.20
   2   6 -14   -0.50    1.44
  -2  -6  14    0.18    0.16
  -2  -6  14   -0.01    0.03
   1   6 -14   -0.27    2.02
   0   6 -14   -0.01    0.55
   0   6 -14    0.08    0.06
   0   6 -14   -0.20    0.17
   0   6 -14   -0.23    4.03
   0  -6  14    0.02    0.12
   0  -6  14    0.00    0.05
   0  -6  14    3.23    1.77
  -1   6 -14    0.19    2.89
  -1   6 -14    1.27    0.46
  -1   6 -14    0.21    0.09
   1  -6  14    0.44    0.09
  -2   6 -14    0.32    0.19
  -2   6 -14    0.20    0.09
  -2   6 -14   -0.49    4.56
  -2   6 -14    0.35    0.16
   2  -6  14    0.34    0.12
   2  -6  14    0.17    0.92
   2  -6  14    0.14    0.21
   2  -6  14   -0.29    0.27
  -3   6 -14    0.14    0.15
  -3   6 -14    0.02    0.09
   3  -6  14    0.69    1.24
   3  -6  14    0.18    0.20
   4  -6  14    0.38    0.10
   3   5 -14    0.49    0.16
   3   5 -14   -0.99    1.22
   3   5 -14    0.26    0.25
  -3  -5  14    0.21    0.08
   2   5 -14    0.73    0.35
   2   5 -14    0.90    0.29
  -2  -5  14    1.16    0.26
  -2  -5  14    1.32    0.41
   1   5 -14    1.94    0.22
   1   5 -14    1.91    0.73
   1   5 -14    1.88    0.43
  -1  -5  14    2.03    0.42
  -1  -5  14    1.78    1.59
   0   5 -14    1.93    0.48
   0   5 -14    1.26    0.35
   0   5 -14    1.27    0.21
   0   5 -14    1.69    0.51
   0  -5  14    3.26    1.32
   0  -5  14    1.14    0.41
   0  -5  14    1.45    0.14
  -1   5 -14   15.78    1.15
  -1   5 -14   15.07    0.86
   1  -5  14   15.48    1.29
   1  -5  14   16.18    3.16
   1  -5  14   13.10    0.76
  -2   5 -14    2.89    6.98
   2  -5  14    0.64    1.48
   2  -5  14    3.80    2.00
  -3   5 -14    0.22    0.13
  -3   5 -14    0.38    0.16
   3  -5  14   -0.03    0.16
   3  -5  14    0.16    0.10
   3  -5  14    0.60    1.24
  -4   5 -14    0.18    0.18
   4  -5  14    0.59    1.23
   4   4 -14    7.06    0.53
  -4  -4  14    9.32    0.45
  -4  -4  14    8.32    0.58
   3   4 -14    0.69    0.31
   3   4 -14    0.70    0.19
  -3  -4  14    0.34    0.15
  -3  -4  14    0.45    0.14
   2   4 -14    0.87    0.40
   2   4 -14    0.57    0.23
   2   4 -14    1.08    0.17
  -2  -4  14    1.02    1.42
  -2  -4  14    0.49    0.27
  -2  -4  14    2.20    1.52
  -2  -4  14    0.84    0.24
  -2  -4  14    1.04    1.41
   1   4 -14    0.12    0.17
   1   4 -14    0.00    0.07
  -1  -4  14    0.43    0.22
  -1  -4  14    0.30    0.13
  -1  -4  14    0.36    0.89
   0   4 -14   -0.31    0.20
   0   4 -14    0.03    0.11
   0   4 -14    0.36    0.18
   0   4 -14    0.00    0.06
   0  -4  14   -0.10    0.09
   0  -4  14   -1.49    1.41
   0  -4  14   -0.05    0.10
  -1   4 -14   38.19    2.65
  -1   4 -14   33.33    1.68
  -1   4 -14   33.37    1.93
  -1   4 -14   38.34    1.60
   1  -4  14   34.95    1.56
   1  -4  14   35.36    2.18
   1  -4  14   36.71    1.78
  -2   4 -14    1.37    0.44
  -2   4 -14    0.75    0.17
   2  -4  14    0.05    0.92
   2  -4  14    0.86    0.30
   2  -4  14    1.23    0.38
   2  -4  14    0.75    0.20
  -3   4 -14    0.89    0.27
  -3   4 -14    0.48    0.20
   3  -4  14    1.02    0.32
   3  -4  14    0.69    0.19
   3  -4  14   -1.02    1.48
  -4   4 -14    0.65    0.21
  -4   4 -14    1.05    0.25
   4  -4  14    0.53    0.25
   4  -4  14    0.78    0.14
   4  -4  14    0.21    0.68
   4   3 -14    0.65    0.26
   4   3 -14    0.13    3.20
   4   3 -14    1.42    0.32
  -4  -3  14    0.75    0.12
  -4  -3  14    0.66    0.20
   3   3 -14    0.24    0.22
   3   3 -14    0.27    0.17
  -3  -3  14   -2.21    2.16
  -3  -3  14    0.09    0.10
  -3  -3  14   -0.01    0.04
  -3  -3  14   -0.01    0.04
   2   3 -14    0.15    0.15
   2   3 -14    0.31    0.13
  -2  -3  14   -0.54    1.01
  -2  -3  14   -0.85    1.00
  -2  -3  14    0.02    0.17
  -2  -3  14    0.35    0.15
  -2  -3  14    0.07    0.05
   1   3 -14    4.19    0.49
   1   3 -14    4.29    0.62
  -1  -3  14    3.90    0.31
  -1  -3  14    3.92    0.53
  -1  -3  14    5.78    2.02
   0   3 -14    3.48    0.56
   0   3 -14    3.08    0.46
   0   3 -14    3.29    0.56
   0   3 -14    3.52    0.45
   0  -3  14    4.28    0.53
   0  -3  14    3.33    0.28
   0  -3  14    4.80    1.82
  -1   3 -14   10.13    0.73
  -1   3 -14   10.16    0.96
  -1   3 -14   12.16    0.99
  -1   3 -14    9.97    0.61
  -1   3 -14    9.57    1.06
   1  -3  14   10.69    0.65
   1  -3  14    9.64    2.01
   1  -3  14    9.60    1.11
  -2   3 -14    0.26    0.13
  -2   3 -14    0.11    0.27
  -2   3 -14    0.07    0.07
   2  -3  14   -0.10    0.14
   2  -3  14   -0.54    0.97
   2  -3  14    0.24    0.09
   2  -3  14    2.04    3.53
   2  -3  14    0.24    0.36
   2  -3  14   -0.25    0.71
  -3   3 -14    1.52    0.32
  -3   3 -14    1.09    0.12
   3  -3  14    1.19    0.22
   3  -3  14    1.03    0.34
   3  -3  14    0.05    1.41
  -4   3 -14    0.07    0.13
  -4   3 -14    0.32    0.05
  -4   3 -14    0.37    0.18
   4  -3  14    0.06    0.51
   4  -3  14    0.17    0.08
   4  -3  14    0.45    0.19
   4   2 -14    0.75    0.25
   4   2 -14    0.29    0.23
  -4  -2  14    0.37    0.09
  -4  -2  14    0.41    0.10
  -4  -2  14    0.58    0.25
  -3  -2  14    2.29    1.53
   2   2 -14    1.85    0.40
   2   2 -14    1.23    0.38
  -2  -2  14    1.97    0.41
  -2  -2  14    3.92    1.40
  -2  -2  14    1.66    0.41
  -2  -2  14    1.86    0.22
   1   2 -14    1.56    0.28
   1   2 -14    1.21    0.36
   1   2 -14    1.42    0.40
  -1  -2  14    2.76    1.35
  -1  -2  14    1.92    0.52
  -1  -2  14    1.75    0.47
  -1  -2  14    0.47    2.57
  -1  -2  14    1.45    0.17
   0   2 -14    0.66    0.24
   0   2 -14    0.74    0.19
   0   2 -14    0.64    0.27
   0   2 -14    0.92    0.32
   0  -2  14    0.54    0.12
   0  -2  14   -0.40    1.01
   0  -2  14    0.58    0.33
  -1   2 -14    9.78    0.91
  -1   2 -14    8.51    0.99
  -1   2 -14    9.58    0.72
  -1   2 -14    8.99    0.77
   1  -2  14   10.03    0.63
   1  -2  14    9.51    0.72
   1  -2  14   10.51    1.89
   1  -2  14   10.21    1.12
  -2   2 -14    1.16    0.32
  -2   2 -14    0.70    0.15
  -2   2 -14    0.97    0.49
  -2   2 -14    0.89    0.10
   2  -2  14   -0.35    1.07
   2  -2  14   -0.68    1.72
   2  -2  14   -0.09    2.05
   2  -2  14    0.88    0.22
   2  -2  14    1.10    0.30
   2  -2  14   -0.42    1.02
  -3   2 -14   24.86    1.44
  -3   2 -14   25.27    0.95
   3  -2  14   22.69    1.82
   3  -2  14   21.96    1.29
  -4   2 -14    1.43    0.12
  -4   2 -14    1.64    0.27
  -4   2 -14    0.69    0.28
   4  -2  14    1.09    0.20
   4  -2  14    1.15    0.28
   4  -2  14    0.85    1.70
   4   1 -14    0.59    0.26
  -4  -1  14    0.27    0.18
   3   1 -14   -0.07    0.13
  -3  -1  14    0.04    0.05
  -3  -1  14    0.03    0.04
  -3  -1  14    0.26    0.25
   2   1 -14   10.42    0.76
   2   1 -14   11.02    0.92
   2   1 -14   10.13    0.84
  -2  -1  14    8.16    0.74
  -2  -1  14   11.10    2.42
  -2  -1  14   10.08    1.01
  -2  -1  14   11.09    0.60
  -2  -1  14    9.50    0.83
   1   1 -14    1.04    0.31
   1   1 -14    0.42    0.21
   1   1 -14    0.57    0.17
  -1  -1  14   -0.47    0.81
  -1  -1  14   -0.33    1.44
  -1  -1  14    0.30    0.07
  -1  -1  14    0.52    0.29
   0   1 -14    0.23    0.19
   0   1 -14    0.36    0.13
   0   1 -14    0.69    0.24
   0   1 -14    0.18    0.18
   0  -1  14    0.36    0.10
   0  -1  14   -0.31    1.34
   0  -1  14   -0.72    1.03
   0  -1  14   -0.10    0.62
   0  -1  14    0.75    0.26
  -1   1 -14   -0.87    0.99
  -1   1 -14   -0.16    0.16
  -1   1 -14    0.52    0.29
  -1   1 -14    0.41    0.16
  -1   1 -14    0.27    0.17
   1  -1  14    0.09    0.12
   1  -1  14    0.00    1.31
   1  -1  14    0.20    0.10
   1  -1  14    0.53    0.20
   1  -1  14   -0.34    0.50
   1  -1  14    0.54    1.97
  -2   1 -14    0.26    0.17
  -2   1 -14   -0.22    0.15
  -2   1 -14    0.08    0.10
  -2   1 -14    0.16    0.04
   2  -1  14    0.15    0.10
   2  -1  14   -0.03    0.15
   2  -1  14   -0.57    0.93
   2  -1  14    0.37    0.33
   2  -1  14    0.30    1.17
  -3   1 -14    3.42    0.83
  -3   1 -14    4.04    0.24
  -3   1 -14    3.75    0.49
   3  -1  14    3.84    0.44
  -4   1 -14    0.84    0.25
  -4   1 -14    0.69    0.07
   4  -1  14    0.59    0.16
   4  -1  14    0.67    0.23
  -5   0  14    0.58    0.17
   4   0 -14    0.81    0.40
   4   0 -14    0.85    0.24
  -4   0  14    0.29    0.18
   3   0 -14    3.72    0.46
   3   0 -14    3.30    0.40
  -3   0  14    3.60    0.33
  -3   0  14    4.48    1.81
  -3   0  14    3.18    0.58
  -3   0  14    3.12    0.30
   2   0 -14    2.63    0.33
   2   0 -14    2.66    0.39
   2   0 -14    1.95    0.36
  -2   0  14    4.08    0.93
  -2   0  14    1.88    0.33
  -2   0  14    2.68    0.27
  -2   0  14    2.21    0.49
  -2   0  14    3.72    1.79
   1   0 -14    1.53    0.28
   1   0 -14    1.74    0.31
   1   0 -14    1.35    0.24
  -1   0  14   -1.46    2.23
  -1   0  14    1.46    0.35
  -1   0  14    1.41    0.18
  -1   0  14    1.86    0.33
   0   0 -14   16.17    1.09
   0   0 -14   17.81    1.22
   0   0 -14   18.87    2.85
   0   0 -14   18.15    1.23
   0   0 -14   17.87    1.02
   0   0  14   15.78    1.19
   0   0  14   14.96    3.31
   0   0  14   17.32    0.77
  -1   0 -14    1.76    0.48
  -1   0 -14    0.99    0.26
  -1   0 -14    1.82    0.41
  -1   0 -14    1.91    1.07
  -1   0 -14    1.54    0.47
   1   0  14    0.53    0.78
   1   0  14    0.04    0.92
   1   0  14    1.12    0.18
   1   0  14    0.81    0.28
  -2   0 -14    1.45    0.44
  -2   0 -14    1.08    0.10
  -2   0 -14    1.73    0.30
   2   0  14    0.98    0.25
   2   0  14    0.39    1.21
   2   0  14    1.13    0.34
   2   0  14   -1.17    1.42
  -3   0 -14    1.87    0.34
  -3   0 -14    1.79    0.54
   3   0  14    1.98    0.39
   3   0  14    1.56    0.26
  -4   0 -14    1.03    0.22
   4   0  14    0.21    1.70
   4   0  14    1.02    0.18
   4   0  14    0.87    0.30
  -5   1  14   -0.03    0.06
  -5   1  14    0.04    0.04
   4  -1 -14    1.39    0.33
  -4   1  14    0.90    0.14
  -4   1  14    0.69    0.28
  -4   1  14    0.80    0.35
   3  -1 -14    1.69    0.32
   3  -1 -14    2.14    0.28
   3  -1 -14    1.94    0.35
  -3   1  14    1.89    0.25
  -3   1  14    1.77    0.29
  -3   1  14    2.12    1.14
  -3   1  14    2.10    0.52
   2  -1 -14    0.88    0.28
   2  -1 -14    0.01    0.95
   2  -1 -14    0.62    0.21
  -2   1  14    0.10    0.62
  -2   1  14    0.76    0.18
  -2   1  14    0.65    0.21
  -2   1  14    0.88    0.40
   1  -1 -14    1.20    0.95
   1  -1 -14   -0.02    0.08
  -1   1  14   -0.15    0.57
  -1   1  14    0.20    0.11
  -1   1  14    0.09    0.16
  -1   1  14   -0.06    0.06
  -1   1  14   -1.89    1.33
   0  -1 -14    2.49    0.41
   0  -1 -14    2.00    0.30
   0  -1 -14    3.12    1.29
   0  -1 -14    2.21    0.37
   0   1  14    1.98    0.50
   0   1  14    2.19    0.34
   0   1  14   -0.05    1.79
   0   1  14   -0.42    1.38
   0   1  14    1.67    0.20
   0   1  14    1.26    1.46
  -1  -1 -14   38.21    1.81
  -1  -1 -14   45.27    2.27
  -1  -1 -14   39.79    3.49
  -1  -1 -14   37.69    2.19
  -1  -1 -14   39.10    2.09
   1   1  14   33.16    3.11
   1   1  14   38.42    1.70
   1   1  14   37.16    1.94
   1   1  14   43.18    2.56
  -2  -1 -14   13.60    0.66
  -2  -1 -14   16.35    1.15
  -2  -1 -14   18.91    1.47
  -2  -1 -14   21.31    2.66
   2   1  14   17.07    1.25
   2   1  14   15.17    1.00
   2   1  14   17.04    1.37
  -3  -1 -14    0.43    0.06
  -3  -1 -14    0.43    0.19
  -3  -1 -14    0.27    0.26
   3   1  14    1.20    2.82
   3   1  14    0.16    0.16
   3   1  14    0.42    2.03
   3   1  14    0.36    0.19
  -4  -1 -14    0.50    0.20
   4   1  14   -0.29    0.76
   4   1  14    1.16    0.23
   4   1  14    0.72    0.28
   4  -2 -14    0.99    0.25
  -4   2  14    0.57    0.16
  -4   2  14    0.29    0.09
  -4   2  14    0.17    0.20
   3  -2 -14    3.06    0.37
  -3   2  14    1.80    1.58
  -3   2  14    3.35    0.59
  -3   2  14    3.77    0.37
  -3   2  14    2.68    0.41
   2  -2 -14    1.22    0.34
   2  -2 -14    1.61    0.24
   2  -2 -14    1.72    1.90
  -2   2  14    1.19    0.21
  -2   2  14    1.04    0.29
  -2   2  14    1.72    0.49
  -2   2  14    1.42    0.41
  -2   2  14    1.28    1.35
   1  -2 -14    0.70    0.66
  -1   2  14    2.47    1.25
  -1   2  14   -0.40    1.86
   0  -2 -14    9.17    0.70
   0  -2 -14    9.70    0.85
   0  -2 -14    9.13    0.79
   0  -2 -14    8.72    0.84
   0   2  14    9.45    0.50
   0   2  14   13.26    1.95
  -1  -2 -14    0.38    0.16
  -1  -2 -14    0.04    0.08
  -1  -2 -14   -1.61    1.35
  -1  -2 -14    0.27    0.24
  -1  -2 -14    0.09    0.09
   1   2  14   -0.09    0.14
   1   2  14    0.11    0.24
   1   2  14   -1.01    1.31
   1   2  14   -0.57    0.39
   1   2  14   -0.11    1.12
  -2  -2 -14    2.59    0.42
  -2  -2 -14    2.42    0.46
   2   2  14    2.82    0.38
   2   2  14    2.83    0.45
   2   2  14    0.78    2.39
   2   2  14    3.40    2.01
   2   2  14    0.25    1.02
  -3  -2 -14    0.47    0.24
  -3  -2 -14    0.69    0.43
   3   2  14    1.84    0.95
   3   2  14    0.43    0.22
   3   2  14    0.28    0.14
   3   2  14    0.48    2.24
   3   2  14   -0.52    1.14
  -4  -2 -14    0.11    0.11
  -4  -2 -14   -0.37    0.20
   4   2  14   -0.09    1.42
   4   2  14    0.02    0.29
   4   2  14    0.18    0.12
   4  -3 -14    0.09    0.16
   4  -3 -14    0.09    0.24
  -4   3  14    0.20    0.06
  -4   3  14    0.23    0.14
  -4   3  14    0.23    0.12
   3  -3 -14    0.10    0.12
   3  -3 -14    0.41    0.12
  -3   3  14    0.77    0.31
  -3   3  14    0.10    0.12
  -3   3  14   -0.30    1.04
  -3   3  14    0.03    0.08
   2  -3 -14    2.13    0.34
   2  -3 -14    2.26    0.39
  -2   3  14    2.08    0.38
  -2   3  14    2.55    1.10
  -2   3  14    2.34    0.43
  -2   3  14    2.29    0.27
   1  -3 -14    0.99    0.26
   1  -3 -14    2.27    1.16
   1  -3 -14    0.46    0.21
  -1   3  14    1.14    0.30
  -1   3  14    1.09    2.69
  -1   3  14    0.67    0.18
  -1   3  14    0.44    0.30
  -1   3  14    1.55    0.89
   0  -3 -14    6.07    0.69
   0  -3 -14    6.91    2.31
   0  -3 -14    6.18    0.35
   0   3  14    9.48    2.50
   0   3  14    5.84    0.61
   0   3  14    6.51    0.78
  -1  -3 -14    8.70    0.85
  -1  -3 -14    8.44    0.64
  -1  -3 -14   11.47    2.59
  -1  -3 -14    8.36    0.82
  -1  -3 -14    8.48    0.77
   1   3  14   10.28    1.03
  -2  -3 -14   19.57    1.42
  -2  -3 -14   21.18    3.01
  -2  -3 -14   21.16    1.70
   2   3  14   19.85    1.37
   2   3  14   19.49    1.10
  -3  -3 -14    1.57    0.40
   3   3  14    0.19    0.84
   3   3  14    0.89    0.20
   3   3  14    0.37    0.37
   4   3  14    0.18    0.71
   4  -4 -14    0.86    0.28
   3  -4 -14    1.15    0.32
   3  -4 -14    1.08    0.38
  -3   4  14    0.84    0.19
  -3   4  14    0.96    0.33
  -3   4  14    0.86    0.32
   2  -4 -14    0.13    0.09
   2  -4 -14    0.24    0.17
  -2   4  14    0.08    0.07
  -2   4  14   -0.05    0.21
  -2   4  14    0.09    0.09
  -2   4  14   -0.14    0.14
   1  -4 -14    0.08    0.08
   1  -4 -14    0.22    0.12
  -1   4  14    0.26    0.10
  -1   4  14    0.32    0.18
   0  -4 -14    0.83    0.11
   0  -4 -14    1.09    0.31
   0  -4 -14    1.20    1.66
   0   4  14   -0.42    0.82
   0   4  14    0.89    0.43
   0   4  14    0.91    0.27
   0   4  14    1.68    1.67
  -1  -4 -14    0.47    0.20
  -1  -4 -14    0.61    0.21
  -1  -4 -14    0.33    0.17
   1   4  14    0.14    1.36
   1   4  14    0.09    1.60
  -2  -4 -14    0.64    0.36
  -2  -4 -14    0.26    0.14
   2   4  14   -0.31    0.53
   2   4  14    0.76    0.41
   3   4  14   -0.03    0.31
   3   4  14   -0.04    1.02
   3   4  14   -0.07    0.70
  -4   5  14    0.56    0.14
  -4   5  14    0.90    0.13
   3  -5 -14    0.26    0.13
  -3   5  14    0.10    0.06
  -3   5  14    0.18    0.11
   2  -5 -14    0.01    0.07
   2  -5 -14    0.05    0.13
  -2   5  14   -0.08    0.08
  -2   5  14   -0.22    0.17
  -2   5  14   -0.05    0.16
   1  -5 -14    0.47    0.19
   1  -5 -14    0.56    0.21
   1  -5 -14    0.64    0.10
  -1   5  14    0.61    0.37
  -1   5  14    0.52    0.20
  -1   5  14    0.67    0.17
   0  -5 -14    0.29    0.15
   0  -5 -14    0.17    0.07
   0  -5 -14    0.39    0.24
   0  -5 -14    0.31    0.18
   0   5  14    0.86    1.63
   0   5  14    0.53    0.27
   0   5  14    0.92    1.92
  -1  -5 -14    0.02    0.13
   1   5  14    0.08    0.23
   1   5  14   -1.47    0.81
  -2  -5 -14    1.78    0.29
   2   5  14    0.22    2.01
  -3  -5 -14    1.15    0.26
   3   5  14    0.03    0.74
   3  -6 -14    0.38    0.14
   3  -6 -14    0.30    0.18
  -3   6  14    0.79    0.22
  -3   6  14    0.70    0.12
   2  -6 -14    0.78    0.21
  -2   6  14    0.66    0.23
  -2   6  14    0.73    0.21
   1  -6 -14    0.57    0.18
   1  -6 -14    0.22    0.13
   1  -6 -14    0.45    0.10
  -1   6  14    0.46    0.21
  -1   6  14    0.22    0.10
   0  -6 -14    0.67    0.17
   0  -6 -14    0.76    0.40
   0  -6 -14    0.70    0.20
   0  -6 -14    0.57    0.08
   0   6  14    0.51    0.35
   0   6  14    0.40    2.00
   1   6  14    0.47    0.19
   1   6  14    0.19    1.48
   1   6  14   -0.31    2.94
  -2  -6 -14    0.76    0.22
   2   6  14   -0.32    1.10
   2   6  14   -0.27    1.60
   2  -7 -14    0.24    0.20
   2  -7 -14    0.42    0.12
  -2   7  14    0.23    0.10
   1  -7 -14    0.03    0.09
   1  -7 -14   -0.01    0.12
   1  -7 -14    0.15    0.05
  -1   7  14    0.36    0.19
  -1  -7 -14    0.70    0.23
   1   7  14    0.70    0.31
   0   8 -15    1.24    0.47
   0   8 -15    0.12    0.88
   0  -8  15    0.50    0.25
  -1   8 -15    0.41    0.28
   1  -8  15    0.56    0.32
  -2   8 -15    0.26    0.19
   2   7 -15    1.09    1.14
   1   7 -15   -0.38    0.21
   1   7 -15    0.94    2.07
  -1  -7  15    0.13    0.17
   0   7 -15    3.63    0.32
   0  -7  15    3.71    0.22
   0  -7  15    3.47    0.52
  -1   7 -15    2.57    0.30
  -1   7 -15    3.53    0.47
   1  -7  15    2.58    0.18
   1  -7  15    2.25    0.43
  -2   7 -15    2.49    0.45
   2  -7  15    1.60    0.13
  -3   7 -15    0.02    0.14
   3  -7  15    0.02    0.02
   2   6 -15   -2.01    1.31
   2   6 -15    0.56    0.16
   2   6 -15    0.88    0.30
  -2  -6  15    0.60    0.14
   1   6 -15    1.86    0.47
   1   6 -15    0.49    1.88
   1   6 -15    1.32    0.25
   1   6 -15    1.37    0.33
   0   6 -15    1.36    0.21
   0   6 -15    0.05    2.09
   0  -6  15    3.19    1.88
   0  -6  15    1.77    0.37
   0  -6  15    1.42    0.15
  -1   6 -15   -1.06    1.00
  -1   6 -15    0.44    0.21
  -1   6 -15    0.14    0.08
   1  -6  15    0.80    0.36
   1  -6  15    0.23    0.06
  -2   6 -15    2.31    0.39
  -2   6 -15    2.15    0.34
  -2   6 -15    1.58    0.24
  -2   6 -15   -2.49    4.76
   2  -6  15    2.43    0.51
   2  -6  15    1.31    1.89
   2  -6  15    1.62    0.22
  -3   6 -15    0.44    0.27
   3  -6  15    0.73    0.53
   3   5 -15    0.27    1.94
   3   5 -15   -0.13    0.18
  -3  -5  15    0.15    0.09
   2   5 -15    0.54    0.15
   2   5 -15    0.31    0.22
   2   5 -15    0.31    0.19
  -2  -5  15    0.45    0.16
  -2  -5  15    0.09    0.17
   1   5 -15    0.30    0.15
   1   5 -15    0.06    0.21
   1   5 -15    0.28    0.08
  -1  -5  15    0.00    0.16
  -1  -5  15    1.65    1.37
   0   5 -15    1.14    0.32
   0  -5  15    1.00    1.00
  -1   5 -15    0.77    2.67
   1  -5  15    0.38    1.96
   1  -5  15   -0.56    1.11
  -2   5 -15    0.04    0.11
   2  -5  15    0.23    1.20
   2  -5  15   -0.01    0.09
   2  -5  15    0.20    0.30
   2  -5  15    0.71    1.78
  -3   5 -15    0.60    0.18
  -3   5 -15    0.76    0.26
   3  -5  15    0.48    0.15
   3  -5  15    0.90    0.24
   3  -5  15    0.25    1.31
  -4   5 -15    0.05    0.05
   4  -5  15   -0.58    0.72
   4   4 -15   -0.06    0.12
  -4  -4  15    0.01    0.03
  -4  -4  15    0.11    0.07
   3   4 -15    0.38    0.15
   3   4 -15    0.10    0.19
  -3  -4  15    0.15    0.08
  -3  -4  15    0.14    0.10
   2   4 -15    2.11    0.25
   2   4 -15    2.08    0.57
   2   4 -15    2.12    0.35
  -2  -4  15    1.78    1.67
  -2  -4  15    2.02    0.23
  -2  -4  15    2.04    0.37
  -2  -4  15    1.92    0.42
   1   4 -15    3.35    0.32
   1   4 -15    3.17    0.61
   1   4 -15    3.68    0.50
  -1  -4  15    2.22    1.58
  -1  -4  15    3.90    0.46
  -1  -4  15    3.49    0.30
  -1  -4  15    3.75    0.56
   0   4 -15    5.86    0.91
   0   4 -15    5.58    0.58
   0   4 -15    5.13    0.73
   0   4 -15    5.97    0.45
   0  -4  15    5.39    0.73
   0  -4  15    4.55    1.43
  -1   4 -15    8.11    0.98
  -1   4 -15    7.51    0.55
  -1   4 -15    8.38    0.80
   1  -4  15    8.68    0.95
   1  -4  15    6.63    2.64
  -2   4 -15    5.75    0.66
  -2   4 -15    6.10    0.47
   2  -4  15    5.16    0.63
   2  -4  15    5.08    0.47
   2  -4  15    2.94    1.77
   2  -4  15    5.92    0.77
  -3   4 -15   -0.03    0.07
  -3   4 -15    0.13    0.15
   3  -4  15    0.20    0.14
   3  -4  15   -0.25    0.69
   3  -4  15    0.12    0.09
  -4   4 -15    0.18    0.14
   4  -4  15   -0.03    0.62
   4  -4  15    0.18    0.08
   4   3 -15    1.32    0.21
   4   3 -15   -0.33    2.42
  -4  -3  15    1.01    0.12
  -4  -3  15    0.93    0.24
   3   3 -15    2.14    0.43
   3   3 -15    2.28    0.35
  -3  -3  15    2.10    0.23
  -3  -3  15    1.82    0.43
  -3  -3  15    2.39    0.23
   2   3 -15    0.64    0.23
   2   3 -15    0.43    0.16
  -2  -3  15    0.26    0.09
  -2  -3  15    2.14    1.61
  -2  -3  15    0.57    0.23
  -2  -3  15    0.25    0.27
   1   3 -15    0.99    0.31
   1   3 -15    0.58    0.24
   1   3 -15    1.24    0.41
  -1  -3  15    0.88    0.15
  -1  -3  15    1.49    0.45
  -1  -3  15    1.48    0.38
   0   3 -15    5.00    0.68
   0   3 -15    4.63    0.51
   0   3 -15    4.28    0.65
   0   3 -15    4.57    0.57
   0  -3  15    4.98    0.59
   0  -3  15    4.96    0.64
   0  -3  15    4.41    0.33
   0  -3  15    5.88    2.07
  -1   3 -15   22.56    1.42
  -1   3 -15   26.21    1.16
  -1   3 -15   24.60    1.62
  -1   3 -15   23.76    1.29
  -1   3 -15   24.51    1.89
   1  -3  15   25.49    1.16
   1  -3  15   25.45    1.70
   1  -3  15   22.01    3.10
   1  -3  15   22.78    1.32
  -2   3 -15    4.68    1.16
  -2   3 -15    3.47    0.33
  -2   3 -15    3.10    0.43
   2  -3  15    3.18    0.36
   2  -3  15    3.29    0.47
   2  -3  15    0.42    2.32
   2  -3  15    1.34    1.42
   2  -3  15    3.69    0.59
   2  -3  15    0.70    2.56
  -3   3 -15    0.04    0.02
  -3   3 -15    0.22    0.16
   3  -3  15    0.37    0.19
   3  -3  15    0.11    0.06
  -4   3 -15    0.44    0.20
  -4   3 -15    0.80    0.24
   4  -3  15    0.34    0.19
   4  -3  15    0.48    0.13
   4  -3  15    0.18    1.06
   4   2 -15    3.72    0.47
  -4  -2  15    3.73    0.25
  -4  -2  15    3.59    0.25
  -4  -2  15    4.35    0.56
   3   2 -15    0.86    0.26
   3   2 -15    1.17    0.27
  -3  -2  15    0.85    0.14
  -3  -2  15    0.78    0.33
  -3  -2  15    0.68    0.14
  -3  -2  15    2.19    1.93
   2   2 -15    6.52    0.76
   2   2 -15    6.57    0.62
  -2  -2  15    7.78    0.85
  -2  -2  15    6.90    0.68
  -2  -2  15    7.04    0.46
   1   2 -15    3.11    0.40
   1   2 -15    2.86    0.49
   1   2 -15    2.72    0.47
  -1  -2  15    3.68    0.53
  -1  -2  15    3.36    0.27
  -1  -2  15    2.71    0.47
   0   2 -15    0.42    0.21
   0   2 -15    0.14    0.10
   0   2 -15   -0.19    0.15
   0   2 -15    0.39    0.19
   0  -2  15   -0.14    0.74
   0  -2  15   -0.21    0.30
   0  -2  15    0.30    0.93
   0  -2  15    0.08    0.07
  -1   2 -15    6.08    0.56
  -1   2 -15    6.03    0.84
  -1   2 -15    5.58    0.61
   1  -2  15    5.34    0.56
   1  -2  15    8.94    2.61
   1  -2  15    6.44    2.01
   1  -2  15    6.34    0.74
   1  -2  15    5.46    0.43
   1  -2  15    0.58    2.95
  -2   2 -15    2.44    0.17
  -2   2 -15    1.81    0.60
  -2   2 -15    2.13    0.26
  -2   2 -15    2.37    0.38
   2  -2  15    3.24    1.52
   2  -2  15    3.18    0.56
   2  -2  15   -0.77    1.30
   2  -2  15    2.48    0.40
   2  -2  15    2.10    0.28
  -3   2 -15    1.65    0.13
  -3   2 -15    1.67    0.32
   3  -2  15   -0.17    1.15
   3  -2  15    1.20    0.33
   3  -2  15    1.64    0.25
   3  -2  15    0.91    1.33
  -4   2 -15    0.09    0.12
  -4   2 -15    0.00    0.05
  -4   2 -15    0.10    0.03
   4  -2  15    0.33    1.56
   4  -2  15    0.16    0.17
   4  -2  15   -0.02    0.06
   4   1 -15    0.17    0.23
   4   1 -15    0.51    0.18
  -4  -1  15   -0.02    0.15
  -4  -1  15    0.15    0.05
  -4  -1  15    0.03    0.08
   3   1 -15    0.46    0.19
   3   1 -15    0.37    0.13
  -3  -1  15    0.02    0.20
  -3  -1  15    1.60    1.51
   2   1 -15    0.40    0.21
   2   1 -15    0.40    0.25
   2   1 -15    0.07    0.19
  -2  -1  15    2.59    1.12
  -2  -1  15    0.83    0.36
  -2  -1  15    0.52    0.15
  -2  -1  15    0.66    0.29
  -2  -1  15    0.17    0.11
   1   1 -15    0.26    0.09
   1   1 -15   -0.09    0.13
   1   1 -15    0.11    0.14
  -1  -1  15    0.16    0.09
  -1  -1  15    0.77    0.71
  -1  -1  15   -0.39    1.99
   0   1 -15    0.44    0.23
   0   1 -15    0.35    0.18
   0   1 -15    0.22    0.12
   0   1 -15    0.29    0.18
   0  -1  15    0.51    2.48
   0  -1  15    0.00    0.20
   0  -1  15   -0.70    2.29
  -1   1 -15    2.99    0.89
  -1   1 -15    3.39    0.60
  -1   1 -15    2.93    0.39
  -1   1 -15    2.71    0.36
  -1   1 -15    4.35    1.62
   1  -1  15    0.40    1.76
   1  -1  15    5.21    1.65
   1  -1  15    2.34    0.39
   1  -1  15    2.53    0.29
   1  -1  15    4.82    1.26
  -2   1 -15    1.06    0.11
  -2   1 -15    0.85    0.37
  -2   1 -15    1.38    0.40
  -2   1 -15    0.94    0.20
   2  -1  15   -0.17    1.53
   2  -1  15    1.81    0.32
   2  -1  15    0.85    0.24
   2  -1  15   -0.73    1.79
  -3   1 -15    0.36    0.17
  -3   1 -15    0.55    0.25
   3  -1  15    0.80    1.56
   3  -1  15    0.27    0.19
   3  -1  15    0.33    0.10
  -4   1 -15    0.83    0.08
  -4   1 -15    1.08    0.21
  -4   1 -15    0.63    0.21
   4  -1  15    1.00    1.86
   4  -1  15    0.68    0.23
   4  -1  15    1.20    0.18
   4  -1  15    0.15    0.72
   4   0 -15   -0.05    0.28
  -4   0  15    0.37    0.11
  -4   0  15    0.48    0.25
   3   0 -15    2.85    0.35
   3   0 -15    3.17    0.45
  -3   0  15    3.19    0.57
  -3   0  15    2.93    1.76
  -3   0  15    3.22    0.32
   2   0 -15    6.07    0.66
   2   0 -15    5.75    0.53
   2   0 -15    5.90    0.59
  -2   0  15    5.74    0.55
  -2   0  15    4.25    1.59
  -2   0  15    6.44    0.61
  -2   0  15    6.71    0.46
  -2   0  15    8.45    0.98
   1   0 -15    5.77    0.62
   1   0 -15    5.37    0.58
   1   0 -15    5.03    0.50
  -1   0  15    5.45    0.37
  -1   0  15    5.34    0.54
   0   0 -15    2.17    0.33
   0   0 -15    1.72    0.44
   0   0 -15    2.18    0.39
   0   0 -15    4.23    1.87
   0   0 -15    1.85    0.39
   0   0  15    0.00    0.94
   0   0  15    1.83    0.19
   0   0  15    2.23    1.03
   0   0  15   -0.42    1.61
  -1   0 -15    1.24    0.38
  -1   0 -15    1.51    0.43
  -1   0 -15    1.52    0.44
  -1   0 -15    3.45    1.23
  -1   0 -15    1.29    0.29
   1   0  15    1.08    1.65
   1   0  15    1.06    0.31
   1   0  15    0.45    2.19
   1   0  15    1.10    0.20
   1   0  15    2.32    1.45
   2   0  15    0.01    0.88
  -3   0 -15    3.05    0.18
  -3   0 -15    3.56    0.83
  -3   0 -15    3.25    0.45
   3   0  15    3.06    0.50
   3   0  15    2.61    0.37
   3   0  15   -0.14    1.97
  -4   0 -15    0.26    0.15
  -4   0 -15    0.19    0.04
   4   0  15    0.02    0.20
   4   0  15    0.18    1.07
   4   0  15    0.12    0.09
   4  -1 -15    1.12    0.28
  -4   1  15    0.09    0.22
  -4   1  15    0.33    0.22
  -4   1  15    0.50    0.12
   3  -1 -15    0.28    0.18
  -3   1  15    3.54    1.55
   2  -1 -15    2.15    0.35
   2  -1 -15    2.19    0.39
   2  -1 -15    1.91    0.44
  -2   1  15    2.88    0.61
  -2   1  15    2.18    0.26
  -2   1  15    2.18    0.52
  -2   1  15    2.27    0.35
   1  -1 -15    0.33    0.14
   1  -1 -15    0.26    0.18
   1  -1 -15    0.38    0.15
  -1   1  15    0.18    0.12
  -1   1  15    0.57    0.28
  -1   1  15    0.37    0.13
  -1   1  15    1.15    0.86
   0  -1 -15   -0.05    0.06
   0  -1 -15    0.36    0.23
   0  -1 -15   -1.03    1.55
   0   1  15    0.03    0.05
   0   1  15    0.26    1.79
   0   1  15   -0.10    0.13
   0   1  15   -0.12    2.13
  -1  -1 -15    1.19    0.38
  -1  -1 -15    1.87    1.30
  -1  -1 -15    1.32    0.36
  -1  -1 -15    0.86    0.34
  -1  -1 -15    1.36    0.22
   1   1  15    0.26    0.57
   1   1  15    0.66    0.20
   1   1  15    0.60    1.46
   1   1  15    0.90    0.39
  -2  -1 -15    4.60    0.56
  -2  -1 -15    4.62    0.73
   2   1  15    4.41    0.46
   2   1  15   10.51    3.85
   2   1  15    5.11    0.63
   2   1  15    5.46    0.79
   2   1  15    0.78    3.97
   2   1  15    1.23    2.51
  -3  -1 -15    0.67    0.07
  -3  -1 -15    0.42    0.29
  -3  -1 -15    0.61    0.24
   3   1  15    0.30    1.77
   3   1  15    1.27    0.32
   3   1  15    0.41    0.16
  -4  -1 -15    1.35    0.22
  -4  -1 -15    0.77    0.23
   4   1  15    0.94    0.17
   4   1  15   -0.11    0.88
   4  -2 -15    3.00    0.35
   4  -2 -15    2.89    0.42
  -4   2  15    1.90    0.27
  -4   2  15    2.02    0.37
  -4   2  15    2.63    0.25
   3  -2 -15    0.33    0.22
  -3   2  15    0.40    0.13
  -3   2  15    2.94    2.01
  -3   2  15    0.79    0.27
  -3   2  15    0.44    0.18
   2  -2 -15    2.03    1.99
  -2   2  15    0.93    1.29
   1  -2 -15    0.95    0.26
   1  -2 -15    0.65    0.23
  -1   2  15    2.19    0.92
  -1   2  15    0.55    0.19
  -1   2  15    0.58    0.13
  -1   2  15   -0.44    2.09
  -1   2  15    1.18    0.36
   0  -2 -15    0.53    0.21
   0  -2 -15    0.32    0.19
   0   2  15   -0.46    1.22
   0   2  15   -1.01    1.24
   0   2  15   -1.09    2.84
   0   2  15    0.46    0.19
  -1  -2 -15    5.78    0.64
  -1  -2 -15    6.87    0.75
  -1  -2 -15    6.86    0.57
  -1  -2 -15   10.42    2.35
  -1  -2 -15    6.98    0.83
   1   2  15    6.99    0.82
  -2  -2 -15   -0.28    2.03
  -2  -2 -15    1.42    0.28
  -2  -2 -15    1.27    0.33
   2   2  15    0.32    1.55
   2   2  15    1.57    0.24
   2   2  15    2.33    0.66
  -3  -2 -15    1.71    0.31
   3   2  15    1.05    0.32
   3   2  15    0.64    1.37
   3   2  15    1.12    0.19
   3   2  15    0.24    2.21
  -4  -2 -15    0.55    0.15
   4   2  15    0.62    1.26
   4  -3 -15    6.75    0.50
  -4   3  15    8.03    0.47
  -4   3  15    7.63    0.58
  -4   3  15    6.62    0.58
   3  -3 -15    4.75    0.45
   3  -3 -15    4.15    0.52
  -3   3  15    4.45    0.40
  -3   3  15    3.89    0.50
  -3   3  15    4.32    0.60
   2  -3 -15    2.30    0.41
   2  -3 -15    2.31    0.35
  -2   3  15    2.76    0.59
  -2   3  15    2.68    0.30
  -2   3  15    2.27    0.39
  -2   3  15    2.35    0.42
   1  -3 -15    0.19    0.10
   1  -3 -15   -2.39    2.26
   1  -3 -15    0.23    0.10
  -1   3  15    0.48    1.13
  -1   3  15    0.02    0.08
  -1   3  15   -0.02    0.10
  -1   3  15    0.01    0.18
   0  -3 -15    2.02    0.32
   0  -3 -15    2.32    0.44
   0  -3 -15    2.48    0.45
   0   3  15    0.26    1.96
   0   3  15    0.02    1.51
   0   3  15    2.41    0.38
   0   3  15    3.47    0.54
   0   3  15    1.89    1.94
  -1  -3 -15   -1.01    2.32
  -1  -3 -15    2.39    0.40
  -1  -3 -15    2.17    0.41
  -1  -3 -15    1.47    0.48
  -1  -3 -15    1.86    0.29
   1   3  15    1.40    3.80
   1   3  15    2.52    0.75
  -2  -3 -15    1.27    2.51
  -2  -3 -15    0.72    0.24
  -2  -3 -15    0.52    0.29
   2   3  15   -1.11    1.46
   2   3  15    1.23    0.25
   2   3  15    0.04    1.96
   3   3  15    0.62    1.84
   3   3  15   -0.63    2.10
   4  -4 -15    0.51    0.15
  -4   4  15    0.06    0.05
   3  -4 -15    2.23    0.36
   3  -4 -15    2.54    0.34
  -3   4  15    1.99    0.37
  -3   4  15    2.70    0.29
  -3   4  15    2.75    0.42
   2  -4 -15    0.52    0.18
   2  -4 -15    0.68    0.24
  -2   4  15    0.53    0.17
  -2   4  15    0.76    0.30
  -2   4  15    1.13    0.36
   1  -4 -15    0.06    0.12
   1  -4 -15    0.01    0.06
  -1   4  15    0.20    0.18
  -1   4  15   -0.11    0.06
   0  -4 -15    0.04    0.20
   0  -4 -15    0.02    0.04
   0  -4 -15   -0.14    0.12
   0  -4 -15   -0.17    0.24
   0   4  15    0.26    1.79
   0   4  15    1.21    2.84
   0   4  15    0.13    0.14
  -1  -4 -15    1.89    0.42
  -1  -4 -15    0.72    1.60
  -1  -4 -15    2.59    0.42
  -1  -4 -15    2.97    0.44
   1   4  15    2.73    0.53
  -2  -4 -15    1.20    0.24
  -2  -4 -15    1.08    0.40
   2   4  15    0.91    1.61
   2   4  15   -0.15    1.68
  -3  -4 -15    0.01    0.09
   3   4  15   -0.15    1.16
   3  -5 -15   -0.10    0.14
  -3   5  15    0.10    0.08
  -3   5  15    0.05    0.06
   2  -5 -15    3.11    0.46
   2  -5 -15    3.65    0.44
  -2   5  15    3.30    0.45
  -2   5  15    3.63    0.54
  -2   5  15    3.94    0.33
  -2   5  15    2.87    0.44
   1  -5 -15    0.32    0.19
   1  -5 -15    0.30    0.13
  -1   5  15    0.16    0.19
   0  -5 -15    1.08    0.30
   0  -5 -15    0.86    0.29
   0  -5 -15    0.69    0.13
   0  -5 -15    0.52    0.15
   0   5  15    0.84    0.40
   0   5  15    1.14    2.61
  -1  -5 -15    0.55    0.25
  -1  -5 -15    0.50    0.26
   1   5  15   -1.61    1.07
   1   5  15   -0.28    1.29
   1   5  15    0.66    0.43
  -2  -5 -15    1.23    0.22
   2   5  15    0.93    2.05
   3  -6 -15    0.66    0.24
   3  -6 -15    0.12    0.09
  -3   6  15    0.04    0.07
  -3   6  15    0.03    0.06
   2  -6 -15    1.03    0.28
   2  -6 -15    0.98    0.18
  -2   6  15    1.07    0.29
  -2   6  15    1.46    0.16
   1  -6 -15    0.17    0.05
   1  -6 -15   -0.21    0.16
  -1   6  15    0.03    0.08
  -1   6  15    0.19    0.18
   1   6  15    0.59    0.29
   1   6  15    0.42    2.07
   2  -7 -15    0.00    0.08
   2  -7 -15   -0.07    0.09
   1  -7 -15    0.03    0.11
   1  -7 -15   -0.13    0.09
  -1   7  15   -0.01    0.17
   0   7  15   -0.13    0.18
   0   8 -16    0.73    1.70
   0  -8  16    2.80    0.36
  -1   8 -16    0.76    1.96
   1  -8  16    1.18    0.37
   1   7 -16    2.50    3.36
   0   7 -16    1.53    3.18
  -1   7 -16    1.18    0.39
  -1   7 -16    0.38    2.17
  -1   7 -16    0.36    0.12
   1  -7  16    0.64    0.09
   2   6 -16    0.34    1.35
   2   6 -16    0.03    0.12
  -2  -6  16   -0.06    0.12
  -2  -6  16    0.07    0.04
   1   6 -16    0.00    0.33
   1   6 -16    0.07    0.13
   1   6 -16   -0.38    1.12
   0   6 -16    1.42    2.23
   0   6 -16    0.33    0.11
   0   6 -16   -0.39    0.27
   0  -6  16    0.18    0.18
  -1   6 -16   -0.46    2.01
  -1   6 -16    0.31    0.10
   1  -6  16    0.88    0.34
   1  -6  16    0.38    0.08
  -2   6 -16    0.55    0.14
   2  -6  16    0.91    0.33
  -3   6 -16    1.17    0.33
  -3   6 -16    0.89    0.14
   3  -6  16    0.54    0.15
   3   5 -16    0.22    1.52
  -3  -5  16    0.53    0.14
   2   5 -16    0.84    0.16
   2   5 -16    0.76    0.35
  -2  -5  16    0.68    0.18
   1   5 -16    2.74    0.29
   1   5 -16    2.57    0.41
   1   5 -16    2.82    0.63
  -1  -5  16    5.12    2.26
  -1  -5  16    2.89    0.49
   0   5 -16    0.75    0.45
   0   5 -16    0.80    0.18
   0   5 -16    0.99    0.30
   0  -5  16    0.71    0.24
   0  -5  16    1.73    1.10
  -1   5 -16    4.25    0.55
  -1   5 -16    3.28    0.35
   1  -5  16    3.86    0.59
  -2   5 -16    0.01    0.12
  -2   5 -16    0.07    0.04
  -2   5 -16    0.08    0.11
   2  -5  16    0.62    0.32
   2  -5  16    0.35    0.12
   2  -5  16    0.06    0.43
   2  -5  16   -0.21    0.45
  -3   5 -16   -0.02    0.10
  -3   5 -16   -0.01    0.11
   3  -5  16    0.05    0.26
   3  -5  16    0.12    0.08
   3   4 -16   -0.07    0.13
   3   4 -16    0.38    0.15
  -3  -4  16    0.14    0.06
   2   4 -16    0.52    0.24
  -2  -4  16    0.25    0.15
  -2  -4  16    3.45    2.05
   1   4 -16    3.28    0.31
   1   4 -16    3.28    0.65
   1   4 -16    2.51    0.40
  -1  -4  16    7.01    2.24
  -1  -4  16    2.91    0.28
  -1  -4  16    3.93    0.45
  -1  -4  16    3.25    0.50
   0   4 -16    0.43    0.24
   0   4 -16    0.35    0.17
   0   4 -16    0.23    0.09
   0   4 -16    0.10    0.31
   0  -4  16    1.15    1.07
   0  -4  16   -0.47    0.73
   0  -4  16    0.03    0.14
  -1   4 -16    9.83    0.88
  -1   4 -16   10.04    1.15
  -1   4 -16   10.47    0.66
   1  -4  16   10.88    1.05
   1  -4  16   10.92    2.21
  -2   4 -16    4.32    0.38
  -2   4 -16    3.90    0.51
   2  -4  16    4.46    0.69
   2  -4  16    3.18    0.35
   2  -4  16    5.52    2.25
   2  -4  16    3.35    0.48
  -3   4 -16    1.20    0.38
  -3   4 -16    0.77    0.29
   3  -4  16    1.16    0.31
   3  -4  16    0.53    0.15
  -4   4 -16    0.56    0.16
   4  -4  16    0.46    0.11
   4  -4  16    0.46    1.08
   4   3 -16    0.50    0.14
   3   3 -16   -0.10    0.09
  -3  -3  16   -0.09    0.05
  -3  -3  16    0.03    0.05
   2   3 -16    0.69    0.22
  -2  -3  16    1.02    1.79
   1   3 -16    0.17    0.12
  -1  -3  16    0.22    0.19
  -1  -3  16    0.52    0.19
   0   3 -16    0.40    0.23
   0   3 -16    0.08    0.31
   0   3 -16    0.35    0.21
   0  -3  16    0.00    0.21
   0  -3  16    0.22    1.27
   0  -3  16    0.20    0.99
   0  -3  16    0.22    0.08
   0  -3  16    0.17    0.27
  -1   3 -16    0.27    0.09
  -1   3 -16    0.07    0.18
  -1   3 -16    1.02    0.47
  -1   3 -16    0.46    0.26
  -1   3 -16   -0.31    0.48
   1  -3  16    0.59    0.17
   1  -3  16    0.25    1.26
   1  -3  16    1.05    0.35
   1  -3  16   -0.61    0.75
  -2   3 -16    1.38    0.21
  -2   3 -16    1.69    0.32
  -2   3 -16    2.46    0.85
   2  -3  16    1.15    0.21
   2  -3  16    3.51    1.58
   2  -3  16    0.05    2.88
  -3   3 -16    0.17    0.14
   3  -3  16    0.02    0.20
   3  -3  16    0.28    0.10
   3  -3  16    0.04    0.61
  -4   3 -16    0.30    0.11
  -4   3 -16    0.80    0.22
   4  -3  16    0.52    0.24
   4  -3  16    0.41    0.12
   4  -3  16   -0.21    0.78
   4   2 -16    1.19    0.50
   4   2 -16    0.70    0.20
  -4  -2  16    0.21    0.07
  -4  -2  16    0.34    0.08
  -4  -2  16    0.34    0.14
   3   2 -16    2.50    0.42
   3   2 -16    1.64    0.28
  -3  -2  16    1.99    0.48
  -3  -2  16    1.88    0.20
  -3  -2  16    2.06    0.22
   2   2 -16    0.29    0.15
   2   2 -16    0.21    0.17
  -2  -2  16    0.43    0.25
  -2  -2  16    0.16    0.07
  -2  -2  16    0.31    0.12
  -2  -2  16   -1.05    1.13
   1   2 -16    0.05    0.13
   1   2 -16    0.03    0.07
   1   2 -16    0.34    0.20
  -1  -2  16    0.12    0.07
  -1  -2  16    0.19    0.22
  -1  -2  16    0.04    0.16
   0   2 -16    0.76    0.22
   0   2 -16    0.82    0.29
   0   2 -16    1.13    0.40
   0   2 -16    1.02    0.37
   0  -2  16    0.31    1.87
   0  -2  16    0.90    1.08
   0  -2  16    0.77    0.12
   0  -2  16    1.67    0.52
  -1   2 -16    8.21    4.27
  -1   2 -16    5.53    0.71
  -1   2 -16    5.58    0.52
  -1   2 -16    4.96    0.57
  -1   2 -16    4.37    1.06
   1  -2  16    5.92    0.68
   1  -2  16    4.82    1.62
   1  -2  16    0.09    2.40
  -2   2 -16    2.69    0.77
  -2   2 -16    2.32    0.38
  -2   2 -16    1.98    0.24
   2  -2  16    2.45    1.77
   2  -2  16    1.93    0.36
   2  -2  16    1.48    1.23
   2  -2  16    1.72    0.25
   2  -2  16    0.05    1.32
   2  -2  16    2.76    0.57
   2  -2  16    4.44    4.45
  -3   2 -16    0.15    0.15
  -3   2 -16    0.14    0.05
   3  -2  16    0.19    0.19
   3  -2  16   -0.66    1.19
   3  -2  16    0.07    2.51
   3  -2  16    0.00    0.07
  -4   2 -16    0.64    0.19
  -4   2 -16    0.55    0.24
   4  -2  16    0.63    0.22
   4  -2  16    0.33    0.92
   4   1 -16    0.49    0.29
   4   1 -16    0.13    0.17
  -4  -1  16   -0.01    0.09
  -4  -1  16    0.06    0.05
   3   1 -16    1.37    0.37
   3   1 -16    1.88    0.28
  -3  -1  16    2.17    2.04
  -3  -1  16    2.13    0.59
  -3  -1  16    1.25    0.19
  -3  -1  16    1.88    0.22
   2   1 -16    2.78    0.37
   2   1 -16    2.95    0.46
   2   1 -16    2.51    0.48
  -2  -1  16    3.17    0.28
  -2  -1  16    2.46    0.60
  -2  -1  16    2.83    0.27
  -2  -1  16    2.82    0.46
  -2  -1  16    2.62    1.57
   1   1 -16    2.07    0.50
   1   1 -16    2.44    0.35
   1   1 -16    2.73    0.47
  -1  -1  16    0.59    0.98
  -1  -1  16    2.64    0.41
  -1  -1  16    2.34    0.23
  -1  -1  16    2.31    0.42
   0   1 -16   15.74    1.30
   0   1 -16   15.37    1.02
   0   1 -16   14.48    1.04
   0   1 -16   14.97    1.20
   0   1 -16   22.77    3.59
   0  -1  16   14.23    1.19
   0  -1  16   11.19    2.33
   0  -1  16   16.96    0.90
  -1   1 -16    3.52    0.57
  -1   1 -16    3.64    0.48
  -1   1 -16    3.73    0.42
  -1   1 -16    1.54    2.06
  -1   1 -16    4.49    0.73
   1  -1  16    4.49    1.83
   1  -1  16    1.70    2.31
   1  -1  16    3.61    0.32
   1  -1  16    3.08    0.56
  -2   1 -16    0.65    0.15
  -2   1 -16    1.04    0.38
  -2   1 -16    0.86    0.43
   2  -1  16    7.86    5.39
   2  -1  16    0.97    0.24
   2  -1  16    1.59    0.56
   2  -1  16   -0.44    1.16
   2  -1  16   -0.12    0.93
   2  -1  16    0.65    0.18
  -3   1 -16    0.09    0.04
  -3   1 -16    0.19    0.14
  -3   1 -16   -0.10    0.16
   3  -1  16   -0.25    0.16
   3  -1  16   -1.23    0.79
  -4   1 -16    1.07    0.31
  -4   1 -16    1.87    0.25
   4  -1  16    1.40    0.34
   4  -1  16   -0.10    0.92
   4  -1  16   -0.14    1.10
   4  -1  16    1.37    0.19
   4   0 -16    0.44    0.19
  -4   0  16    0.18    0.17
   3   0 -16    0.35    0.22
   3   0 -16   -0.15    0.12
  -3   0  16   -0.08    0.20
  -3   0  16    0.07    0.15
  -3   0  16   -0.03    0.05
   2   0 -16    0.34    0.17
   2   0 -16   -2.02    1.73
   2   0 -16   -3.06    1.84
   2   0 -16    0.25    0.14
   2   0 -16    0.00    0.10
  -2   0  16    0.68    0.31
  -2   0  16    1.31    1.00
  -2   0  16   -0.01    0.12
  -2   0  16    0.19    0.20
   1   0 -16    2.43    0.33
   1   0 -16    2.49    0.40
   1   0 -16    3.18    0.46
   1   0 -16    4.04    2.29
  -1   0  16    2.76    0.25
  -1   0  16    2.26    0.42
  -1   0  16    2.37    0.36
  -1   0  16   -0.38    2.23
  -1   0  16    1.43    1.09
   0   0 -16    0.57    0.18
   0   0 -16    0.76    0.29
   0   0 -16    2.30    1.77
   0   0 -16    0.85    0.31
   0   0  16    0.30    1.92
   0   0  16    0.87    0.16
   0   0  16    1.29    0.81
   0   0  16   -0.72    1.57
   0   0  16    1.09    0.41
  -1   0 -16    8.49    0.67
  -1   0 -16    8.87    0.81
  -1   0 -16    8.82    0.87
  -1   0 -16   10.16    1.21
  -1   0 -16    6.39    4.08
   1   0  16    8.04    0.93
   1   0  16    7.69    0.53
   1   0  16    8.22    2.16
  -2   0 -16   -0.15    0.17
  -2   0 -16    0.04    0.18
  -2   0 -16    0.17    0.14
   2   0  16   -0.06    0.09
   2   0  16   -1.85    2.05
   2   0  16    0.55    0.26
   2   0  16    0.54    0.34
   3   0  16    0.48    0.25
   3   0  16    1.04    1.11
  -4   0 -16    0.23    0.10
  -4   0 -16    0.30    0.17
   4   0  16    0.64    1.30
   4   0  16    0.05    0.08
   4   0  16    0.85    0.27
   4  -1 -16    0.49    0.22
  -4   1  16    0.32    0.08
  -4   1  16    0.17    0.14
   3  -1 -16    0.30    0.18
   3  -1 -16    0.27    0.13
   3  -1 -16    0.45    0.18
  -3   1  16    0.10    0.07
  -3   1  16    0.02    0.20
  -3   1  16    0.81    1.38
   2  -1 -16    5.49    2.41
   2  -1 -16    2.46    0.43
   2  -1 -16    2.19    0.33
   2  -1 -16    2.46    0.37
  -2   1  16    3.30    0.75
  -2   1  16    3.18    0.44
  -2   1  16    1.96    0.35
  -2   1  16    2.82    0.30
  -2   1  16    2.09    1.53
   1  -1 -16   -1.83    1.30
   1  -1 -16    0.28    0.12
   1  -1 -16   -0.06    0.12
   1  -1 -16    0.08    0.12
  -1   1  16    0.13    0.08
  -1   1  16    0.40    0.27
  -1   1  16    0.47    0.17
  -1   1  16    1.78    1.08
   0  -1 -16    2.22    0.43
   0  -1 -16    2.33    0.34
   0  -1 -16    2.53    0.59
   0  -1 -16    4.29    1.68
   0   1  16    2.70    0.52
   0   1  16    2.43    0.22
   0   1  16    3.57    1.42
  -1  -1 -16   16.23    1.15
  -1  -1 -16   12.09    3.15
  -1  -1 -16   16.84    1.42
  -1  -1 -16   17.20    1.25
  -1  -1 -16   14.83    0.96
   1   1  16   17.29    1.32
  -2  -1 -16   10.99    0.92
  -2  -1 -16   10.35    1.11
   2   1  16   10.05    0.92
   2   1  16   10.10    0.71
   2   1  16   11.05    1.09
  -3  -1 -16    2.19    0.53
  -3  -1 -16    2.47    0.37
   3   1  16    1.94    0.38
   3   1  16    0.17    1.68
   3   1  16    2.26    0.29
  -4  -1 -16    0.22    0.10
   4   1  16   -0.01    0.44
   4   1  16    0.36    0.12
   4   1  16    0.29    0.84
   4  -2 -16    0.62    0.25
   4  -2 -16    0.40    0.21
  -4   2  16    0.43    0.10
  -4   2  16    0.57    0.15
  -4   2  16    0.31    0.16
   3  -2 -16    0.03    0.18
   3  -2 -16    0.11    0.09
   3  -2 -16    0.06    0.13
  -3   2  16    0.08    0.15
  -3   2  16   -0.01    1.90
  -3   2  16    0.14    0.11
  -3   2  16    0.06    0.07
  -2   2  16    2.17    1.28
  -2   2  16    0.14    0.16
  -2   2  16    0.02    0.23
  -2   2  16    0.16    0.12
   1  -2 -16    5.32    1.89
   1  -2 -16    3.76    0.56
   1  -2 -16    4.21    0.46
   1  -2 -16    3.21    0.52
  -1   2  16    4.00    0.34
  -1   2  16    3.65    0.51
  -1   2  16    4.90    1.86
  -1   2  16    3.79    0.53
   0  -2 -16    0.03    1.43
   0  -2 -16    0.79    0.37
   0  -2 -16    0.51    0.30
   0  -2 -16    0.22    0.16
   0  -2 -16    0.14    0.11
   0   2  16   -0.20    1.27
   0   2  16    0.67    0.32
   0   2  16    0.28    1.50
  -1  -2 -16    1.69    0.27
  -1  -2 -16    2.35    0.61
  -1  -2 -16    1.56    0.49
  -1  -2 -16    2.33    0.61
   1   2  16   -0.69    1.39
   1   2  16    2.02    0.56
   1   2  16    0.72    3.12
   1   2  16    0.12    3.05
  -2  -2 -16    2.97    0.49
  -2  -2 -16    2.23    0.38
   2   2  16    1.69    0.27
   2   2  16    0.22    1.86
  -3  -2 -16    0.43    0.71
  -3  -2 -16    1.18    0.35
   3   2  16    0.99    0.17
   3   2  16    0.26    0.51
   4  -3 -16    4.07    0.36
  -4   3  16    4.20    0.30
  -4   3  16    3.19    0.34
   3  -3 -16    0.13    0.16
  -3   3  16    0.22    0.11
  -3   3  16    0.42    0.14
  -3   3  16    0.31    0.20
   2  -3 -16    0.38    0.15
   2  -3 -16    0.54    0.20
  -2   3  16    1.68    1.58
  -2   3  16    0.33    0.17
  -2   3  16    0.37    0.12
  -2   3  16    1.04    0.37
   1  -3 -16    0.09    0.14
   1  -3 -16    0.12    0.09
  -1   3  16    0.32    0.15
  -1   3  16   -1.51    1.55
  -1   3  16    0.04    0.09
  -1   3  16    0.54    0.25
   0  -3 -16    3.47    0.82
   0  -3 -16    1.83    0.48
   0  -3 -16    2.02    0.48
   0  -3 -16    1.76    0.30
   0   3  16    2.97    0.50
   0   3  16    0.73    2.99
  -1  -3 -16    9.98    1.08
  -1  -3 -16   10.76    1.04
  -1  -3 -16   10.20    0.70
   1   3  16   10.90    1.17
  -2  -3 -16    2.36    0.39
  -2  -3 -16    1.67    0.45
   2   3  16    0.10    1.33
   2   3  16    3.40    0.61
  -4   4  16    0.92    0.11
  -4   4  16    0.55    0.15
   3  -4 -16    0.17    0.18
   3  -4 -16    0.64    0.17
  -3   4  16    0.44    0.11
  -3   4  16    0.26    0.12
  -3   4  16    0.42    0.19
   2  -4 -16    0.26    0.12
   2  -4 -16   -0.06    0.14
  -2   4  16    0.05    0.07
  -2   4  16    0.21    0.23
  -2   4  16    0.06    0.11
  -2   4  16   -0.05    0.11
   1  -4 -16    2.29    0.41
   1  -4 -16    2.40    0.36
  -1   4  16    2.26    0.23
  -1   4  16    2.26    0.41
   0  -4 -16    6.73    0.82
   0  -4 -16    5.40    0.65
   0  -4 -16    6.85    0.77
   0  -4 -16    5.04    0.52
   0   4  16    5.45    0.77
  -1  -4 -16    0.19    0.16
  -1  -4 -16   -0.06    0.11
   1   4  16    0.59    2.70
   1   4  16    0.58    1.55
   1   4  16    0.09    0.26
  -2  -4 -16    0.44    0.42
  -2  -4 -16    0.15    0.18
   2   4  16   -0.23    2.12
   2   4  16    0.52    0.82
   2   4  16    0.56    1.23
  -3  -4 -16    0.21    0.15
   3   4  16    0.31    1.46
   3  -5 -16    0.43    0.20
  -3   5  16    0.17    0.07
  -3   5  16    0.05    0.07
   2  -5 -16    0.22    0.11
   2  -5 -16    0.58    0.20
  -2   5  16    0.44    0.11
  -2   5  16    0.44    0.21
  -2   5  16    1.32    0.40
   1  -5 -16    0.38    0.17
  -1   5  16   -0.10    0.16
  -1   5  16    0.00    0.09
   0  -5 -16    0.27    0.12
   0  -5 -16    0.08    0.11
   0   5  16    0.30    0.26
   0   5  16   -1.58    2.59
  -1  -5 -16    2.48    0.48
   1   5  16   -0.41    1.36
   1   5  16    2.67    0.69
   1   5  16   -0.53    2.33
  -2  -5 -16    1.13    0.31
   2   5  16   -0.05    1.10
   2   5  16    0.58    0.85
   2  -6 -16   -0.05    0.16
  -2   6  16    0.01    0.09
  -2   6  16   -0.02    0.06
   1  -6 -16    0.45    0.14
   1  -6 -16    0.93    0.27
  -1   6  16    0.64    0.33
  -1   6  16    0.49    0.23
   0  -6 -16    1.62    0.31
   0   6  16    1.90    0.66
  -1  -6 -16    1.57    0.30
   1   6  16    1.02    0.35
   1   7 -17    1.33    2.59
   0   7 -17   -0.25    1.78
   0   7 -17    1.61    0.20
   0  -7  17    1.58    0.33
  -1   7 -17   -0.39    2.23
   2  -7  17    1.96    0.13
   2   6 -17   -0.65    0.61
  -2  -6  17    0.32    0.09
  -2  -6  17    0.41    0.15
   1   6 -17    1.99    0.25
   1   6 -17    1.70    0.27
   1   6 -17    0.90    2.49
   0   6 -17   -0.86    2.16
  -1   6 -17    0.38    2.11
  -1   6 -17    0.38    0.32
  -1   6 -17    0.36    0.14
   1  -6  17    0.21    0.08
   1  -6  17    0.17    0.19
  -2   6 -17    0.33    0.11
   2  -6  17    0.40    0.20
   2  -6  17    0.20    0.05
  -3   6 -17   -0.19    0.13
   3   5 -17    0.60    1.35
  -3  -5  17    0.29    0.12
   2   5 -17    0.16    0.22
  -2  -5  17    0.17    0.14
  -2  -5  17    0.06    0.18
   1   5 -17    1.03    0.37
   1   5 -17    0.42    0.18
   1   5 -17    0.32    0.12
  -1  -5  17    0.32    0.21
   0   5 -17    3.64    0.67
   0   5 -17    4.94    0.53
   0   5 -17    6.28    0.73
   0   5 -17    5.43    0.44
   0  -5  17    3.77    2.04
   0  -5  17    5.62    0.70
  -1   5 -17    0.76    0.20
  -1   5 -17    1.66    0.48
  -1   5 -17    0.93    2.34
   1  -5  17   -0.67    1.33
   1  -5  17    0.50    0.34
   1  -5  17    0.41    2.54
   1  -5  17    0.62    0.11
  -2   5 -17    0.35    0.19
  -2   5 -17    0.35    0.13
  -2   5 -17    0.13    0.07
   2  -5  17    0.28    0.19
   2  -5  17   -0.34    0.94
  -3   5 -17    0.89    0.33
  -3   5 -17    0.71    0.17
   3  -5  17    0.33    0.85
   3  -5  17    0.38    0.12
   3   4 -17    0.00    0.22
   3   4 -17    0.04    0.11
  -3  -4  17    0.20    0.10
  -3  -4  17    0.04    0.06
   2   4 -17    1.81    0.41
   2   4 -17    2.27    0.23
   2   4 -17    1.09    0.37
  -2  -4  17    1.66    0.20
  -2  -4  17    1.78    0.36
  -2  -4  17    2.19    0.34
   1   4 -17    2.00    0.57
   1   4 -17    2.70    0.29
   1   4 -17    2.85    0.41
  -1  -4  17    5.14    1.94
  -1  -4  17    2.43    0.25
  -1  -4  17    2.49    0.42
  -1  -4  17    3.36    0.41
   0   4 -17    0.89    0.35
   0   4 -17    0.34    0.13
   0  -4  17    0.15    1.05
  -1   4 -17    0.48    0.19
  -2   4 -17    4.53    0.56
  -2   4 -17    4.29    0.38
   2  -4  17    5.33    0.67
   2  -4  17    3.50    0.33
   2  -4  17    3.99    0.76
  -3   4 -17    0.31    0.15
   3  -4  17    0.19    0.25
   3  -4  17    0.82    1.10
  -4   4 -17    1.44    0.24
   4  -4  17    1.43    0.17
   4  -4  17    0.49    0.93
   4   3 -17   -0.19    0.15
   2   3 -17    0.29    0.17
   2   3 -17    0.43    0.10
   2   3 -17    0.33    0.15
  -2  -3  17    0.46    0.30
  -2  -3  17    0.17    0.08
  -2  -3  17    0.34    0.26
  -2  -3  17    3.90    1.99
   1   3 -17    1.48    0.48
   1   3 -17    1.60    0.38
   1   3 -17    1.63    0.47
  -1  -3  17    1.85    0.35
  -1  -3  17    0.16    1.33
  -1  -3  17    2.31    0.49
  -1  -3  17    1.44    0.19
   0   3 -17   11.03    1.06
   0   3 -17   10.01    1.05
   0   3 -17    9.30    0.80
   0   3 -17    9.74    0.86
   0  -3  17    7.71    2.40
   0  -3  17    9.99    1.01
   0  -3  17    9.44    0.55
   0  -3  17    9.88    0.85
  -1   3 -17    7.49    0.53
  -1   3 -17    7.33    0.61
  -1   3 -17    7.13    0.94
  -1   3 -17    7.92    0.74
   1  -3  17    7.54    2.41
   1  -3  17    8.85    0.94
  -2   3 -17    4.46    1.06
  -2   3 -17    4.00    0.35
  -2   3 -17    3.82    0.47
   2  -3  17    3.05    0.33
   2  -3  17    4.38    4.01
   2  -3  17    3.03    0.45
   2  -3  17    0.21    2.04
   2  -3  17    4.65    0.67
  -3   3 -17    1.60    0.32
   3  -3  17    1.09    0.19
   3  -3  17    1.51    0.37
   3  -3  17   -0.06    1.27
  -4   3 -17    1.20    0.27
   4  -3  17    0.30    0.62
   4  -3  17    0.79    0.15
   3   2 -17    1.09    0.27
   3   2 -17    1.24    0.19
   3   2 -17    1.25    0.36
  -3  -2  17    1.05    0.16
  -3  -2  17    0.87    0.26
  -3  -2  17    1.06    0.16
   2   2 -17    0.90    0.24
   2   2 -17    0.54    0.29
  -2  -2  17    0.78    0.21
  -2  -2  17    0.92    0.36
  -2  -2  17    1.84    1.35
   1   2 -17    0.33    0.11
   1   2 -17    0.19    0.20
   1   2 -17    0.18    0.16
  -1  -2  17    0.13    0.08
  -1  -2  17    0.06    0.14
  -1  -2  17    0.99    0.91
  -1  -2  17    0.17    0.19
   0   2 -17   -0.06    0.20
   0   2 -17    0.29    0.20
   0  -2  17    0.61    1.06
   0  -2  17    0.64    0.20
   0  -2  17    0.32    0.21
   0  -2  17   -0.42    1.00
  -1   2 -17    2.81    0.61
  -1   2 -17    2.05    0.35
  -1   2 -17    2.21    0.70
  -1   2 -17    2.07    0.34
   1  -2  17    2.37    0.45
   1  -2  17    4.03    2.21
   1  -2  17    0.80    1.37
  -2   2 -17    3.10    0.87
  -2   2 -17    3.23    0.44
  -2   2 -17    3.12    0.31
   2  -2  17    0.56    1.79
   2  -2  17    2.73    0.33
   2  -2  17    2.25    0.40
   2  -2  17    3.53    0.68
  -3   2 -17    0.38    0.18
   3  -2  17    0.30    0.12
   3  -2  17   -0.66    1.01
   3  -2  17    0.37    0.20
   3  -2  17    0.61    0.71
  -4   2 -17    0.14    0.08
  -4   2 -17   -0.03    0.06
   4  -2  17    0.11    0.09
   4  -2  17   -0.03    0.33
   4   1 -17    0.36    0.29
   4   1 -17    0.09    0.17
  -4  -1  17    0.10    0.09
   3   1 -17    2.38    0.52
   3   1 -17    2.29    0.51
  -3  -1  17    1.72    0.25
  -3  -1  17    2.69    0.25
  -3  -1  17    2.64    0.66
   2   1 -17    0.17    0.14
   2   1 -17    0.78    0.25
   2   1 -17    0.03    0.14
  -2  -1  17    0.09    1.06
  -2  -1  17    0.17    0.08
  -2  -1  17    0.03    0.18
  -2  -1  17    0.41    0.21
  -2  -1  17   -0.14    0.11
   1   1 -17    2.47    0.38
   1   1 -17    2.02    0.52
   1   1 -17    2.82    0.43
  -1  -1  17    2.88    0.43
  -1  -1  17    2.54    0.24
  -1  -1  17    2.97    0.47
  -1  -1  17    1.21    1.05
   0   1 -17   10.22    0.95
   0   1 -17    8.96    0.77
   0   1 -17    8.43    0.77
   0   1 -17    7.03    1.09
   0   1 -17   13.36    3.30
   0  -1  17    9.06    0.93
   0  -1  17    9.13    0.50
   0  -1  17    7.85    1.94
  -1   1 -17    1.52    0.30
  -1   1 -17    1.22    0.29
  -1   1 -17    1.39    0.43
  -1   1 -17    1.09    0.41
   1  -1  17    1.57    0.50
   1  -1  17    0.15    0.85
   1  -1  17    0.71    1.89
   1  -1  17   -0.29    1.01
  -2   1 -17    0.08    0.10
  -2   1 -17    0.76    0.30
   2  -1  17    0.32    0.28
   2  -1  17    0.19    1.38
   2  -1  17    0.55    2.15
   2  -1  17    0.09    0.11
  -3   1 -17    1.26    0.43
  -3   1 -17    1.13    0.24
   3  -1  17    1.29    1.66
   3  -1  17    1.05    0.28
   3  -1  17    0.93    0.22
  -4   1 -17    1.73    0.24
  -4   1 -17    1.73    0.28
   4  -1  17   -0.06    1.17
   4  -1  17    1.52    0.18
   4  -1  17    0.29    1.14
   4   0 -17    0.94    0.32
   4   0 -17    0.77    0.20
   3   0 -17   -0.07    0.12
   3   0 -17   -0.07    0.12
  -3   0  17    0.10    0.25
  -3   0  17    0.02    0.04
   2   0 -17    0.03    0.11
   2   0 -17    0.53    0.21
   2   0 -17    0.07    0.11
  -2   0  17    0.16    0.11
  -2   0  17    0.79    1.58
  -2   0  17    0.16    0.19
  -2   0  17    0.12    0.07
  -2   0  17    0.16    0.27
   1   0 -17    0.59    0.19
   1   0 -17    2.42    2.12
   1   0 -17    0.87    0.30
   1   0 -17    0.75    0.29
  -1   0  17    1.67    1.32
  -1   0  17    0.77    0.12
  -1   0  17   -0.69    1.98
  -1   0  17    1.26    0.40
  -1   0  17    1.66    1.32
   0   0 -17    3.36    0.50
   0   0 -17    3.55    0.44
   0   0 -17    3.35    0.57
   0   0 -17    3.32    0.54
   0   0  17    0.15    1.93
   0   0  17    3.09    0.55
   0   0  17    0.75    1.80
   0   0  17    3.24    0.26
  -1   0 -17    6.98    0.60
  -1   0 -17    7.76    0.85
  -1   0 -17    7.61    0.72
   1   0  17    9.04    2.64
   1   0  17    7.78    0.86
  -2   0 -17    7.32    0.76
   2   0  17    5.80    0.47
   2   0  17    5.19    1.03
   2   0  17    7.12    0.68
  -3   0 -17    0.53    0.20
  -3   0 -17    0.61    0.32
   3   0  17   -0.20    0.63
   3   0  17    0.47    0.14
   3   0  17    0.96    1.87
   3   0  17    0.48    0.35
   3   0  17    0.57    0.61
  -4   0 -17    0.03    0.09
  -4   0 -17    0.09    0.09
   4   0  17   -0.18    0.56
   4   0  17   -0.03    0.63
   4   0  17    0.00    0.08
   4  -1 -17   -0.30    0.42
  -4   1  17    0.22    0.07
  -4   1  17    0.28    0.15
   3  -1 -17    0.32    0.23
   3  -1 -17    0.21    0.17
   3  -1 -17    0.72    0.22
  -3   1  17    0.35    0.20
  -3   1  17    0.19    0.13
  -3   1  17    0.24    0.08
   2  -1 -17    0.05    0.12
   2  -1 -17    0.07    0.12
   2  -1 -17    0.07    0.08
  -2   1  17   -0.07    0.24
  -2   1  17   -0.51    0.85
  -2   1  17    0.12    0.07
  -2   1  17    0.29    0.24
  -2   1  17    0.15    0.13
   1  -1 -17    5.44    0.55
   1  -1 -17   10.28    3.08
   1  -1 -17    4.86    0.62
   1  -1 -17    5.11    0.64
  -1   1  17    5.10    0.59
  -1   1  17    5.93    0.39
  -1   1  17    5.58    0.66
   0  -1 -17   -0.05    0.17
   0  -1 -17    2.56    1.53
   0  -1 -17    0.04    0.08
   0   1  17    0.11    0.07
   0   1  17    0.18    1.25
   0   1  17    0.22    0.17
   0   1  17    0.75    2.31
   0   1  17    0.13    0.94
  -1  -1 -17    0.97    0.40
  -1  -1 -17    0.72    0.39
  -1  -1 -17    0.62    0.30
   1   1  17   -1.64    1.23
   1   1  17   -0.22    1.49
  -3  -1 -17    0.58    0.31
  -3  -1 -17    0.45    0.21
   3   1  17    0.56    0.15
   3   1  17    0.15    0.68
   3   1  17   -0.27    0.41
   3   1  17    0.90    0.95
  -4  -1 -17    6.51    0.54
   4  -2 -17    0.46    0.33
  -4   2  17   -0.03    0.09
  -4   2  17    0.04    0.05
   3  -2 -17    0.40    0.14
   3  -2 -17    0.04    0.16
   3  -2 -17    0.27    0.15
  -3   2  17    0.28    0.10
  -3   2  17    0.23    0.23
  -3   2  17    0.43    0.18
   2  -2 -17    0.29    0.12
   2  -2 -17    0.59    0.23
   2  -2 -17    0.42    0.18
  -2   2  17    0.55    0.21
  -2   2  17    0.31    0.10
  -2   2  17    0.62    0.31
  -2   2  17    2.45    1.73
  -2   2  17    0.77    0.25
   1  -2 -17    5.66    0.57
   1  -2 -17    6.11    0.71
   1  -2 -17    5.70    0.74
   1  -2 -17    7.69    3.87
  -1   2  17    3.42    1.87
  -1   2  17    6.19    0.70
  -1   2  17    6.48    0.41
  -1   2  17    6.25    0.69
   0  -2 -17    3.24    1.96
   0  -2 -17    2.16    0.67
   0  -2 -17    0.78    0.26
   0  -2 -17    1.18    0.35
   0  -2 -17    1.02    0.38
   0   2  17    3.88    1.87
   0   2  17   -0.37    0.77
   0   2  17    1.04    0.38
  -1  -2 -17   12.46    0.82
  -1  -2 -17   15.52    1.07
  -1  -2 -17   10.55    1.53
   1   2  17   13.77    1.20
  -2  -2 -17    2.44    0.58
  -2  -2 -17    1.89    0.34
   2   2  17   -0.35    2.25
  -4   3  17    0.24    0.13
  -4   3  17    0.10    0.10
  -4   3  17    0.13    0.05
   3  -3 -17    1.03    0.25
   3  -3 -17    0.93    0.29
   3  -3 -17    0.71    0.22
  -3   3  17    0.57    0.13
  -3   3  17    0.70    0.22
  -3   3  17    0.66    0.27
  -2   3  17    4.55    2.20
  -1   3  17    3.26    2.27
   0  -3 -17    1.78    0.33
   0  -3 -17    1.07    0.26
   0  -3 -17    0.88    0.35
   0   3  17    0.90    0.41
  -1  -3 -17    0.34    0.22
  -1  -3 -17   -0.37    0.25
  -1  -3 -17    0.23    0.17
   1   3  17    0.19    0.23
   1   3  17   -1.59    1.03
   1   3  17   -0.88    2.38
  -2  -3 -17    0.95    0.29
  -2  -3 -17    0.84    0.28
   2   3  17    0.04    1.25
   2   3  17   -0.74    0.96
   3  -4 -17   -0.03    0.09
   3  -4 -17    0.15    0.17
   3  -4 -17    0.07    0.09
  -3   4  17    0.13    0.09
  -3   4  17   -0.07    0.15
  -3   4  17    0.07    0.07
   2  -4 -17    0.22    0.15
  -2   4  17    0.22    0.24
  -2   4  17    0.00    0.17
  -2   4  17    0.27    0.16
  -2   4  17    0.11    0.08
   1  -4 -17    1.16    0.37
   1  -4 -17    1.05    0.33
   1  -4 -17    0.87    0.24
  -1   4  17    1.52    0.16
  -1   4  17    1.18    0.40
  -1   4  17    1.00    0.34
  -1  -4 -17    8.89    0.86
  -1  -4 -17   11.95    0.86
   1   4  17   11.08    1.01
  -2  -4 -17    0.27    0.16
   2   4  17   -0.94    1.98
   3  -5 -17    0.24    0.10
   3  -5 -17    0.17    0.20
   3  -5 -17    0.13    0.10
  -3   5  17    0.18    0.05
  -3   5  17    0.04    0.06
   2  -5 -17    0.42    0.20
  -2   5  17    0.79    0.12
  -2   5  17    0.47    0.20
   1  -5 -17    0.33    0.18
   1  -5 -17    0.78    0.19
  -1   5  17    0.94    0.36
   0  -5 -17    0.54    0.19
   0  -5 -17   -0.50    0.45
   0  -5 -17    0.58    0.15
   0   5  17    0.59    0.32
  -1  -5 -17    3.33    0.44
  -1  -5 -17    4.77    0.48
   1   5  17    4.74    0.82
   2   5  17   -0.03    0.71
   2  -6 -17    0.26    0.09
   1  -6 -17    0.06    0.08
   1  -6 -17    0.30    0.09
  -1   6  17   -0.13    0.16
  -1   6  17    0.33    0.24
   0  -6 -17    2.88    0.38
   0   6  17    3.34    0.46
   0   7 -18   -0.21    0.72
   0  -7  18    1.57    0.29
  -1   7 -18   -1.41    1.11
   2   6 -18   -0.89    0.70
  -2  -6  18    0.33    0.07
   1   6 -18    0.08    0.06
   1   6 -18    0.06    0.15
  -1  -6  18    0.01    0.13
  -1   6 -18    0.25    0.10
  -1   6 -18   -1.03    1.14
   1  -6  18    0.75    0.23
  -2   6 -18    0.51    0.20
   2  -6  18    0.40    0.23
   2   5 -18    1.28    0.41
   2   5 -18    1.24    0.29
   2   5 -18    1.65    0.26
  -2  -5  18    1.23    0.22
  -2  -5  18    1.04    0.14
   1   5 -18    1.00    0.16
   1   5 -18    1.06    0.28
   1   5 -18   -0.06    0.47
  -1  -5  18    1.35    0.27
   0   5 -18    0.31    0.12
   0  -5  18    0.61    0.24
  -1   5 -18   -0.72    2.42
  -1   5 -18   -0.05    0.19
  -1   5 -18    0.00    0.05
   1  -5  18    0.41    0.20
   1  -5  18   -0.76    1.19
  -2   5 -18    0.01    0.12
  -2   5 -18    0.12    0.12
  -2   5 -18    0.04    0.05
   2  -5  18    0.21    0.86
  -3   5 -18    0.14    0.08
  -3   5 -18    0.11    0.11
   3  -5  18   -0.17    0.68
   3   4 -18    0.39    0.35
   3   4 -18    0.10    0.09
  -3  -4  18    0.11    0.03
  -3  -4  18    0.01    0.07
   2   4 -18    0.02    0.06
   2   4 -18    0.13    0.09
   2   4 -18    0.23    0.20
  -2  -4  18   -0.03    0.09
   1   4 -18    0.40    0.16
   1   4 -18    0.05    0.23
  -1  -4  18   -1.41    1.62
  -1  -4  18    0.49    0.22
  -1  -4  18    0.50    0.21
   0   4 -18    8.32    0.70
   0   4 -18   10.80    0.93
   0   4 -18    8.89    0.93
   0   4 -18    8.99    0.60
   0  -4  18    9.17    0.96
   0  -4  18    9.77    3.26
  -1   4 -18    1.33    3.84
  -1   4 -18    0.61    0.15
  -1   4 -18    0.70    0.29
   1  -4  18   -0.48    0.86
   1  -4  18    0.57    0.25
   1  -4  18    0.40    1.83
  -2   4 -18    0.29    0.16
  -2   4 -18    0.16    0.08
   2  -4  18   -0.31    1.73
   2  -4  18    0.38    0.34
  -3   4 -18    0.09    0.08
   3  -4  18    0.57    1.16
   3  -4  18    0.30    0.10
   3   3 -18    1.05    0.25
   3   3 -18    0.70    0.26
  -3  -3  18    0.79    0.13
  -3  -3  18    1.11    0.15
  -3  -3  18    0.80    0.22
   2   3 -18    0.83    0.33
   2   3 -18    0.67    0.22
   2   3 -18    0.85    0.15
  -2  -3  18    0.97    0.15
  -2  -3  18    0.85    0.16
  -2  -3  18    1.42    0.36
  -2  -3  18    0.93    0.27
   1   3 -18    1.42    0.34
  -1  -3  18    4.07    1.40
  -1  -3  18    0.77    0.38
   0   3 -18   18.98    1.52
   0   3 -18   22.08    1.63
   0   3 -18   20.94    1.31
   0   3 -18   18.21    1.23
   0   3 -18   20.60    1.00
   0  -3  18   18.95    1.47
   0  -3  18   16.04    3.00
   0  -3  18   20.39    1.28
  -1   3 -18    1.26    0.20
  -1   3 -18    1.64    0.60
  -1   3 -18    0.49    0.41
  -1   3 -18    1.17    0.46
   1  -3  18    0.73    3.41
   1  -3  18    1.33    1.46
   1  -3  18    1.59    0.59
  -2   3 -18    0.19    0.21
  -2   3 -18    0.07    0.10
   2  -3  18    0.55    2.19
   2  -3  18    0.68    0.23
  -3   3 -18    0.04    0.11
   3  -3  18   -0.93    0.50
   3  -3  18    0.19    0.10
   4   2 -18    0.50    0.18
  -4  -2  18    0.09    0.06
   3   2 -18    0.32    0.13
   3   2 -18    0.23    0.07
  -3  -2  18   -0.12    0.07
  -3  -2  18    0.07    0.13
  -3  -2  18    0.02    0.03
   2   2 -18   -0.02    0.11
  -2  -2  18    2.39    1.61
  -2  -2  18   -0.03    0.18
  -2  -2  18    0.08    0.06
  -2  -2  18    0.27    0.10
   1   2 -18    0.12    0.10
   1   2 -18    0.14    0.16
   1   2 -18    0.27    0.23
  -1  -2  18    0.29    0.15
  -1  -2  18    1.44    1.32
   0   2 -18    3.72    0.64
   0   2 -18    3.11    0.43
   0   2 -18   -0.55    4.10
   0   2 -18    4.48    0.56
   0   2 -18    3.86    0.59
   0  -2  18    3.78    0.50
   0  -2  18    3.26    0.28
   0  -2  18    3.16    1.63
   0  -2  18    3.76    0.58
  -1   2 -18    1.98    0.54
  -1   2 -18    1.88    0.37
  -1   2 -18    2.10    0.36
  -1   2 -18    2.17    0.23
   1  -2  18    0.27    1.63
   1  -2  18    1.51    1.40
   1  -2  18    1.99    0.42
  -2   2 -18   -0.01    0.05
  -2   2 -18    0.03    0.12
  -2   2 -18    0.06    0.17
   2  -2  18   -0.20    0.23
   2  -2  18    0.09    0.13
   2  -2  18   -1.28    0.88
  -3   2 -18    0.94    0.28
   3  -2  18    0.65    1.84
   3  -2  18   -0.41    0.89
   3  -2  18    0.92    0.36
   3  -2  18    0.88    0.16
  -4   2 -18    0.04    0.05
  -4   2 -18   -0.14    0.10
   4  -2  18    0.31    0.78
   4   1 -18    0.62    0.28
  -4  -1  18    0.04    0.04
  -4  -1  18    0.15    0.09
   3   1 -18    2.63    0.33
   3   1 -18    2.67    0.43
  -3  -1  18    3.78    0.65
  -3  -1  18    2.67    0.25
   2   1 -18    2.55    0.40
   2   1 -18    2.05    0.39
   2   1 -18    1.92    0.33
  -2  -1  18    2.13    0.23
  -2  -1  18    2.13    0.38
  -2  -1  18    2.27    0.56
  -2  -1  18    1.02    1.10
   1   1 -18    0.37    0.16
   1   1 -18    0.66    4.39
   1   1 -18    0.45    0.21
   1   1 -18    0.40    0.18
  -1  -1  18    0.34    0.19
  -1  -1  18    0.21    0.15
  -1  -1  18    1.70    1.37
   0   1 -18    0.74    0.23
   0   1 -18    0.32    0.28
   0   1 -18    0.34    0.16
   0  -1  18   -0.55    1.05
   0  -1  18    0.45    0.23
   0  -1  18    0.58    0.10
   0  -1  18    0.75    1.13
  -1   1 -18    0.40    0.24
  -1   1 -18    0.13    0.39
  -1   1 -18    0.23    0.30
  -1   1 -18    0.46    0.18
   1  -1  18    0.36    0.25
   1  -1  18    0.42    2.10
   1  -1  18    0.10    0.95
  -2   1 -18   12.55    0.64
  -2   1 -18   12.71    0.99
   2  -1  18   13.54    1.13
   2  -1  18   10.53    0.69
   3  -1  18    0.63    2.45
   3  -1  18    1.35    1.94
   3  -1  18    1.60    0.76
  -4   1 -18    0.41    0.13
  -4   1 -18    0.15    0.08
   4  -1  18    0.15    0.50
  -4   0  18   -0.03    0.06
  -4   0  18    0.11    0.05
   3   0 -18    2.50    0.36
   3   0 -18    2.05    0.30
  -3   0  18    1.72    0.48
  -3   0  18    2.38    0.23
   2   0 -18   -0.09    0.09
   2   0 -18    0.18    0.15
   2   0 -18    0.42    0.24
  -2   0  18   -1.33    1.02
  -2   0  18    0.37    0.24
  -2   0  18    0.15    0.07
  -2   0  18    0.19    0.13
   1   0 -18    0.29    0.20
   1   0 -18    0.56    0.23
   1   0 -18    2.57    3.86
   1   0 -18    0.29    0.19
  -1   0  18    0.35    0.08
  -1   0  18    0.62    0.27
  -1   0  18    1.25    0.99
   0   0 -18    2.90    0.50
   0   0 -18    3.87    0.64
   0   0 -18    1.02    2.43
   0   0 -18    3.09    0.43
   0   0 -18    3.43    0.52
   0   0  18    3.39    0.25
   0   0  18    0.27    1.85
   0   0  18    0.82    1.54
   0   0  18    3.33    0.56
  -1   0 -18    4.86    1.11
  -1   0 -18    3.41    0.41
  -1   0 -18    3.47    0.71
  -1   0 -18    3.61    0.50
   1   0  18    1.09    2.54
   1   0  18    3.85    0.88
  -2   0 -18    2.01    0.37
  -2   0 -18    2.19    0.60
   2   0  18    0.62    1.61
   2   0  18    1.50    0.28
   2   0  18    0.88    2.74
  -3   0 -18    1.22    0.26
  -3   0 -18    1.76    0.45
   3   0  18    0.73    2.04
   3   0  18    0.91    0.15
  -4   1  18    0.39    0.16
  -4   1  18    0.60    0.09
   3  -1 -18    0.20    0.11
   3  -1 -18    0.05    0.17
  -3   1  18    0.13    0.08
  -3   1  18    0.09    0.14
  -3   1  18   -0.09    0.18
   2  -1 -18    1.33    0.40
   2  -1 -18    1.19    0.29
   2  -1 -18    1.16    0.27
  -2   1  18    2.18    1.73
  -2   1  18    0.99    0.29
  -2   1  18    1.28    0.18
  -2   1  18    2.00    0.63
  -2   1  18    2.01    0.44
   1  -1 -18    1.38    0.38
   1  -1 -18    1.77    0.30
   1  -1 -18    1.59    0.41
  -1   1  18    2.17    0.43
  -1   1  18    2.16    1.36
  -1   1  18    1.85    0.20
   0  -1 -18    0.42    2.26
   0  -1 -18    0.49    0.29
   0  -1 -18    0.27    0.21
   0  -1 -18    0.38    0.22
   0   1  18    1.15    1.85
   0   1  18    0.54    0.20
   0   1  18   -1.55    1.44
  -1  -1 -18    2.31    0.66
  -1  -1 -18    1.32    0.91
  -1  -1 -18    2.04    0.32
   1   1  18    0.49    1.55
   1   1  18    3.46    0.84
   1   1  18    0.85    1.83
  -2  -1 -18    1.93    0.50
  -2  -1 -18    1.64    0.32
   2   1  18    0.36    1.76
   2   1  18    1.14    2.92
  -3  -1 -18    0.24    0.17
   3   1  18    0.45    1.46
  -4   2  18    3.43    0.23
  -4   2  18    3.05    0.33
   3  -2 -18    0.79    0.22
   3  -2 -18    0.48    0.17
   3  -2 -18    0.66    0.35
  -3   2  18    0.54    0.23
  -3   2  18    0.54    0.19
  -3   2  18    0.59    0.13
   2  -2 -18    0.24    0.13
   2  -2 -18    0.05    0.10
   2  -2 -18    0.41    0.16
  -2   2  18    0.38    0.25
  -2   2  18    0.10    0.14
  -2   2  18    0.73    0.25
  -2   2  18    0.04    1.68
   1  -2 -18    0.67    0.25
   1  -2 -18    0.48    0.18
   1  -2 -18    0.59    0.26
  -1   2  18    1.03    0.43
  -1   2  18   -0.66    1.63
  -1   2  18    0.51    0.23
   0  -2 -18    6.66    0.63
   0  -2 -18    7.24    0.80
   0  -2 -18    8.42    1.01
   0   2  18    7.99    0.87
  -1  -2 -18    0.44    0.27
  -1  -2 -18    0.38    0.33
   1   2  18    0.50    0.25
   1   2  18   -1.85    1.68
   1   2  18    0.11    2.12
  -2  -2 -18    0.16    0.17
  -2  -2 -18    0.07    0.17
   2   2  18    0.36    0.38
   2   2  18    0.12    1.56
   2   2  18    0.08    1.35
   3  -3 -18    0.48    0.15
   3  -3 -18    0.89    0.24
   3  -3 -18    0.30    0.13
  -3   3  18    0.23    0.13
  -3   3  18    0.46    0.17
  -3   3  18    0.32    0.09
   2  -3 -18   -0.03    0.13
   2  -3 -18    0.29    0.13
  -2   3  18    0.18    0.12
  -2   3  18    0.07    0.25
  -2   3  18    0.25    0.16
  -2   3  18    0.18    0.08
   1  -3 -18    2.89    0.52
   1  -3 -18    2.75    0.39
   1  -3 -18    2.94    0.48
  -1   3  18    3.79    0.57
  -1   3  18    3.63    0.26
  -1   3  18    3.24    0.50
   0   3  18   -0.39    1.17
  -1  -3 -18    2.20    0.56
  -1  -3 -18    3.39    0.45
   1   3  18    2.51    0.47
   1   3  18    1.04    2.36
  -2  -3 -18    0.53    0.23
  -2  -3 -18    0.33    0.19
   2   3  18    0.11    0.61
   2   3  18   -1.18    1.53
  -3  -3 -18    0.43    0.19
   3   3  18    0.14    1.44
   3   3  18    0.18    1.10
   3  -4 -18    0.50    0.20
   3  -4 -18    0.23    0.14
  -3   4  18    0.26    0.11
  -3   4  18    0.18    0.13
   2  -4 -18    0.24    0.09
   2  -4 -18    0.18    0.13
   2  -4 -18    0.19    0.17
  -2   4  18    0.41    0.18
  -2   4  18    0.05    0.14
  -2   4  18    0.26    0.08
   1  -4 -18    2.99    0.36
   1  -4 -18    2.70    0.41
   1  -4 -18    2.77    0.46
  -1   4  18    2.88    0.47
   0  -4 -18    4.31    0.60
   0  -4 -18    3.60    0.39
   0   4  18    3.96    0.59
  -1  -4 -18    5.36    0.61
  -1  -4 -18    6.21    0.91
   1   4  18    6.54    0.72
  -2  -4 -18    2.07    0.48
   2   4  18    2.82    0.68
   3  -5 -18    0.46    0.13
   2  -5 -18    0.24    0.16
   2  -5 -18   -0.04    0.07
   2  -5 -18    0.13    0.09
  -2   5  18   -0.06    0.08
  -2   5  18   -0.02    0.10
  -2   5  18    0.03    0.14
   1  -5 -18    0.03    0.08
   1  -5 -18    0.12    0.08
   1  -5 -18   -0.19    0.18
  -1   5  18   -0.37    0.26
   0   5  18    1.56    0.31
  -1  -5 -18    0.19    0.24
   1   5  18    0.72    0.27
   1   5  18   -0.82    1.17
   1  -6 -18    0.15    0.08
   1  -6 -18    0.27    0.11
   0  -6 -18   -0.13    0.17
   0   6  18   -0.12    0.19
   0   7 -19   -0.62    0.65
   1   6 -19    0.22    0.06
   1   6 -19    0.23    1.94
  -1  -6  19    0.19    0.14
   0   6 -19    1.31    1.98
  -1   6 -19    0.00    0.03
  -1   6 -19   -1.11    2.27
   1  -6  19    0.18    0.20
   2   5 -19    4.86    5.36
   2   5 -19    2.22    0.52
   2   5 -19    1.92    0.27
  -2  -5  19    1.88    0.18
  -2  -5  19    1.87    0.22
   1   5 -19    0.39    0.15
   1   5 -19    0.25    0.07
   1   5 -19   -0.37    0.29
  -1  -5  19    0.51    0.24
   0   5 -19   -0.06    0.20
   0   5 -19    1.43    0.67
   0   5 -19    0.12    0.08
   0   5 -19    0.76    1.99
   0  -5  19    0.27    0.11
  -1   5 -19    0.65    0.28
  -1   5 -19    0.02    0.06
  -1   5 -19    0.67    2.38
   1  -5  19    0.19    0.19
  -2   5 -19    0.78    0.32
  -2   5 -19    0.77    0.18
  -2   5 -19    0.43    0.10
   2  -5  19    0.43    0.21
  -3   5 -19    0.00    0.07
  -3   5 -19    0.13    0.10
   3  -5  19    0.19    0.52
   3   4 -19   -0.71    0.79
   3   4 -19    0.02    0.10
  -3  -4  19   -0.03    0.04
  -3  -4  19    0.07    0.09
   2   4 -19    0.08    0.12
   2   4 -19    0.24    0.09
   2   4 -19    0.01    0.24
  -2  -4  19    0.12    0.13
  -2  -4  19    0.09    0.06
   1   4 -19    1.03    0.21
   1   4 -19    0.65    0.32
   1   4 -19    0.86    0.24
  -1  -4  19    1.57    0.31
  -1  -4  19    1.08    0.30
   0   4 -19    1.23    0.30
   0   4 -19    2.02    0.57
   0   4 -19    1.37    0.20
   0  -4  19    1.76    0.54
  -1   4 -19   -2.14    1.60
  -1   4 -19    0.14    0.17
  -1   4 -19    0.05    0.05
   1  -4  19    0.03    1.02
   1  -4  19    0.06    0.14
  -2   4 -19   -0.12    0.10
   2  -4  19   -0.28    1.34
  -3   4 -19    0.24    0.10
  -3   4 -19    0.42    0.20
   3  -4  19    0.08    0.91
   3   3 -19    0.20    0.23
   3   3 -19    0.04    0.08
  -3  -3  19    0.06    0.05
  -3  -3  19   -0.01    0.04
   2   3 -19    0.09    0.12
   2   3 -19    0.05    0.04
   2   3 -19    0.22    0.12
  -2  -3  19    0.48    0.22
  -2  -3  19    0.11    0.14
  -2  -3  19    0.15    0.05
   1   3 -19    1.22    0.46
   1   3 -19    1.57    0.37
   1   3 -19    1.44    0.20
  -1  -3  19    2.11    0.45
  -1  -3  19    1.33    0.17
  -1  -3  19    1.39    1.75
  -1  -3  19    1.26    0.41
   0   3 -19    4.14    0.62
   0   3 -19    4.10    0.62
   0   3 -19    3.99    0.47
   0   3 -19    3.70    0.34
   0  -3  19    5.19    1.99
   0  -3  19    4.29    0.61
   0  -3  19    3.20    0.44
  -1   3 -19    4.35    0.74
  -1   3 -19    4.84    0.41
  -1   3 -19    5.60    0.61
   1  -3  19    5.49    2.67
   1  -3  19    5.86    0.73
  -2   3 -19    0.63    0.26
   2  -3  19    0.55    0.37
   3  -3  19   -0.17    0.22
   3  -3  19    0.02    0.83
   3   2 -19    0.67    0.21
   3   2 -19    0.09    0.14
  -3  -2  19    0.21    0.07
  -3  -2  19    0.12    0.11
   2   2 -19   -0.03    0.17
   2   2 -19   -0.01    0.10
  -2  -2  19    0.08    0.06
  -2  -2  19    0.55    0.23
  -2  -2  19    0.36    0.15
  -2  -2  19    0.10    0.09
   1   2 -19    1.44    0.43
   1   2 -19    2.22    0.42
   1   2 -19    1.60    0.38
  -1  -2  19    2.01    0.34
  -1  -2  19    2.55    0.45
  -1  -2  19    1.73    0.20
   0   2 -19    7.40    0.68
   0   2 -19    8.68    0.94
   0   2 -19    7.47    1.00
   0   2 -19    8.73    0.88
   0  -2  19    7.45    0.49
   0  -2  19    8.47    0.98
   0  -2  19    7.96    0.86
   0  -2  19    8.53    2.48
  -1   2 -19    2.60    0.42
   1  -2  19    0.79    1.94
  -2   2 -19    0.45    0.14
  -2   2 -19    0.77    0.28
  -2   2 -19    0.39    0.25
   2  -2  19   -0.34    0.45
   3   1 -19    0.17    0.11
   3   1 -19   -0.01    0.17
  -3  -1  19    0.09    0.06
  -3  -1  19   -0.01    0.09
   2   1 -19   -0.12    0.09
  -2  -1  19   -0.03    0.03
  -2  -1  19    0.14    0.13
  -2  -1  19   -0.35    0.21
   1   1 -19    0.15    0.16
   1   1 -19    0.44    0.23
  -1  -1  19    1.25    1.57
  -1  -1  19    0.47    0.31
   0   1 -19    7.47    0.73
   0   1 -19    7.57    0.87
   0   1 -19    7.13    0.86
   0   1 -19    6.95    0.66
   0  -1  19    7.30    0.79
   0  -1  19    7.65    0.43
  -1   1 -19    2.89    0.41
  -1   1 -19    3.00    0.81
  -1   1 -19    3.27    0.49
   1  -1  19   -0.30    2.03
   1  -1  19    4.66    0.73
   1  -1  19    1.74    2.40
  -2   1 -19    1.77    0.47
  -2   1 -19    1.09    0.18
  -2   1 -19    1.48    0.48
   2  -1  19    0.06    1.65
   2  -1  19    0.26    1.46
   3  -1  19   -0.04    0.68
   3  -1  19    1.75    0.77
   3  -1  19    0.87    1.28
  -4   0  19    0.02    0.04
  -4   0  19   -0.01    0.07
   3   0 -19    0.84    0.26
   3   0 -19    0.85    0.23
  -3   0  19    0.76    0.12
  -3   0  19    0.55    0.22
   2   0 -19    0.37    0.24
   2   0 -19   -0.06    0.18
  -2   0  19    0.03    0.16
  -2   0  19    0.34    0.25
  -2   0  19    1.47    1.77
   1   0 -19    1.30    0.35
   1   0 -19    1.10    0.31
   1   0 -19    1.43    0.43
  -1   0  19    1.48    0.48
  -1   0  19    2.04    0.41
  -1   0  19    1.28    1.39
   0   0 -19    6.36    1.11
   0   0 -19    7.75    0.70
   0   0 -19    8.41    1.02
   0   0 -19    8.96    0.79
   0   0  19    8.29    0.89
   0   0  19    8.21    0.43
  -1   0 -19   13.27    1.45
  -1   0 -19    8.86    0.69
  -1   0 -19   11.66    0.92
   1   0  19   10.83    1.07
  -2   0 -19    0.22    0.14
  -2   0 -19    0.56    0.19
   2   0  19    0.47    2.31
   2   0  19   -0.05    0.22
  -4   1  19    0.05    0.04
  -4   1  19    0.11    0.08
   3  -1 -19    0.17    0.10
   3  -1 -19    0.31    0.19
  -3   1  19    0.07    0.12
  -3   1  19    0.11    0.05
   2  -1 -19    0.15    0.16
   2  -1 -19    0.02    0.09
  -2   1  19    0.64    0.24
  -2   1  19    0.17    0.07
  -2   1  19   -0.07    0.09
   1  -1 -19    1.10    0.37
   1  -1 -19    0.89    0.35
   1  -1 -19    1.18    0.30
  -1   1  19    1.23    0.16
  -1   1  19    1.23    0.43
  -1   1  19   -1.04    1.43
   0   1  19    1.21    2.10
  -1  -1 -19    0.77    0.27
  -1  -1 -19    1.31    0.39
  -1  -1 -19    1.15    0.38
   1   1  19    0.19    1.11
  -2  -1 -19    0.60    0.24
  -2  -1 -19    0.78    0.29
   2   1  19    0.59    0.48
   2   1  19   -0.30    1.10
   2   1  19    0.06    1.42
   3  -2 -19    0.86    0.24
   3  -2 -19    0.96    0.22
   3  -2 -19    0.48    0.28
  -3   2  19    0.59    0.16
  -3   2  19    0.73    0.11
  -3   2  19    0.68    0.20
   2  -2 -19    0.24    0.23
   2  -2 -19    0.49    0.18
   2  -2 -19    0.57    0.29
  -2   2  19    0.10    0.09
  -2   2  19    0.24    0.09
  -2   2  19    0.15    0.10
  -2   2  19    0.10    0.28
   1  -2 -19    0.24    0.17
   1  -2 -19    0.27    0.14
   1  -2 -19    0.45    0.18
  -1   2  19    0.51    0.12
  -1   2  19   -0.32    2.06
  -1   2  19    0.77    0.30
   0  -2 -19   -0.02    0.19
   0  -2 -19    0.40    0.15
   0  -2 -19    0.62    0.23
   0   2  19    0.41    0.25
   0   2  19   -0.51    1.29
  -1  -2 -19    0.06    0.16
   1   2  19   -0.97    1.17
   1   2  19    0.61    0.36
   1   2  19   -0.13    2.23
  -2  -2 -19    0.99    0.33
  -2  -2 -19    1.82    0.48
   2   2  19    0.05    1.06
  -3  -2 -19    0.42    0.15
   3   2  19   -0.91    0.55
   3   2  19    0.32    0.87
   3  -3 -19   -0.27    0.19
   3  -3 -19    0.23    0.17
   3  -3 -19    0.21    0.10
  -3   3  19   -0.02    0.12
  -3   3  19    0.08    0.05
  -3   3  19   -0.11    0.06
   2  -3 -19    0.71    0.23
   2  -3 -19    0.28    0.12
   2  -3 -19    0.32    0.16
  -2   3  19    0.51    0.22
  -2   3  19    0.69    0.25
  -2   3  19    0.46    0.11
   1  -3 -19    1.03    0.27
   1  -3 -19    1.04    0.31
   1  -3 -19    0.70    0.26
  -1   3  19    1.71    0.35
   0  -3 -19    0.75    0.23
   0  -3 -19    1.06    0.35
   0  -3 -19    0.48    0.26
   0   3  19    0.83    1.59
  -1  -3 -19    0.16    0.21
   1   3  19    0.26    1.64
   1   3  19    0.02    0.19
  -2  -3 -19    1.44    0.35
  -2  -3 -19    1.75    0.31
   2   3  19    0.22    0.69
   3  -4 -19    0.25    0.13
  -3   4  19    0.04    0.14
  -3   4  19    0.32    0.11
  -3   4  19    0.36    0.07
   2  -4 -19    0.06    0.11
   2  -4 -19    0.25    0.17
   2  -4 -19    0.21    0.10
  -2   4  19    0.15    0.07
  -2   4  19    0.31    0.17
  -2   4  19    0.03    0.07
   1  -4 -19    0.22    0.13
   1  -4 -19    0.10    0.08
  -1   4  19    0.10    0.23
  -1  -4 -19    0.33    0.19
   1   4  19    0.66    0.26
   1   4  19   -0.06    1.10
  -2  -4 -19    0.32    0.14
   2   4  19    0.85    1.75
   2  -5 -19    0.03    0.07
   2  -5 -19    0.22    0.11
  -2   5  19    0.19    0.18
   1  -5 -19    0.20    0.16
   1  -5 -19    0.34    0.32
   1  -5 -19    0.14    0.09
  -1   5  19    0.06    0.21
  -1   5  19    0.09    0.12
   0  -5 -19    0.13    0.12
   0   5  19    0.27    0.20
  -1  -5 -19    3.29    0.39
   1   6 -20   -0.64    1.05
   1   6 -20    0.09    0.05
  -1  -6  20    0.01    0.02
  -1  -6  20   -0.17    0.10
   0   6 -20    0.44    1.07
   0   6 -20    0.57    0.48
  -1   6 -20    0.92    0.37
  -1   6 -20    0.16    0.07
   1  -6  20    0.34    0.15
   2   5 -20    0.54    1.33
   2   5 -20    0.43    0.14
   2   5 -20    0.76    0.18
  -2  -5  20    0.73    0.09
   1   5 -20    0.01    0.05
   1   5 -20   -0.03    0.11
   1   5 -20   -1.58    1.20
  -1  -5  20    0.10    0.12
   0   5 -20    0.84    0.18
   0  -5  20    1.14    0.44
  -1   5 -20    2.36    0.39
  -1   5 -20   -0.47    2.04
  -1   5 -20    1.53    0.20
   1  -5  20    2.98    0.98
  -2   5 -20    0.59    0.20
   2  -5  20    0.31    0.30
   2  -5  20    0.12    0.85
   2   4 -20    1.57    0.23
   2   4 -20    2.00    0.18
   2   4 -20    0.76    0.33
  -2  -4  20    1.70    0.16
  -2  -4  20    1.36    0.21
  -2  -4  20    1.46    0.21
   1   4 -20    0.18    0.07
   1   4 -20    0.12    0.14
   1   4 -20    0.57    0.29
  -1  -4  20    0.69    0.25
  -1  -4  20    0.32    0.17
   0   4 -20    3.94    0.44
   0   4 -20    4.01    0.91
   0   4 -20    4.28    0.36
   0  -4  20    5.12    0.63
  -1   4 -20   -1.35    3.25
   1  -4  20   -0.15    1.65
  -2   4 -20    0.78    0.20
  -2   4 -20    0.92    0.14
   2  -4  20    0.16    0.78
  -3   4 -20    2.36    0.30
  -3   4 -20    1.96    0.24
   3  -4  20    0.41    1.03
   3   3 -20    0.30    0.13
  -3  -3  20    0.17    0.08
   2   3 -20    0.29    0.16
   2   3 -20    0.79    0.22
   2   3 -20    0.23    0.09
  -2  -3  20    0.32    0.09
  -2  -3  20    0.45    0.23
  -2  -3  20    0.16    0.08
  -2  -3  20    0.49    0.26
   1   3 -20    0.48    0.13
   1   3 -20    0.61    0.25
   1   3 -20    0.25    0.23
  -1  -3  20    0.49    0.11
  -1  -3  20    1.10    0.37
  -1  -3  20    1.30    0.30
   0   3 -20    5.73    0.81
   0   3 -20    5.67    0.43
   0   3 -20    5.46    0.71
   0   3 -20    5.52    0.53
   0  -3  20    5.15    0.52
   0  -3  20    6.62    0.78
  -1   3 -20    1.61    0.64
  -1   3 -20    1.96    0.53
  -1   3 -20    1.07    0.18
   1  -3  20    1.92    0.39
  -2   3 -20    0.30    0.14
   2  -3  20    0.88    0.51
   2  -3  20    0.24    1.47
  -3   3 -20    0.26    0.13
   3  -3  20    0.20    0.83
   3   2 -20    0.19    0.09
   3   2 -20    0.53    0.21
  -3  -2  20    0.06    0.05
   2   2 -20    0.68    0.24
   2   2 -20    0.26    0.09
  -2  -2  20    0.76    0.26
  -2  -2  20    0.20    0.08
  -2  -2  20    0.28    0.16
   1   2 -20    1.91    0.54
   1   2 -20    1.23    0.43
   1   2 -20    1.07    0.28
  -1  -2  20   -0.40    2.10
  -1  -2  20    1.29    0.33
  -1  -2  20    1.61    0.18
  -1  -2  20    2.21    0.40
   0   2 -20    0.56    0.20
   0   2 -20    0.17    0.25
   0   2 -20    0.23    0.15
   0  -2  20    0.65    0.35
   0  -2  20   -0.23    1.33
   0  -2  20    0.48    0.19
   0  -2  20   -1.91    1.91
  -1   2 -20    1.31    0.42
  -1   2 -20    0.77    0.18
  -1   2 -20    0.84    0.34
   1  -2  20    0.99    0.27
   1  -2  20    0.64    0.38
   1  -2  20    0.07    1.13
  -2   2 -20    1.07    0.48
  -2   2 -20    0.99    0.23
  -2   2 -20    1.29    0.27
   2  -2  20   -0.32    1.27
   3   1 -20   -0.01    0.18
   3   1 -20    0.15    0.11
  -3  -1  20    0.10    0.04
  -3  -1  20    0.08    0.11
   2   1 -20   -0.07    0.15
   2   1 -20    0.05    0.09
  -2  -1  20    0.21    0.15
  -2  -1  20    0.07    0.03
  -2  -1  20   -0.24    0.21
   1   1 -20    2.02    0.37
   1   1 -20    2.67    0.46
   1   1 -20    2.30    0.36
  -1  -1  20    2.30    1.93
  -1  -1  20    2.76    0.44
  -1  -1  20    2.74    0.24
  -1  -1  20    1.77    0.42
   0   1 -20   14.75    1.02
   0   1 -20   13.14    0.94
   0   1 -20   14.01    1.18
   0   1 -20   13.09    1.20
   0  -1  20   14.39    3.95
   0  -1  20   13.28    0.65
   0  -1  20   13.90    1.15
  -1   1 -20    0.13    0.14
  -1   1 -20    0.03    0.04
  -1   1 -20   -0.01    0.18
   1  -1  20    1.93    2.98
   1  -1  20    0.08    1.66
  -2   1 -20    0.16    0.12
  -2   1 -20    0.97    0.40
  -2   1 -20    0.28    0.11
   2  -1  20    0.29    0.98
   2  -1  20   -0.15    1.03
   2  -1  20    0.46    0.24
   3  -1  20   -0.01    1.04
   3  -1  20   -0.28    0.69
   3   0 -20   -0.13    0.08
  -3   0  20    0.07    0.11
  -3   0  20    0.07    0.07
   2   0 -20    0.94    0.25
   2   0 -20    0.53    0.22
   2   0 -20    0.34    0.14
  -2   0  20    0.28    0.10
  -2   0  20    0.14    0.19
  -2   0  20    0.65    0.29
   1   0 -20    4.70    0.53
   1   0 -20    3.72    0.58
   1   0 -20    5.12    0.67
  -1   0  20    6.58    2.65
  -1   0  20    4.34    0.56
  -1   0  20    5.48    0.36
  -1   0  20    5.17    0.69
   0   0 -20    0.92    0.24
   0   0 -20    1.24    0.35
   0   0 -20    0.83    0.33
   0   0  20   -1.41    2.65
   0   0  20    1.19    0.14
   0   0  20    0.02    1.35
   0   0  20    1.01    0.35
  -1   0 -20    0.44    0.30
   1   0  20   -0.17    0.73
   1   0  20   -1.00    0.80
   1   0  20    1.17    0.45
  -2   0 -20    0.13    0.13
  -2   0 -20    0.15    0.15
   2   0  20   -0.82    1.04
   2   0  20   -0.01    0.53
   2   0  20    0.77    0.41
  -3   0 -20    4.35    0.42
   3  -1 -20   -0.05    0.08
   3  -1 -20    0.08    0.20
  -3   1  20    0.27    0.15
  -3   1  20    0.01    0.04
   2  -1 -20    0.36    0.20
   2  -1 -20    0.63    0.17
   2  -1 -20    0.77    0.22
  -2   1  20    0.79    0.11
  -2   1  20    0.36    0.22
  -2   1  20    0.63    0.28
   1  -1 -20    0.66    0.29
   1  -1 -20    1.06    0.30
   1  -1 -20    1.11    0.35
  -1   1  20    1.09    0.15
   0  -1 -20    0.62    0.21
   0  -1 -20    0.27    0.23
   0  -1 -20    0.22    0.26
   0   1  20    0.54    2.60
   0   1  20    0.92    0.41
  -1  -1 -20    4.55    0.51
  -1  -1 -20    3.49    0.61
   1   1  20    4.26    0.64
  -2  -1 -20    0.34    0.17
  -2  -1 -20    0.33    0.20
   2   1  20    0.19    1.16
   3   1  20   -0.03    0.93
   3   1  20    0.09    0.62
   3  -2 -20    0.22    0.15
   3  -2 -20    0.43    0.23
  -3   2  20    0.14    0.06
  -3   2  20    0.11    0.10
   2  -2 -20    0.21    0.12
   2  -2 -20    0.37    0.20
   2  -2 -20    0.47    0.16
  -2   2  20    0.39    0.09
  -2   2  20    0.71    0.30
   1  -2 -20   -0.11    0.13
   1  -2 -20    0.02    0.10
   1  -2 -20   -0.04    0.12
  -1   2  20    0.12    0.07
  -1   2  20    0.12    0.16
   0  -2 -20    0.42    0.26
   0  -2 -20    2.02    0.51
   0   2  20    0.95    0.32
  -1  -2 -20    0.56    0.29
  -1  -2 -20    1.07    0.38
   1   2  20    0.27    1.35
   1   2  20   -0.66    0.75
   1   2  20    0.85    0.36
  -2  -2 -20    0.59    0.22
   2   2  20   -0.08    1.65
   2   2  20    1.46    0.57
   3  -3 -20   -0.12    0.10
  -3   3  20    0.11    0.09
  -3   3  20    0.07    0.04
   2  -3 -20    0.05    0.12
   2  -3 -20    0.00    0.17
   2  -3 -20    0.19    0.12
  -2   3  20    0.36    0.08
  -2   3  20    0.21    0.10
   1  -3 -20    0.76    0.26
   1  -3 -20    0.88    0.22
   1  -3 -20    0.59    0.28
  -1   3  20    1.00    0.37
   0  -3 -20    1.01    0.38
   0  -3 -20    1.16    0.28
   0  -3 -20    1.73    0.46
   0   3  20    1.92    0.59
  -1  -3 -20    1.91    0.45
  -1  -3 -20    2.03    0.40
   1   3  20   -0.36    1.71
   1   3  20    2.41    0.46
  -2  -3 -20   -0.08    0.29
   2   3  20    1.16    0.45
   2   3  20    0.43    0.89
   2  -4 -20    0.35    0.11
   2  -4 -20    0.09    0.12
   2  -4 -20    0.34    0.24
  -2   4  20    0.52    0.16
   1  -4 -20   -0.04    0.06
   1  -4 -20    0.08    0.19
   1  -4 -20    0.02    0.21
  -1   4  20    0.00    0.19
  -1   4  20    0.20    0.11
   0  -4 -20    2.73    0.31
   0  -4 -20    3.46    0.48
   1   4  20    0.05    1.06
   1   4  20    1.04    0.33
   1  -5 -20    0.44    0.20
   1  -5 -20    0.75    0.16
  -1   5  20    0.39    0.18
   0  -5 -20    0.36    0.16
   0   5  20    0.50    0.19
   0   6 -21   -0.01    0.02
   0   6 -21   -1.30    1.47
   1  -6  21    2.02    0.28
   1   5 -21    0.06    0.05
   1   5 -21   -0.79    0.94
   1   5 -21    0.48    0.19
  -1  -5  21    0.04    0.10
   0   5 -21    0.94    1.98
  -1   5 -21    0.74    0.27
   1  -5  21    0.19    0.13
   2  -5  21    0.66    0.28
   2   4 -21    0.51    0.14
   2   4 -21    0.73    0.11
  -2  -4  21    0.55    0.22
   1   4 -21    2.25    0.31
   1   4 -21    3.18    0.28
   1   4 -21    2.87    0.53
  -1  -4  21    3.79    0.46
   0   4 -21    0.57    0.59
   0   4 -21    0.47    0.34
   0   4 -21    0.56    0.14
   0  -4  21    0.84    0.38
  -1   4 -21    1.58    0.38
   1  -4  21    1.37    0.42
  -2   4 -21    0.20    0.09
  -2   4 -21    0.31    0.13
   2  -4  21    0.23    0.21
   2  -4  21    0.18    1.13
   2   3 -21    0.44    0.23
   2   3 -21    0.02    0.05
   2   3 -21    0.11    0.09
  -2  -3  21    0.14    0.11
   1   3 -21    0.43    0.13
   1   3 -21    0.44    0.30
   1   3 -21    0.26    0.15
  -1  -3  21    0.53    0.26
  -1  -3  21    0.96    0.26
  -1   3 -21    0.53    0.14
  -1   3 -21    0.63    0.26
   1  -3  21    1.02    0.33
   1  -3  21    0.36    1.42
  -2   3 -21    0.25    0.20
   3   2 -21    0.55    0.14
  -3  -2  21    0.45    0.14
  -3  -2  21    0.54    0.09
   2   2 -21    0.47    0.15
   2   2 -21    0.29    0.17
   2   2 -21    0.25    0.10
  -2  -2  21    0.29    0.08
  -2  -2  21    0.67    0.26
  -2  -2  21    0.48    0.16
   1   2 -21    1.07    0.25
   1   2 -21    1.17    0.33
   1   2 -21    0.96    0.29
  -1  -2  21    1.19    0.14
  -1  -2  21    1.34    0.46
  -1  -2  21    1.16    0.29
   0   2 -21    1.11    0.38
   0   2 -21    1.41    0.40
   0   2 -21    1.28    0.18
   0   2 -21    1.71    0.36
   0  -2  21   -0.11    1.38
   0  -2  21    1.80    0.50
   0  -2  21    1.90    0.31
  -1   2 -21    1.53    0.43
  -1   2 -21    1.68    0.21
  -1   2 -21    1.90    0.37
   1  -2  21    2.12    0.42
   1  -2  21    2.33    0.39
  -2   2 -21    0.18    0.12
  -2   2 -21    0.16    0.21
   2  -2  21    0.01    0.94
   2  -2  21    0.08    0.25
   3  -2  21   -0.38    0.98
   3   1 -21    0.09    0.05
   3   1 -21   -0.06    0.12
   3   1 -21    0.32    0.25
  -3  -1  21    0.09    0.08
   2   1 -21    0.07    0.07
  -2  -1  21    0.14    0.25
  -2  -1  21   -0.06    0.09
  -2  -1  21    0.02    0.03
   1   1 -21    1.44    0.42
   1   1 -21    2.63    0.40
   1   1 -21    1.86    0.32
  -1  -1  21    1.82    0.18
  -1  -1  21    1.82    0.40
  -1  -1  21    1.43    0.40
   0   1 -21    0.66    0.26
   0   1 -21    0.67    0.39
   0   1 -21    0.59    0.19
   0   1 -21    0.30    0.23
   0  -1  21    0.59    0.24
   0  -1  21   -0.04    0.51
   0  -1  21    0.47    0.26
  -1   1 -21    1.62    0.19
  -1   1 -21    2.44    0.37
  -1   1 -21    2.05    0.60
   1  -1  21    1.53    0.42
  -2   1 -21    1.08    0.37
  -2   1 -21    1.03    0.30
   2  -1  21    0.13    0.78
   2  -1  21    1.86    0.58
   3  -1  21   -0.11    0.55
   3   0 -21    0.51    0.27
   3   0 -21    0.44    0.13
  -3   0  21    0.41    0.23
  -3   0  21    0.35    0.09
   2   0 -21    1.29    0.22
   2   0 -21    0.85    0.36
   2   0 -21    0.72    0.28
  -2   0  21    0.92    0.14
  -2   0  21    0.98    0.36
   1   0 -21    1.92    0.35
   1   0 -21    1.96    0.46
   1   0 -21    2.14    0.34
  -1   0  21    2.52    0.21
  -1   0  21    2.24    0.54
  -1   0  21    2.73    0.41
   0   0 -21    1.10    0.25
   0   0 -21    0.80    0.32
   0   0 -21    1.64    0.57
   0   0  21   -0.81    1.14
  -1   0 -21    0.60    0.21
  -1   0 -21    0.54    0.12
   1   0  21    1.25    0.47
   1   0  21    0.04    0.74
   1   0  21    0.29    1.52
   2   0  21    0.37    1.13
   2   0  21    0.84    1.49
  -3   0 -21   -0.05    0.08
   3   0  21    0.12    0.55
   3   0  21   -0.39    0.74
   3  -1 -21   -0.03    0.09
  -3   1  21    0.07    0.04
  -3   1  21    0.06    0.07
   2  -1 -21    0.15    0.17
   2  -1 -21    0.41    0.13
  -2   1  21    0.17    0.05
  -2   1  21    0.28    0.20
   1  -1 -21    0.12    0.17
   1  -1 -21    0.42    0.15
   1  -1 -21    0.17    0.15
  -1   1  21   -0.14    0.18
  -1   1  21    0.05    0.13
   0  -1 -21    0.36    0.26
   0  -1 -21    0.68    0.27
   0  -1 -21    1.02    0.18
   0   1  21    0.85    0.32
  -1  -1 -21    1.38    0.40
  -1  -1 -21    1.89    0.36
   1   1  21    1.92    2.18
   1   1  21   -0.05    1.78
   1   1  21    2.36    0.44
  -2  -1 -21    0.60    0.25
  -2  -1 -21    0.38    0.22
   2   1  21    0.59    0.72
   3  -2 -21    0.32    0.11
  -3   2  21    0.16    0.05
  -3   2  21    0.27    0.14
   2  -2 -21    2.05    0.38
   2  -2 -21    1.90    0.42
   2  -2 -21    2.13    0.31
  -2   2  21    2.10    0.38
  -2   2  21    2.37    0.20
   1  -2 -21    0.32    0.20
   1  -2 -21    0.00    0.07
  -1   2  21   -0.24    0.16
  -1   2  21    0.08    0.06
   0  -2 -21    0.83    0.28
   0  -2 -21    0.22    0.32
   0   2  21    1.08    0.40
  -1  -2 -21    1.29    0.39
  -1  -2 -21    0.56    0.20
   1   2  21    0.92    0.32
   1   2  21   -0.93    0.79
  -2  -2 -21    0.42    0.19
   2   2  21    0.66    0.40
   2   2  21    0.48    0.99
   2   2  21    0.46    1.89
   2  -3 -21    1.74    0.29
   2  -3 -21    1.98    0.26
   2  -3 -21    1.67    0.31
  -2   3  21    1.15    0.29
   1  -3 -21    0.78    0.25
   1  -3 -21    0.68    0.31
   1  -3 -21    0.88    0.19
  -1   3  21    1.35    0.41
  -1   3  21    1.92    0.60
   0  -3 -21    5.89    0.68
   0   3  21    5.76    0.63
  -1  -3 -21    1.13    0.27
   1   3  21    0.34    0.98
   2  -4 -21   -0.07    0.09
   2  -4 -21    0.11    0.08
  -2   4  21   -0.08    0.10
   1  -4 -21    0.72    0.18
   1  -4 -21    0.50    0.21
  -1   4  21    0.43    0.16
  -1   4  21    0.63    0.25
   0  -4 -21    0.09    0.09
   0   4  21   -0.14    0.15
   1   5 -22   -0.81    0.94
   1   5 -22    0.00    0.03
  -1  -5  22   -0.03    0.10
   1  -5  22    0.97    0.29
   1   4 -22    0.15    0.07
   1   4 -22    0.06    0.12
  -1  -4  22    0.07    0.07
  -1  -4  22    0.11    0.14
   0   4 -22   -0.71    1.26
  -2   4 -22    0.37    0.20
   2  -4  22    0.93    0.29
   2  -4  22    0.14    0.65
   2   3 -22    0.03    0.25
   2   3 -22    0.09    0.10
   2   3 -22    0.10    0.06
  -2  -3  22    0.08    0.10
   1   3 -22    1.90    0.44
   1   3 -22    2.47    0.24
   1   3 -22    1.95    0.29
  -1  -3  22    2.64    0.31
  -1  -3  22    3.06    0.47
   0   3 -22    1.07    0.16
   0   3 -22    0.79    0.28
   0   3 -22    1.96    0.82
   0  -3  22    0.82    0.25
   1  -3  22    0.15    0.60
   1  -3  22    0.32    0.21
   2  -3  22    0.81    0.32
   2  -3  22    0.54    0.84
   2   2 -22    0.65    0.14
   2   2 -22    0.50    0.25
   2   2 -22    0.78    0.22
  -2  -2  22    0.65    0.17
  -2  -2  22    0.54    0.10
   1   2 -22   11.16    0.60
   1   2 -22    9.22    0.89
   1   2 -22   10.14    0.77
   1   2 -22   10.89    0.85
  -1  -2  22   12.04    0.56
  -1  -2  22   11.45    0.87
  -1  -2  22    9.25    0.90
   0   2 -22    1.35    0.24
   0   2 -22    1.70    0.38
   0   2 -22    0.73    0.60
   0   2 -22    1.07    0.15
   0  -2  22    1.20    0.34
   0  -2  22    1.24    0.43
  -1   2 -22    0.69    0.29
   1  -2  22   -0.05    0.91
   1  -2  22    0.83    0.26
   1  -2  22    0.53    0.23
  -2   2 -22    1.44    0.26
   2  -2  22    1.18    0.45
   2   1 -22    0.34    0.12
   2   1 -22    0.11    0.17
  -2  -1  22    0.06    0.04
  -2  -1  22    0.14    0.10
   1   1 -22    0.57    0.18
   1   1 -22    0.69    0.30
   1   1 -22    0.33    0.20
  -1  -1  22    0.32    0.17
  -1  -1  22    0.75    0.29
  -1  -1  22    0.71    0.14
   0   1 -22    9.42    0.69
   0   1 -22    8.60    0.91
   0   1 -22    9.95    0.97
   0  -1  22   12.12    0.98
   0  -1  22    9.75    0.84
  -1   1 -22    0.83    0.33
  -1   1 -22    0.55    0.23
  -1   1 -22    0.32    0.10
   1  -1  22    0.13    0.14
   1  -1  22    0.36    0.27
   1  -1  22    0.21    0.98
   2  -1  22    0.26    0.92
   3   0 -22   -0.08    0.09
  -3   0  22   -0.02    0.05
  -3   0  22    0.01    0.03
   2   0 -22    0.52    0.22
   2   0 -22    0.10    0.10
  -2   0  22    0.10    0.06
  -2   0  22    0.16    0.21
   1   0 -22    0.80    0.19
   1   0 -22    0.59    0.25
  -1   0  22    0.79    0.31
  -1   0  22    1.09    0.13
  -1   0  22    0.78    0.30
  -1   0 -22    3.53    0.59
  -1   0 -22    4.04    0.55
  -1   0 -22    3.09    0.24
   1   0  22    2.92    0.51
  -2   0 -22    0.10    0.11
   2   0  22   -0.19    0.82
   2   0  22    0.65    0.32
   2  -1 -22    0.41    0.21
   2  -1 -22    0.54    0.24
  -2   1  22    0.26    0.17
   1  -1 -22    0.35    0.17
   1  -1 -22    0.13    0.06
  -1   1  22   -0.13    0.18
  -1   1  22   -0.23    0.13
  -1  -1 -22    2.18    0.50
  -1  -1 -22    2.59    0.41
  -1  -1 -22    1.91    0.17
   1   1  22    2.90    0.47
   1   1  22   -0.33    1.35
  -2  -1 -22    0.12    0.13
   2   1  22   -0.50    0.77
   2   1  22    0.17    0.89
   2  -2 -22    0.26    0.14
   2  -2 -22    0.28    0.18
   2  -2 -22    0.36    0.24
  -2   2  22    0.40    0.18
  -2   2  22    0.37    0.09
   1  -2 -22    0.06    0.13
   1  -2 -22    0.12    0.11
   1  -2 -22    0.21    0.22
  -1   2  22   -0.03    0.17
  -1   2  22    0.18    0.13
   0  -2 -22    0.65    0.19
   0  -2 -22    0.29    0.19
   0   2  22    1.01    0.39
   1   2  22    0.58    0.25
   2  -3 -22    0.04    0.09
   2  -3 -22   -0.01    0.15
  -2   3  22   -0.03    0.08
   1  -3 -22    1.00    0.20
  -1   3  22    1.27    0.26
  -1   3  22    1.18    0.32
   0  -3 -22   -0.10    0.10
   0   3  22    0.26    0.20
   1   3  22    0.36    0.22
   1   4 -23   -0.63    0.94
  -1  -4  23    0.76    0.23
   0   4 -23    0.09    0.06
   0  -4  23    0.17    0.16
   1  -4  23    0.54    0.22
   1   3 -23    0.30    0.13
  -1  -3  23    0.27    0.17
  -1  -3  23    0.10    0.14
   0  -3  23    2.71    0.42
  -1   3 -23    0.65    0.11
   1  -3  23   -0.09    0.56
  -2   3 -23    1.25    0.25
   2   2 -23    0.36    0.11
   2   2 -23    0.17    0.05
  -2  -2  23    0.06    0.08
   1   2 -23    6.51    0.40
   1   2 -23    6.07    0.51
  -1  -2  23    5.65    0.52
   0   2 -23    0.85    0.26
   0  -2  23    0.68    0.24
   0  -2  23    0.68    0.21
   1  -2  23    0.60    0.23
   1  -2  23    0.34    1.32
   2  -2  23    0.16    0.51
   2   1 -23    0.37    0.25
   2   1 -23    0.75    0.21
  -2  -1  23    0.46    0.09
   1   1 -23    4.01    0.58
   1   1 -23    4.91    0.46
   1   1 -23    5.94    0.59
  -1  -1  23    4.36    0.51
  -1  -1  23    5.63    0.31
   0   1 -23    0.05    0.05
   0   1 -23    0.01    0.20
   0   1 -23   -0.04    0.15
   0  -1  23    0.15    0.15
   0  -1  23    0.00    0.18
  -1   1 -23    0.29    0.08
  -1   1 -23    0.04    0.15
   1  -1  23    0.60    0.18
   1  -1  23    0.56    0.26
   1  -1  23    0.11    1.00
  -2   1 -23    2.27    0.35
  -2   1 -23    2.43    0.33
   2  -1  23    0.53    1.04
   2   0 -23    0.69    0.33
  -2   0  23    1.00    0.28
  -2   0  23    1.35    0.13
   1   0 -23    0.14    0.12
   1   0 -23   -0.23    0.26
   1   0 -23    0.29    0.19
  -1   0  23    0.16    0.12
  -1   0  23    0.15    0.06
  -1   0  23   -0.01    0.18
   0   0 -23    0.32    0.16
   0   0 -23   -0.14    0.24
   0   0  23    0.29    0.17
   0   0  23    0.22    0.17
  -1   0 -23    0.01    0.14
  -1   0 -23    0.12    0.06
   1   0  23   -1.13    0.94
   1   0  23    0.31    0.19
  -2   0 -23    1.32    0.31
   2   0  23    0.37    1.17
   2  -1 -23    0.12    0.09
   2  -1 -23    0.14    0.22
  -2   1  23   -0.01    0.05
   1  -1 -23    1.21    0.32
  -1   1  23    0.43    0.20
   0  -1 -23    0.66    0.21
   0  -1 -23    0.48    0.19
   0   1  23    0.32    0.25
   0   1  23    0.39    0.20
  -1  -1 -23    1.22    0.36
   1   1  23    0.15    0.15
   2  -2 -23   -0.09    0.09
  -2   2  23   -0.19    0.12
  -2   2  23   -0.07    0.05
   1  -2 -23    0.06    0.08
   1  -2 -23    0.06    0.11
  -1   2  23   -0.10    0.19
  -1   2  23   -0.05    0.09
   0   2  23    1.49    0.37
  -1  -2 -23    0.61    0.37
  -1  -2 -23    0.35    0.16
   1  -3 -23    0.27    0.19
   1  -3 -23    0.31    0.14
  -1   3  23    0.21    0.10
   0  -3 -23    0.27    0.14
   0   3  23    0.45    0.18
   1   3 -24    1.73    0.17
  -1  -3  24    2.35    0.30
   0   3 -24   -0.34    1.75
   1  -3  24    0.56    0.20
   1   2 -24    0.03    0.12
   1   2 -24   -0.03    0.02
  -1  -2  24    0.02    0.16
  -1  -2  24    0.06    0.12
   0   2 -24    0.30    0.08
   0   2 -24    0.33    0.21
   0  -2  24    0.35    0.21
   1   1 -24    0.42    0.13
   1   1 -24    0.22    0.07
  -1  -1  24    0.63    0.21
  -1  -1  24    0.44    0.14
   0   1 -24    0.41    0.16
   0   1 -24    0.04    0.04
   0  -1  24   -0.01    0.15
   0  -1  24   -0.01    0.12
   1  -1  24    0.57    0.24
   1  -1  24    0.61    0.28
   1   0 -24    1.40    0.21
   1   0 -24    1.33    0.29
  -1   0  24    1.31    0.28
  -1   0  24    1.13    0.27
   0   0 -24    0.44    0.19
   0   0 -24    0.08    0.05
   0   0  24    0.20    0.10
   0   0  24    0.23    0.15
  -1   0 -24    1.90    0.38
   1   0  24    1.15    0.32
   1  -1 -24    0.46    0.13
   1  -1 -24    0.94    0.22
  -1   1  24    0.48    0.18
  -1   1  24    0.76    0.25
   0  -1 -24    0.16    0.15
   0   1  24    0.04    0.14
   0   1  24    0.15    0.12
   1   1  24    0.65    0.20
   0  -2 -24    1.40    0.17
   0   2  24    2.10    0.30
   0  -2  25    0.36    0.19
   0   1 -25    0.26    0.24
   0  -1  25    0.08    0.22
   0   0 -25    1.69    0.14
   0   0  25    1.40    0.19
   0   0   0    0.00    0.00
;
_shelx_hkl_checksum              68433
loop_
_space_group_symop_operation_xyz
'x, y, z'
'-x, -y, -z'
loop_
_atom_site_label
_atom_site_type_symbol
_atom_site_fract_x
_atom_site_fract_y
_atom_site_fract_z
_atom_site_U_iso_or_equiv
_atom_site_adp_type
_atom_site_occupancy
_atom_site_site_symmetry_order
_atom_site_calc_flag
_atom_site_refinement_flags_posn
_atom_site_refinement_flags_adp
C1 C 1.0257(7) 0.2740(5) 0.44653(16) 0.0625(9) Uani 1 1 d . .
H1 H 1.1481 0.2741 0.4810 0.075 Uiso 1 1 calc R U
C2 C 0.8151(8) 0.1462(5) 0.43345(18) 0.0690(10) Uani 1 1 d . .
H2 H 0.7938 0.0570 0.4588 0.083 Uiso 1 1 calc R U
C3 C 0.6344(7) 0.1503(4) 0.38244(15) 0.0562(8) Uani 1 1 d . .
H3 H 0.4911 0.0632 0.3739 0.067 Uiso 1 1 calc R U
C4 C 0.6618(5) 0.2806(4) 0.34390(13) 0.0407(6) Uani 1 1 d . .
C5 C 0.8794(6) 0.4058(4) 0.35887(14) 0.0480(7) Uani 1 1 d . .
H5 H 0.9067 0.4961 0.3341 0.058 Uiso 1 1 calc R U
C6 C 0.4670(5) 0.2929(3) 0.28963(13) 0.0393(6) Uani 1 1 d . .
C7 C 0.2865(6) 0.1550(4) 0.26362(15) 0.0475(7) Uani 1 1 d . .
H7 H 0.2909 0.0518 0.2792 0.057 Uiso 1 1 calc R U
C8 C 0.1012(6) 0.1699(4) 0.21490(15) 0.0502(7) Uani 1 1 d . .
H8 H -0.0176 0.0759 0.1983 0.060 Uiso 1 1 calc R U
C9 C 0.0865(5) 0.3214(4) 0.18981(13) 0.0414(6) Uani 1 1 d . .
C10 C 0.2656(6) 0.4586(4) 0.21665(15) 0.0513(7) Uani 1 1 d . .
H10 H 0.2597 0.5622 0.2015 0.062 Uiso 1 1 calc R U
C11 C 0.4515(6) 0.4448(4) 0.26515(15) 0.0517(7) Uani 1 1 d . .
H11 H 0.5692 0.5391 0.2819 0.062 Uiso 1 1 calc R U
C12 C -0.1127(6) 0.3325(4) 0.13778(14) 0.0466(7) Uani 1 1 d . .
H12 H -0.2497 0.2419 0.1288 0.056 Uiso 1 1 calc R U
C13 C -0.1152(5) 0.4594(4) 0.10258(14) 0.0447(7) Uani 1 1 d . .
H13 H 0.0245 0.5485 0.1115 0.054 Uiso 1 1 calc R U
C14 C -0.3138(5) 0.4761(3) 0.05065(13) 0.0408(6) Uani 1 1 d . .
C15 C -0.4458(5) 0.6188(3) 0.05380(13) 0.0404(6) Uani 1 1 d . .
C16 C -0.4042(6) 0.7408(4) 0.10821(15) 0.0479(7) Uani 1 1 d . .
H16 H -0.2816 0.7276 0.1412 0.057 Uiso 1 1 calc R U
C17 C -0.5371(6) 0.8738(4) 0.11320(16) 0.0548(8) Uani 1 1 d . .
H17 H -0.5039 0.9514 0.1490 0.066 Uiso 1 1 calc R U
C18 C -0.3655(5) 0.3573(4) -0.00326(13) 0.0398(6) Uani 1 1 d . .
C19 C -0.2267(6) 0.2153(4) -0.01159(15) 0.0499(7) Uani 1 1 d . .
H19 H -0.1007 0.1989 0.0201 0.060 Uiso 1 1 calc R U
C20 C -0.2729(7) 0.1041(4) -0.06416(17) 0.0566(8) Uani 1 1 d . .
H20 H -0.1795 0.0130 -0.0681 0.068 Uiso 1 1 calc R U
Cl1 Cl 0.48976(19) 0.70669(13) 0.42216(5) 0.0747(3) Uani 1 1 d . .
N1 N 1.0512(5) 0.3983(3) 0.40865(13) 0.0539(7) Uani 1 1 d . .
H1A H 1.1851 0.4780 0.4166 0.065 Uiso 1 1 calc R U
O1 O 1.0161(8) 0.8053(4) 0.3311(2) 0.1332(15) Uani 1 1 d D .
H1B H 0.8764 0.7981 0.3539 0.200 Uiso 1 1 d DR U
H1C H 1.1745 0.7949 0.3453 0.200 Uiso 1 1 d DR U
loop_
_atom_site_aniso_label
_atom_site_aniso_U_11
_atom_site_aniso_U_22
_atom_site_aniso_U_33
_atom_site_aniso_U_23
_atom_site_aniso_U_13
_atom_site_aniso_U_12
C1 0.060(2) 0.084(3) 0.0439(18) 0.0058(18) -0.0179(15) 0.0166(18)
C2 0.074(2) 0.075(3) 0.058(2) 0.0227(19) -0.0197(18) 0.0056(19)
C3 0.0579(18) 0.060(2) 0.0487(18) 0.0123(16) -0.0143(14) 0.0004(15)
C4 0.0394(14) 0.0482(16) 0.0353(14) 0.0020(12) -0.0014(11) 0.0106(12)
C5 0.0425(15) 0.0558(18) 0.0461(17) 0.0055(14) -0.0062(13) 0.0096(13)
C6 0.0377(13) 0.0473(16) 0.0337(14) 0.0050(12) -0.0016(11) 0.0090(11)
C7 0.0524(16) 0.0397(16) 0.0505(17) 0.0048(13) -0.0128(13) 0.0090(12)
C8 0.0517(16) 0.0449(17) 0.0512(18) 0.0013(14) -0.0143(13) 0.0021(13)
C9 0.0404(14) 0.0492(17) 0.0356(14) 0.0061(13) -0.0026(11) 0.0100(12)
C10 0.0580(18) 0.0464(18) 0.0494(17) 0.0157(14) -0.0102(14) 0.0035(14)
C11 0.0528(17) 0.0491(18) 0.0508(18) 0.0112(15) -0.0126(14) -0.0013(13)
C12 0.0431(15) 0.0506(18) 0.0454(17) 0.0095(14) -0.0078(12) 0.0031(12)
C13 0.0350(13) 0.0556(18) 0.0436(16) 0.0073(14) -0.0056(11) 0.0066(12)
C14 0.0327(13) 0.0490(17) 0.0419(15) 0.0136(13) -0.0022(11) 0.0057(11)
C15 0.0343(13) 0.0442(16) 0.0425(15) 0.0085(13) -0.0019(11) 0.0027(11)
C16 0.0406(14) 0.0549(18) 0.0459(17) 0.0042(14) -0.0064(12) 0.0020(12)
C17 0.0545(18) 0.0512(19) 0.0561(19) -0.0039(15) -0.0028(14) 0.0055(14)
C18 0.0333(13) 0.0473(16) 0.0401(15) 0.0114(13) -0.0003(11) 0.0063(11)
C19 0.0484(16) 0.0559(19) 0.0495(17) 0.0130(15) -0.0018(13) 0.0177(13)
C20 0.0587(18) 0.0497(19) 0.065(2) 0.0080(16) 0.0024(15) 0.0196(14)
Cl1 0.0666(5) 0.0773(7) 0.0723(6) -0.0040(5) -0.0135(4) -0.0068(4)
N1 0.0408(13) 0.0632(17) 0.0547(16) -0.0023(14) -0.0112(11) 0.0047(11)
O1 0.115(3) 0.103(3) 0.188(4) 0.059(3) 0.014(3) 0.011(2)
loop_
_atom_type_symbol
_atom_type_description
_atom_type_scat_dispersion_real
_atom_type_scat_dispersion_imag
_atom_type_scat_source
C C 0.0181 0.0091 'International Tables Vol C Tables 4.2.6.8 and 6.1.1.4'
H H 0.0000 0.0000 'International Tables Vol C Tables 4.2.6.8 and 6.1.1.4'
N N 0.0311 0.0180 'International Tables Vol C Tables 4.2.6.8 and 6.1.1.4'
O O 0.0492 0.0322 'International Tables Vol C Tables 4.2.6.8 and 6.1.1.4'
Cl Cl 0.3639 0.7018 'International Tables Vol C Tables 4.2.6.8 and 6.1.1.4'
loop_
_geom_angle_atom_site_label_1
_geom_angle_atom_site_label_2
_geom_angle_atom_site_label_3
_geom_angle
_geom_angle_site_symmetry_1
_geom_angle_site_symmetry_3
N1 C1 C2 118.3(3) . .
N1 C1 H1 120.8 . .
C2 C1 H1 120.8 . .
C1 C2 C3 119.6(3) . .
C1 C2 H2 120.2 . .
C3 C2 H2 120.2 . .
C4 C3 C2 121.5(3) . .
C4 C3 H3 119.3 . .
C2 C3 H3 119.3 . .
C3 C4 C5 116.6(3) . .
C3 C4 C6 123.3(3) . .
C5 C4 C6 120.1(3) . .
N1 C5 C4 120.6(3) . .
N1 C5 H5 119.7 . .
C4 C5 H5 119.7 . .
C11 C6 C7 117.7(2) . .
C11 C6 C4 120.9(3) . .
C7 C6 C4 121.4(3) . .
C8 C7 C6 120.6(3) . .
C8 C7 H7 119.7 . .
C6 C7 H7 119.7 . .
C7 C8 C9 122.0(3) . .
C7 C8 H8 119.0 . .
C9 C8 H8 119.0 . .
C10 C9 C8 116.9(3) . .
C10 C9 C12 122.6(3) . .
C8 C9 C12 120.5(3) . .
C11 C10 C9 121.5(3) . .
C11 C10 H10 119.3 . .
C9 C10 H10 119.3 . .
C10 C11 C6 121.4(3) . .
C10 C11 H11 119.3 . .
C6 C11 H11 119.3 . .
C13 C12 C9 126.0(3) . .
C13 C12 H12 117.0 . .
C9 C12 H12 117.0 . .
C12 C13 C14 127.5(3) . .
C12 C13 H13 116.2 . .
C14 C13 H13 116.2 . .
C18 C14 C15 119.4(2) . .
C18 C14 C13 121.6(2) . .
C15 C14 C13 118.8(3) . .
C14 C15 C16 121.4(2) . .
C14 C15 C18 120.7(3) . 2_465
C16 C15 C18 117.9(3) . 2_465
C17 C16 C15 122.1(3) . .
C17 C16 H16 119.0 . .
C15 C16 H16 119.0 . .
C16 C17 C20 120.1(3) . 2_465
C16 C17 H17 119.9 . .
C20 C17 H17 119.9 2_465 .
C14 C18 C19 122.5(2) . .
C14 C18 C15 119.9(2) . 2_465
C19 C18 C15 117.6(3) . 2_465
C20 C19 C18 122.1(3) . .
C20 C19 H19 119.0 . .
C18 C19 H19 119.0 . .
C19 C20 C17 120.2(3) . 2_465
C19 C20 H20 119.9 . .
C17 C20 H20 119.9 2_465 .
C1 N1 C5 123.4(3) . .
C1 N1 H1A 118.3 . .
C5 N1 H1A 118.3 . .
H1B O1 H1C 123.6 . .
loop_
_geom_bond_atom_site_label_1
_geom_bond_atom_site_label_2
_geom_bond_distance
_geom_bond_site_symmetry_2
C1 N1 1.331(4) .
C1 C2 1.367(5) .
C1 H1 0.9300 .
C2 C3 1.380(4) .
C2 H2 0.9300 .
C3 C4 1.379(4) .
C3 H3 0.9300 .
C4 C5 1.382(4) .
C4 C6 1.490(4) .
C5 N1 1.338(4) .
C5 H5 0.9300 .
C6 C11 1.389(4) .
C6 C7 1.390(4) .
C7 C8 1.379(4) .
C7 H7 0.9300 .
C8 C9 1.391(4) .
C8 H8 0.9300 .
C9 C10 1.389(4) .
C9 C12 1.467(4) .
C10 C11 1.375(4) .
C10 H10 0.9300 .
C11 H11 0.9300 .
C12 C13 1.319(4) .
C12 H12 0.9300 .
C13 C14 1.475(4) .
C13 H13 0.9300 .
C14 C18 1.412(4) .
C14 C15 1.413(4) .
C15 C16 1.432(4) .
C15 C18 1.437(4) 2_465
C16 C17 1.346(4) .
C16 H16 0.9300 .
C17 C20 1.414(5) 2_465
C17 H17 0.9300 .
C18 C19 1.430(4) .
C18 C15 1.437(4) 2_465
C19 C20 1.353(5) .
C19 H19 0.9300 .
C20 C17 1.414(5) 2_465
C20 H20 0.9300 .
N1 H1A 0.8600 .
O1 H1B 0.8510 .
O1 H1C 0.8523 .
