#------------------------------------------------------------------------------
#$Date: 2019-11-24 09:12:54 +0200 (Sun, 24 Nov 2019) $
#$Revision: 237424 $
#$URL: file:///home/coder/svn-repositories/cod/cif/7/23/71/7237113.cif $
#------------------------------------------------------------------------------
#
# This file is available in the Crystallography Open Database (COD),
# http://www.crystallography.net/
#
# All data on this site have been placed in the public domain by the
# contributors.
#
data_7237113
loop_
_publ_author_name
'Wang, Jian'
'Wang, Lin-Lin'
'Kovnir, Kirill'
_publ_section_title
;
 Phonon glass behavior beyond traditional cage structures: synthesis,
 crystal and electronic structure, and properties of KMg4Sb3
;
_journal_issue                   11
_journal_name_full               'Journal of Materials Chemistry A'
_journal_page_first              4759
_journal_paper_doi               10.1039/C8TA00553B
_journal_volume                  6
_journal_year                    2018
_chemical_formula_sum            'Cs2 Mg5 Sb4'
_chemical_formula_weight         874.37
_space_group_crystal_system      orthorhombic
_space_group_IT_number           63
_space_group_name_Hall           '-C 2c 2'
_space_group_name_H-M_alt        'C m c m'
_audit_creation_method           SHELXL-2014/6
_audit_update_record
;
2017-11-15 deposited with the CCDC.
2018-02-19 downloaded from the CCDC.
;
_cell_angle_alpha                90
_cell_angle_beta                 90
_cell_angle_gamma                90
_cell_formula_units_Z            4
_cell_length_a                   13.124(3)
_cell_length_b                   7.8217(16)
_cell_length_c                   13.235(3)
_cell_measurement_reflns_used    712
_cell_measurement_temperature    90(2)
_cell_measurement_theta_max      25.673
_cell_measurement_theta_min      3.032
_cell_volume                     1358.6(5)
_computing_cell_refinement       'SMART V5.625 (Bruker, 2000)'
_computing_data_collection       'SMART V5.625 (Bruker, 2000)'
_computing_data_reduction        'SAINT V6.32 (Bruker, 2001)'
_computing_publication_material  'SHELXL-97 (Sheldrick, 1997)'
_computing_structure_refinement  'SHELXL-97 (Sheldrick, 1997)'
_computing_structure_solution    'SHELXS-97 (Sheldrick, 1990)'
_diffrn_ambient_temperature      90(2)
_diffrn_measured_fraction_theta_full 1.000
_diffrn_measured_fraction_theta_max 1.000
_diffrn_measurement_device_type  'Bruker APEX II CCD area-detector'
_diffrn_measurement_method       'profile data from \w scans'
_diffrn_radiation_type           MoK\a
_diffrn_radiation_wavelength     0.71073
_diffrn_reflns_av_R_equivalents  0.1454
_diffrn_reflns_av_unetI/netI     0.0689
_diffrn_reflns_Laue_measured_fraction_full 1.000
_diffrn_reflns_Laue_measured_fraction_max 1.000
_diffrn_reflns_limit_h_max       16
_diffrn_reflns_limit_h_min       -16
_diffrn_reflns_limit_k_max       9
_diffrn_reflns_limit_k_min       -9
_diffrn_reflns_limit_l_max       16
_diffrn_reflns_limit_l_min       -16
_diffrn_reflns_number            7557
_diffrn_reflns_point_group_measured_fraction_full 1.000
_diffrn_reflns_point_group_measured_fraction_max 1.000
_diffrn_reflns_theta_full        25.242
_diffrn_reflns_theta_max         25.673
_diffrn_reflns_theta_min         3.032
_diffrn_source                   'fine-focus sealed tube'
_exptl_absorpt_coefficient_mu    13.327
_exptl_absorpt_correction_type   multi-scan
_exptl_absorpt_process_details   'SADABS v2.03 (Bruker, 2003)'
_exptl_crystal_colour            red
_exptl_crystal_density_diffrn    4.275
_exptl_crystal_description       Block
_exptl_crystal_F_000             1496
_exptl_crystal_size_max          0.020
_exptl_crystal_size_mid          0.010
_exptl_crystal_size_min          0.010
_exptl_transmission_factor_max   0.835
_exptl_transmission_factor_min   0.711
_refine_diff_density_max         2.131
_refine_diff_density_min         -2.918
_refine_diff_density_rms         0.481
_refine_ls_extinction_method     none
_refine_ls_goodness_of_fit_ref   1.034
_refine_ls_hydrogen_treatment    undef
_refine_ls_matrix_type           full
_refine_ls_number_parameters     36
_refine_ls_number_reflns         712
_refine_ls_number_restraints     0
_refine_ls_restrained_S_all      1.034
_refine_ls_R_factor_all          0.0700
_refine_ls_R_factor_gt           0.0447
_refine_ls_shift/su_max          0.000
_refine_ls_shift/su_mean         0.000
_refine_ls_structure_factor_coef Fsqd
_refine_ls_weighting_details
'w=1/[\s^2^(Fo^2^)+(0.0428P)^2^+53.7168P] where P=(Fo^2^+2Fc^2^)/3'
_refine_ls_weighting_scheme      calc
_refine_ls_wR_factor_gt          0.0967
_refine_ls_wR_factor_ref         0.1124
_reflns_Friedel_coverage         0.000
_reflns_number_gt                527
_reflns_number_total             712
_reflns_threshold_expression     'I > 2\s(I)'
_cod_data_source_file            c8ta00553b2.cif
_cod_data_source_block           x1_CCDC1
_cod_database_code               7237113
_shelx_space_group_comment
;
The symmetry employed for this shelxl refinement is uniquely defined
by the following loop, which should always be used as a source of
symmetry information in preference to the above space-group names.
They are only intended as comments.
;
_shelx_estimated_absorpt_t_min   0.776
_shelx_estimated_absorpt_t_max   0.878
_shelxl_version_number           2014/6
_shelx_res_file
;
TITL x1 in Cmcm
CELL 0.71073  13.12420   7.82170  13.23510  90.0000  90.0000  90.0000
ZERR   4.00   0.00280   0.00160   0.00280   0.0000   0.0000   0.0000
LATT  7
SYMM -X, -Y, 0.5+Z
SYMM -X, Y, 0.5-Z
SYMM X, -Y, -Z
SFAC MG SB CS
UNIT 20 16 8
TEMP -183.000
SIZE 0.01 0.01 0.02

L.S. 14
BOND
acta
FMAP 2
PLAN -5

WGHT    0.042800   53.716801
SWAT  151.581833  228.4992
FVAR       0.03961
CS1   3    0.220692    0.000000    0.000000    10.50000    0.01249    0.00926 =
         0.01048    0.00020    0.00000    0.00000
MG1   1    0.139502    0.376008    0.250000    10.50000    0.01223    0.00814 =
         0.01088    0.00000    0.00000   -0.00230
MG2   1    0.000000    0.644531    0.111732    10.50000    0.01340    0.01470 =
         0.00514   -0.00167    0.00000    0.00000
MG3   1    0.000000    0.005604    0.250000    10.25000    0.01417    0.00987 =
         0.01362    0.00000    0.00000    0.00000
SB1   2    0.341275    0.248956    0.250000    10.50000    0.00865    0.00853 =
         0.00662    0.00000    0.00000    0.00020
SB2   2    0.000000    0.269903    0.094782    10.50000    0.00966    0.00813 =
         0.00760    0.00079    0.00000    0.00000
HKLF 4

REM  x1 in Cmcm
REM R1 =  0.0447 for     527 Fo > 4sig(Fo)  and  0.0700 for all     712 data
REM     36 parameters refined using      0 restraints

END

WGHT      0.0429     53.6009

REM Highest difference peak  2.131,  deepest hole -2.918,  1-sigma level  0.481
Q1    1   0.3586  0.0625  0.2500  10.50000  0.05    2.13
Q2    1   0.0000 -0.1687  0.0312  10.50000  0.05    1.63
Q3    1   0.0000  0.2103  0.2500  10.25000  0.05    1.60
Q4    1   0.3900  0.2869  0.0877  11.00000  0.05    1.58
Q5    1   0.0857  0.4929 -0.0829  11.00000  0.05    1.57
;
_shelx_res_checksum              58581
_shelx_hkl_file
;
   0   2   0  129.05   13.40
   0  -2   0  143.13   14.54
   0   2   0  135.10   11.81
   0   2   0  128.91   13.74
   0  -4   0  804.39   74.68
   0   4   0  831.70   73.57
   0   4   0  825.62   73.24
   0   6   0    2.69    5.49
   0   6   0    3.75    4.97
   0  -6   0    9.60    7.07
   0   8   0  455.49   47.64
  -1   1   0   -0.60    1.44
  -1   1   0   -2.62    1.80
   1   1   0    2.03    1.84
   1   1   0    0.09    1.80
  -1   1   0    2.50    1.39
  -1   1   0    0.56    1.80
  -1  -1   0    2.81    2.36
   1   1   0    1.61    1.36
  -1   3   0  182.13   18.27
   1   3   0  153.18   15.18
  -1  -3   0  112.16   16.18
  -1   3   0  134.33   12.52
   1  -3   0  147.03   17.21
   1   3   0  127.16   15.73
  -1   3   0  131.96   15.42
   1   3   0  138.75   12.43
   1  -5   0   -0.76    3.58
  -1   5   0   15.52    6.48
   1   5   0    5.72    4.42
  -1   5   0    4.24    4.23
   1   5   0    8.56    5.05
  -1  -5   0   -0.22    4.18
   1  -7   0   16.06    9.39
  -1   7   0   26.13    9.89
  -1  -7   0   44.14   12.02
  -1   7   0   37.84   10.34
   1   7   0   23.90   10.34
   1   7   0   45.70   10.85
  -1  -9   0    3.80    7.24
   1   9   0   37.69   13.05
  -1   9   0   24.68   12.05
   1   9   0   20.37   10.00
   1  -9   0   -4.67    7.22
  -1   9   0   17.37    9.05
   2   0   0    6.04    1.76
   2   0   0    3.03    2.00
  -2   0   0    3.73    1.95
  -2   0   0    5.83    2.67
  -2   2   0  387.09   34.09
  -2   2   0  402.99   34.43
  -2   2   0  386.36   35.34
   2   2   0  405.97   34.12
  -2  -2   0  353.31   35.07
   2   2   0  362.47   35.00
  -2  -2   0  408.99   35.48
  -2   2   0  375.88   35.47
  -2  -4   0   35.04    8.19
  -2   4   0   42.05    8.94
   2  -4   0   47.30    5.82
   2   4   0   24.74    7.13
   2   4   0   49.05    8.85
  -2   4   0   25.93    6.64
   2  -4   0   28.10    8.00
   2   4   0   47.48    5.40
  -2   6   0  111.89   15.93
   2   6   0  100.11   15.96
   2   6   0   77.07   14.95
  -2   6   0   78.89   14.59
  -2  -6   0   83.76   16.24
   2  -6   0   65.07   15.03
   2   8   0   18.77    9.75
  -2   8   0   17.01    9.07
  -2  -8   0   16.24    9.83
  -2   8   0    8.83    6.78
   2   8   0   27.57   10.94
  -2  -8   0   39.65   12.11
   2  -8   0    1.93    8.04
  -3  -1   0   54.08    8.79
  -3  -1   0   74.63    8.92
   3   1   0   68.47    8.53
  -3   1   0   75.55    9.52
   3  -1   0   52.74    8.54
  -3   1   0   78.20    7.74
   3   1   0   56.46    8.41
  -3   1   0   95.70    9.58
   3   3   0    2.01    2.48
  -3   3   0   -0.55    3.69
  -3   3   0   -1.49    3.08
  -3  -3   0    0.92    3.54
  -3  -3   0   -0.11    3.23
   3  -3   0    0.04    2.44
   3   3   0    4.00    4.04
  -3   3   0   -0.50    2.60
   3  -5   0  122.83   11.92
  -3   5   0  105.21   15.14
  -3  -5   0  119.82   18.08
   3   5   0  117.91   17.48
   3  -5   0   94.77   17.18
  -3   5   0  153.31   19.45
   3   5   0  105.51   11.40
  -3  -5   0  118.69   17.84
  -3  -7   0    3.25    6.71
   3  -7   0   -3.14    5.64
  -3  -7   0    4.58    6.12
   3   7   0   -0.41    6.59
  -3   7   0   13.22    8.18
  -3   7   0   -7.45    5.98
  -3  -9   0   27.95   12.27
  -3   9   0   56.56   14.64
  -3  -9   0   40.07   14.01
  -3   9   0   51.60   13.60
   3  -9   0   60.04   17.85
   3   9   0   58.27   15.47
   4   0   0  270.48   23.61
   4   0   0  265.15   25.22
  -4   0   0  250.97   25.22
  -4   0   0  262.16   24.22
  -4   2   0   48.25    8.09
   4   2   0   54.43    8.02
   4   2   0   43.60    7.69
   4  -2   0   27.76    6.78
  -4  -2   0   40.81    8.01
  -4   2   0   42.54    8.18
  -4   2   0   48.98    6.44
  -4  -2   0   72.82    9.20
  -4   4   0  158.90   17.23
  -4  -4   0  142.79   18.97
   4   4   0  144.19   14.93
   4   4   0  171.85   19.79
  -4   4   0  146.65   19.66
   4  -4   0  150.13   20.06
  -4  -4   0  133.46   18.58
   4  -4   0  120.38   15.81
   4  -6   0   70.16   14.55
  -4   6   0   89.40   15.62
   4   6   0   57.35   13.19
  -4  -6   0   73.15   13.86
  -4  -6   0   59.40   13.64
  -4   6   0   72.62   12.69
  -4   8   0   12.94    8.12
  -4  -8   0   33.34   11.71
   4  -8   0   40.32   13.96
   4   8   0   21.83   10.27
  -4   8   0   12.76    7.87
  -4  -8   0   10.69    8.84
  -5  -1   0   97.37   12.72
   5   1   0   89.04   12.20
   5   1   0   84.82   10.85
  -5  -1   0  106.18   12.17
  -5   1   0   89.22   11.45
   5  -1   0   89.11   10.09
   5  -1   0   70.02   11.59
  -5   1   0   85.15   12.53
  -5   3   0  236.05   28.24
  -5  -3   0  256.92   25.40
   5   3   0  260.38   24.99
  -5  -3   0  243.64   26.07
  -5   3   0  260.42   23.87
   5   3   0  248.41   25.53
  -5   3   0  245.59   25.87
   5  -3   0  260.68   25.11
  -5  -5   0   22.79    8.16
  -5   5   0    8.73    5.07
   5   5   0    3.33    3.73
   5   5   0   27.41    8.00
  -5  -5   0   12.72    6.70
   5  -5   0    7.98    5.91
  -5   5   0    2.54    5.27
   5  -5   0    6.58    3.66
   5   7   0  145.68   22.27
  -5  -7   0  127.02   21.41
  -5   7   0  107.62   19.80
  -5   7   0  102.38   17.35
  -5  -7   0  145.36   22.92
   5  -7   0  116.72   21.42
  -5   9   0   -2.43    6.08
  -5  -9   0   -5.70    7.03
  -5  -9   0    8.48    9.23
  -5   9   0    3.39    8.41
   5   9   0    8.35    9.92
   5  -9   0   -2.67    8.84
  -6   0   0  436.05   42.55
  -6   0   0  456.67   40.99
   6   0   0  441.46   40.19
   6   0   0  483.63   42.73
  -6  -2   0  637.16   56.59
  -6   2   0  612.99   56.46
   6  -2   0  626.98   57.01
  -6   2   0  592.98   54.63
  -6  -2   0  613.94   57.39
   6   2   0  664.34   56.23
  -6   2   0  609.65   57.60
   6   2   0  637.81   56.88
  -6   4   0  123.40   18.05
  -6  -4   0  163.64   19.28
   6  -4   0  126.63   16.81
  -6  -4   0  150.84   20.79
   6   4   0  116.80   16.22
   6   4   0  120.53   18.11
  -6   4   0  124.83   15.33
  -6   4   0  130.44   19.27
  -6  -6   0  219.46   29.87
  -6   6   0  256.09   28.59
   6  -6   0  247.49   33.75
   6   6   0  346.45   35.58
  -6   6   0  251.91   32.57
  -6  -6   0  200.52   29.72
   6   8   0   63.04   14.70
   6  -8   0   37.18   14.77
  -6  -8   0   64.62   15.35
  -6   8   0   71.38   15.99
  -6  -8   0   48.82   14.82
  -7   1   0  199.38   20.65
   7   1   0  195.86   20.08
   7   1   0  236.03   26.22
  -7  -1   0  199.92   20.56
   7  -1   0  176.98   23.14
  -7   1   0  220.78   25.13
   7  -1   0  195.82   19.28
  -7  -1   0  250.54   25.87
  -7   3   0    2.96    3.43
  -7  -3   0    3.84    5.07
   7   3   0    8.19    4.80
  -7   3   0   12.80    5.52
  -7   3   0   11.27    6.20
   7   3   0    4.99    4.25
   7  -3   0    1.22    3.48
  -7  -3   0    0.93    3.96
  -7   5   0  128.83   20.54
   7  -5   0  116.89   17.41
  -7  -5   0  127.61   18.87
  -7   5   0  116.09   20.79
  -7   5   0  138.14   17.28
  -7  -5   0  151.74   22.30
   7   5   0  123.91   17.10
   7   5   0  151.68   21.45
   7   7   0   -0.28    6.43
  -7  -7   0    7.27    5.96
  -7   7   0   15.67    9.09
  -7  -7   0    2.41    7.25
   7  -7   0    6.07    9.57
  -8   0   0  204.44   20.54
   8   0   0  214.54   25.76
   8   0   0  198.65   19.64
  -8   0   0  192.00   24.49
  -8   2   0   39.06   10.24
  -8  -2   0   38.55    8.43
  -8  -2   0   41.85   10.39
  -8   2   0   48.09    9.43
   8   2   0   25.52    8.00
   8   2   0   50.66    9.03
   8  -2   0   48.91    7.54
   8  -2   0   42.71   10.06
   8   4   0   16.75    7.08
  -8   4   0   34.17    9.88
  -8  -4   0   23.63    8.07
   8   4   0   36.83    9.54
   8  -4   0   29.20    8.60
  -8   4   0   34.73   10.39
  -8   4   0   31.60    6.91
  -8  -4   0   27.16    8.17
  -8  -6   0    6.70    6.88
   8   6   0   10.93    7.57
   8  -6   0   11.09    8.52
  -8  -6   0    4.73    7.91
  -8   6   0    7.97    8.52
   8  -8   0   16.66   10.98
  -8  -8   0    5.00    9.17
   8   8   0   13.46    9.72
  -8   8   0   23.47   11.62
  -8  -8   0    2.48    9.58
   9  -1   0   75.62   13.83
   9   1   0   97.05   12.21
  -9   1   0   83.60   15.25
  -9  -1   0   76.58   14.78
   9   1   0   70.30   13.52
  -9  -1   0   69.89   11.29
  -9   1   0   60.98   11.16
   9  -1   0   78.04   10.07
  -9  -3   0  224.04   26.52
  -9  -3   0  225.34   28.46
   9   3   0  252.11   27.36
   9  -3   0  161.79   26.02
  -9   3   0  232.21   27.45
  -9   3   0  222.71   29.44
   9   3   0  226.91   27.94
   9  -5   0   23.09    8.08
   9   5   0   18.02    8.25
  -9  -5   0   10.19    7.48
  -9   5   0   41.55   12.56
   9   5   0   31.81    9.44
  -9  -5   0   11.09    8.32
  -9   5   0   31.05   10.49
  -9   7   0  105.66   21.79
   9  -7   0  123.77   25.14
   9   7   0  156.36   23.86
  -9  -7   0  117.94   23.02
 -10   0   0   22.63    8.58
  10   0   0   13.07    6.76
 -10   0   0   24.52    6.70
  10   0   0   40.29    7.01
  10   2   0    2.66    4.29
 -10   2   0    1.75    5.48
 -10  -2   0   -0.05    5.48
  10   2   0    4.75    5.07
 -10   2   0   -1.45    3.58
  10  -2   0    7.71    6.25
 -10  -2   0    5.40    4.86
 -10  -4   0   10.04    6.92
  10   4   0    3.22    5.55
  10   4   0    5.83    6.03
 -10   4   0   -5.75    5.59
 -10   4   0   12.45    7.55
  10  -4   0   14.40    7.85
 -10  -4   0    6.12    6.38
 -10   6   0   22.75   10.88
 -10   6   0   25.35   10.54
  10   6   0   21.17    8.82
 -10  -6   0    8.72    8.17
 -11  -1   0   58.44   14.22
  11  -1   0   43.73   12.26
  11   1   0   60.98   10.45
 -11   1   0   69.63   11.80
 -11  -1   0   64.14   11.16
  11   1   0   67.63   15.52
 -11   1   0   51.27   13.20
 -11   3   0   13.34    7.22
  11   3   0   11.12    7.07
 -11   3   0    2.27    6.93
  11  -3   0   20.60    9.44
 -11  -3   0    9.31    7.93
  11   3   0    4.52    5.79
  11  -5   0  100.75   18.83
 -11   5   0  132.29   21.41
  11   5   0   98.33   18.14
  11   5   0  110.40   19.88
 -11   5   0  116.49   22.75
 -11  -5   0  149.78   23.60
 -12   0   0  134.93   21.56
  12   0   0  114.96   21.92
 -12   0   0  108.89   18.64
 -12  -2   0  380.76   42.89
  12  -2   0  312.38   39.86
  12   2   0  261.45   38.35
 -12   2   0  301.65   35.24
 -12   2   0  328.53   40.30
  12   4   0   67.50   15.26
 -12   4   0   53.60   12.77
 -12   4   0   37.95   14.53
  12  -4   0   35.41   12.92
 -12  -4   0   76.89   16.68
  12   4   0   51.23   12.34
  12   6   0  143.88   24.25
 -12   6   0  153.86   27.72
 -12   6   0  131.71   22.90
 -12  -6   0   98.45   23.33
 -13   1   0    3.02    7.57
  13   1   0   10.80    8.39
  13  -1   0   -0.75    4.68
 -13  -1   0    8.28    8.85
  13  -3   0  102.16   18.94
 -13   3   0   67.50   14.68
  13   3   0   65.03   15.73
 -13   3   0   83.42   18.43
 -13  -3   0  113.36   21.58
  13   5   0   -2.18    7.72
 -13   5   0    3.69    8.38
  13  -5   0   -0.77    7.79
  13   5   0    7.79    7.96
 -13   5   0    0.11    8.16
 -13  -5   0    2.93    8.28
 -14   0   0  240.65   33.94
  14   0   0  219.35   32.86
 -14  -2   0    4.46    8.34
  14   2   0   -6.30    4.62
  14  -2   0   10.12    8.58
 -14   2   0   -5.28    5.56
 -14  -4   0   88.19   20.80
  14  -4   0   82.23   18.85
 -14   4   0  120.90   23.82
  14   4   0   64.43   17.11
 -15  -1   0    9.56    9.39
  15   1   0    1.43    6.63
 -15   1   0    7.67    9.13
  15  -1   0    8.87    8.08
  15  -3   0    3.90    9.02
 -15  -3   0    6.93   10.01
  15   3   0   -2.10    6.71
 -15   3   0   -8.07    6.65
  16   0   0    8.96    8.65
 -16   0   0    7.09   10.09
   0   0  -1    0.27    0.90
   0   0  -1   -0.58    0.80
   0   0   1   -0.58    0.83
   0   0  -1    1.78    1.09
   0   2   1    8.89    3.87
   0  -2   1    8.35    3.59
   0  -2  -1   13.42    4.97
   0   2  -1    7.90    3.93
   0   2  -1    9.94    3.63
   0   2  -1    9.70    2.67
   0   2   1    6.91    3.88
   0  -4   1   13.21    5.46
   0   4   1    8.91    4.91
   0  -4  -1   21.11    6.91
   0   4   1    5.06    4.19
   0   4  -1    7.73    2.52
   0   4  -1   13.31    4.96
   0   4  -1   10.78    4.78
   0   6  -1    0.09    5.11
   0   6  -1    1.27    4.64
   0   6   1    7.27    5.70
   0  -6  -1    2.86    5.83
   0   6   1    8.43    5.87
   0  -6   1    4.54    5.97
   0   8   1    8.61    7.70
   0   8   1   26.18   10.51
   0   8  -1   14.10    8.26
   0   8  -1    5.21    7.81
   0  -8   1   17.69    9.48
   0  -8  -1   15.71    9.75
   1  -1  -1    0.62    1.39
  -1   1  -1    0.91    2.21
  -1   1  -1    1.05    1.85
   1   1   1   -2.94    1.58
  -1   1  -1   -0.77    1.91
   1  -1  -1   -1.04    2.15
  -1  -1   1   -0.71    1.58
   1   1   1   -0.82    1.84
  -1   1  -1   -0.96    1.64
  -1  -1   1    0.94    2.37
  -1  -1  -1    0.75    2.45
  -1   1   1    0.20    1.54
   1   1  -1   -0.22    1.64
  -1  -1  -1    0.50    1.34
  -1   1   1   -0.50    2.08
   1   1  -1    0.55    1.75
   1   3   1    2.77    3.13
  -1  -3   1    1.57    3.45
   1   3   1    0.93    3.44
  -1   3  -1    2.15    3.22
  -1   3  -1    3.26    2.08
   1  -3  -1    2.37    1.27
   1  -3  -1   -4.85    3.24
  -1   3  -1    1.88    3.20
   1  -3   1    2.38    3.33
   1   3  -1   -1.60    1.79
  -1  -3  -1    8.10    4.64
   1   3  -1    3.54    3.60
   1   3  -1   -0.38    3.38
  -1   3   1   -1.66    2.54
  -1   3   1    0.84    3.22
   1   5   1   -1.89    3.21
  -1   5  -1    2.03    4.28
  -1   5  -1    0.98    3.61
   1   5   1    1.65    4.30
   1  -5  -1   -1.14    4.31
  -1   5  -1    3.43    2.14
  -1  -5   1    1.51    3.66
  -1   5   1    5.95    4.11
   1   5  -1   -3.24    3.39
  -1   5   1    4.06    5.01
   1   5  -1   -5.42    3.19
  -1  -5  -1    9.60    6.63
   1  -5   1    0.67    4.05
   1   5  -1    0.88    1.71
   1   7   1   -6.54    4.37
   1  -7  -1    2.16    7.58
  -1   7  -1   -0.64    5.57
  -1  -7   1   -0.06    6.01
  -1   7  -1   10.47    6.73
   1   7   1   -3.91    5.54
   1   7  -1   -3.24    5.66
   1  -7   1    1.69    6.39
  -1   7   1   -2.62    5.16
  -1   7   1   -0.91    5.31
   1   7  -1   -6.56    4.36
  -1  -7  -1    1.50    6.65
  -1   9  -1    1.62    7.65
   1   9   1   -5.26    6.89
   1  -9  -1   -2.31    6.59
  -1  -9   1   13.64   10.18
  -1   9  -1    4.29    8.54
   1   9   1    1.99    6.61
  -1  -9   1    2.62    7.87
   1   9  -1    1.92    9.00
   1  -9   1   -5.22    7.27
  -1  -9  -1    4.38    9.51
  -1   9   1    5.58    7.54
  -1   9   1    4.11    6.73
   2   0  -1   -0.99    0.87
  -2   0  -1    2.63    2.63
   2   0   1    0.88    2.10
  -2   0  -1   -0.54    1.90
  -2   0   1   -0.65    2.40
   2   0  -1   -0.46    1.87
  -2   0  -1    0.23    1.17
  -2   0   1    4.73    2.30
  -2   2  -1    3.24    3.23
  -2  -2   1   -3.87    3.06
  -2   2  -1    3.47    2.35
  -2   2  -1   -3.23    2.41
  -2   2  -1    0.03    3.06
  -2  -2   1    1.48    2.91
   2   2   1   -2.13    2.32
   2   2   1   -2.19    2.65
   2  -2  -1    0.06    1.85
   2  -2  -1   -2.52    2.99
   2   2   1    1.65    2.45
  -2   2   1    0.47    2.93
  -2   2   1    4.35    2.52
   2   2  -1    0.66    2.42
   2   2  -1   -0.59    2.37
  -2   2   1   -3.49    3.00
  -2  -2  -1   -5.66    2.72
   2   4   1    5.61    2.03
   2  -4  -1    9.88    5.72
  -2   4  -1    8.48    4.89
   2  -4  -1    5.22    2.08
  -2  -4   1    7.99    4.26
  -2  -4   1   -2.00    3.56
  -2   4  -1    5.85    4.40
  -2   4  -1    4.48    2.32
   2   4   1    2.81    3.51
   2   4   1    1.70    4.36
  -2   4   1    4.31    4.51
   2   4  -1    6.39    4.53
  -2  -4  -1    0.33    4.20
  -2   4   1   -0.05    3.26
   2  -4   1    6.89    4.75
   2   4  -1    8.35    2.92
  -2   6  -1   18.77    7.75
  -2  -6   1   34.42    9.39
   2   6   1   22.14    7.99
  -2  -6   1   24.85    8.94
   2   6   1   20.41    8.11
   2  -6  -1   37.18   10.84
  -2   6  -1   28.61    8.38
  -2   6   1   15.79    7.56
  -2  -6  -1    6.90    7.15
   2  -6   1   32.29    9.77
   2   6  -1    9.50    6.75
  -2   6   1   29.82    8.15
  -2   8  -1    6.73    7.22
   2   8   1    9.75    7.69
  -2  -8   1    1.16    6.79
  -2  -8   1   19.21   10.17
  -2   8  -1   -2.30    6.52
   2  -8  -1   11.57    8.59
   2   8   1   22.64    9.86
  -2   8   1   25.58    9.54
   2  -8   1   29.63   11.87
  -2  -8  -1   20.27   11.28
  -2   8   1    5.15    7.46
   2   8  -1   13.27    8.63
  -3  -1   1  321.05   29.18
  -3   1  -1  317.72   29.50
  -3   1  -1  317.15   28.63
   3  -1  -1  322.06   29.09
  -3  -1   1  324.74   29.73
  -3   1  -1  330.04   28.82
   3   1   1  320.19   29.05
  -3   1  -1  316.46   29.06
  -3  -1  -1  312.28   28.16
  -3   1   1  308.53   29.35
  -3   1   1  326.89   27.45
  -3  -1  -1  308.69   28.94
  -3   1   1  312.13   29.61
   3   1  -1  308.24   28.43
   3   1  -1  324.57   29.24
  -3  -1  -1  329.19   29.94
  -3   3  -1  370.57   35.65
  -3   3  -1  357.64   34.29
   3   3   1  391.11   33.69
   3  -3  -1  385.96   36.44
   3  -3  -1  375.14   33.66
   3   3   1  352.32   35.35
  -3   3  -1  387.74   35.72
  -3  -3   1  377.14   35.19
  -3   3  -1  373.92   33.90
   3   3   1  368.71   34.58
  -3  -3   1  371.23   35.71
   3   3  -1  400.16   35.26
  -3   3   1  377.44   33.97
  -3  -3  -1  343.32   35.77
  -3   3   1  380.53   35.87
   3   3  -1  376.37   34.09
   3  -5  -1  270.03   25.15
   3  -5  -1  322.06   31.20
   3   5   1  275.01   24.83
  -3   5  -1  279.34   25.90
   3   5   1  307.65   29.39
   3   5   1  261.59   28.42
  -3  -5   1  289.61   29.37
  -3   5  -1  286.44   28.25
  -3  -5   1  268.75   32.47
  -3   5  -1  277.07   31.74
  -3   5   1  297.11   28.09
  -3  -5  -1  257.71   32.36
   3   5  -1  245.19   30.50
   3  -5   1  261.01   32.29
   3   5  -1  273.09   25.67
  -3   5   1  278.70   31.74
  -3   7  -1   73.35   15.08
  -3   7  -1   88.72   15.36
  -3  -7   1  116.69   18.02
   3   7   1   90.79   16.48
   3  -7  -1   79.09   18.35
  -3  -7   1   73.17   16.26
   3   7   1   78.54   15.95
   3  -7   1   94.37   18.60
  -3   7   1  128.75   18.00
   3   7  -1   55.84   14.09
  -3  -7  -1   93.43   18.11
  -3   7   1   82.85   16.43
   3   9   1   40.69   13.03
  -3   9  -1   37.12   11.99
  -3  -9   1   25.66   11.13
  -3   9  -1   21.15   10.33
   3  -9  -1   55.20   16.97
  -3  -9   1   45.21   14.41
  -3   9   1   35.17   12.23
  -3  -9  -1   40.33   14.88
  -3   9   1   16.94   10.50
   3  -9   1   41.30   14.28
   3   9  -1   26.83   11.51
  -3  -9  -1   30.61   12.99
   4   0  -1    0.21    2.78
   4   0   1   -2.55    2.40
  -4   0  -1    0.06    2.45
  -4   0  -1   -0.37    2.96
  -4   0   1    1.35    3.31
  -4   0  -1   -0.03    1.97
  -4   0   1   -1.29    3.05
   4   0  -1   -0.30    1.59
   4   2   1    6.34    3.90
   4   2   1   15.79    4.49
  -4   2  -1    9.90    3.78
  -4  -2   1   10.42    4.80
  -4   2  -1    9.32    3.54
   4  -2  -1    7.18    3.36
  -4   2  -1    4.04    3.78
  -4  -2   1    7.13    4.49
  -4   2  -1    4.22    3.90
  -4   2   1    7.95    2.70
  -4  -2  -1   15.22    5.54
  -4   2   1    6.10    4.72
  -4  -2  -1    8.52    3.76
   4   2  -1    6.48    3.34
  -4   2   1    0.57    3.69
   4   2  -1    6.20    3.80
   4  -4  -1    1.26    4.37
   4   4   1    2.41    4.70
  -4  -4   1   18.45    6.20
  -4   4  -1   11.81    4.26
  -4   4  -1   15.27    5.06
  -4   4  -1    2.16    4.79
  -4   4  -1   10.19    5.64
   4  -4  -1   12.10    3.73
   4   4   1    4.40    2.63
  -4  -4   1   10.73    5.34
  -4  -4  -1    0.52    3.87
  -4   4   1    1.93    3.17
  -4   4   1   12.14    5.52
  -4  -4  -1    5.01    5.23
   4   4  -1    6.52    4.24
   4   4  -1    1.54    3.32
  -4   6  -1   28.93    9.50
  -4  -6   1   15.60    8.61
   4   6   1   27.74    9.33
  -4   6  -1   34.25    8.73
   4  -6  -1   22.91    9.30
  -4  -6   1   19.07    7.28
  -4  -6  -1   28.18    8.61
   4  -6   1   35.83    9.97
  -4   6   1   28.81    8.20
   4   6  -1   35.31    9.96
  -4   6   1   32.57    9.12
  -4  -6  -1   21.34    9.33
  -4  -8   1   16.21    9.94
   4  -8  -1   30.99   13.42
  -4   8  -1   -3.30    5.83
  -4  -8   1   30.65   10.55
   4   8   1   27.53   10.87
  -4   8  -1    9.21    8.52
  -4   8   1    6.49    7.37
   4  -8   1   21.88   10.96
   4   8  -1    3.56    7.22
  -4  -8  -1   17.02   10.15
  -4   8   1   16.37    8.49
  -4  -8  -1   21.59   10.06
   5  -1  -1   -3.32    2.42
  -5  -1   1    8.09    4.42
  -5   1  -1    2.42    3.51
  -5   1  -1    0.61    2.70
   5  -1  -1    4.11    1.85
   5   1   1    7.11    3.48
  -5  -1   1    5.44    3.70
   5   1   1    4.39    3.87
  -5   1  -1    1.33    3.69
  -5  -1  -1    2.37    3.63
   5   1  -1    2.12    2.72
  -5  -1  -1    1.90    2.68
   5  -1   1   11.45    3.71
  -5   1   1    3.40    3.82
   5   1  -1    1.19    3.14
  -5   1   1    6.96    3.94
   5   3   1   17.30    5.88
  -5   3  -1   20.16    6.58
  -5   3  -1   21.73    6.24
   5   3   1   18.11    5.18
   5  -3  -1    7.21    3.86
  -5   3  -1    6.87    3.91
  -5  -3   1   23.14    6.75
  -5   3  -1    9.40    4.49
  -5  -3   1   19.52    6.42
  -5  -3  -1    8.35    4.16
  -5   3   1   13.27    6.01
   5   3  -1   13.98    5.12
  -5   3   1   16.51    4.05
   5   3  -1   12.69    4.58
  -5  -3  -1   17.42    6.42
  -5   3   1   12.12    6.15
  -5  -5   1   20.06    7.22
   5  -5  -1   18.35    5.28
  -5  -5   1    8.51    5.82
  -5   5  -1   12.48    6.81
   5  -5  -1   10.21    7.59
   5   5   1   19.46    7.75
   5   5   1   18.01    5.04
  -5   5  -1   16.25    5.64
   5   5  -1    8.58    4.61
  -5   5   1    9.92    4.61
  -5   5   1   10.08    5.83
   5   5  -1   -2.14    4.18
   5  -5   1   17.22    5.95
  -5  -5  -1    7.29    5.80
   5  -5   1   14.13    6.80
  -5  -5  -1    0.48    4.23
   5  -7  -1   -5.53    6.32
   5   7   1   -5.25    5.81
  -5   7  -1   -1.39    6.00
  -5  -7   1    6.01    7.58
  -5   7  -1    0.59    5.68
  -5  -7   1   -6.05    5.07
  -5  -7  -1   -1.32    6.12
   5  -7   1   10.46    8.33
  -5  -7  -1   -0.31    5.48
  -5   7   1    0.67    4.86
  -5   7   1  -10.24    4.11
   5   7  -1   -2.04    5.79
  -5   9  -1    6.35    8.15
  -5  -9   1   -6.35    7.91
  -5  -9   1    4.34    8.62
   5  -9  -1   -0.67    8.84
   5   9   1    0.16    7.69
  -5   9  -1    0.41    6.80
   5  -9   1   -4.57    8.36
  -5  -9  -1   -5.52    7.36
  -5  -9  -1   -7.56    7.19
  -5   9   1    4.63    8.37
  -5   9   1    9.86    8.71
   5   9  -1    7.71   10.39
  -6   0   1   -4.03    3.08
   6   0  -1   -0.72    2.71
   6   0   1    0.69    2.74
   6   0   1    1.43    3.98
   6   0  -1   -2.49    1.77
  -6   0   1   -1.37    3.09
  -6   0  -1    1.84    2.41
  -6   0  -1    3.23    4.19
   6   2   1    0.91    3.41
  -6   2  -1    0.00    2.81
  -6  -2   1    5.66    4.80
   6   2   1   -0.63    3.29
  -6   2  -1   -1.51    2.64
  -6   2  -1    7.48    4.67
   6  -2  -1   -1.25    3.11
  -6  -2   1    3.10    4.11
  -6   2  -1    3.95    3.67
  -6  -2  -1   -2.70    2.83
   6   2  -1    3.70    3.60
   6   2  -1   -1.45    3.23
  -6   2   1    0.64    3.56
  -6   2   1   -2.11    3.06
  -6  -2  -1    1.62    4.49
  -6   2   1    1.59    2.30
  -6   4  -1   -5.49    2.67
   6  -4  -1    2.86    3.77
  -6   4  -1    8.16    6.38
   6   4   1   -1.54    2.85
   6   4   1   10.37    5.55
  -6  -4   1   -1.39    3.36
  -6  -4   1   -0.45    3.69
  -6   4  -1    4.74    5.03
  -6  -4  -1    1.67    4.38
   6   4  -1    6.99    4.79
   6  -4   1   -1.01    3.73
  -6   4   1    7.82    4.02
  -6   4   1    4.97    5.48
  -6  -4  -1   10.03    5.32
  -6   4   1   -3.51    4.10
   6   4  -1    4.88    4.04
  -6   6  -1    6.06    6.84
  -6   6  -1    4.17    5.12
   6  -6  -1    1.07    5.57
   6   6   1   -3.01    5.41
  -6  -6   1    3.18    7.15
  -6  -6   1    1.95    6.42
  -6  -6  -1   19.55    9.36
  -6  -6  -1    5.11    5.99
   6  -6   1   -7.29    5.03
  -6   6   1    7.34    5.39
   6   6  -1    5.99    6.90
  -6   6   1   10.85    7.16
  -6  -8   1    7.72    7.24
  -6   8  -1    4.81    6.89
   6   8   1   13.39    9.69
  -6   8  -1   16.27    8.72
   6  -8  -1    8.34    9.96
  -6  -8   1    1.10    7.27
  -6   8   1    9.14    8.87
   6  -8   1   15.95   10.59
  -6  -8  -1    6.36    8.43
   6   8  -1    9.13    8.96
  -6  -8  -1   -1.85    6.51
   7  -1  -1    4.60    1.97
  -7  -1   1   -5.39    2.87
  -7  -1   1    2.65    3.73
  -7   1  -1    6.25    5.10
   7   1   1    5.39    3.38
  -7   1  -1    4.95    3.21
   7   1   1    3.12    4.20
   7  -1  -1    4.26    3.70
   7  -1   1    5.26    3.28
   7   1  -1    1.02    2.77
  -7   1   1    4.08    3.55
  -7  -1  -1    4.84    4.33
   7  -1   1   -1.93    3.28
   7   1  -1   -0.88    2.87
  -7  -1  -1    0.63    2.42
  -7   1   1    2.79    3.91
   7   3   1   14.52    5.62
   7   3   1    2.54    4.56
  -7  -3   1   26.03    7.36
  -7   3  -1   26.83    7.38
  -7   3  -1    0.60    4.54
  -7  -3   1    8.68    5.24
   7  -3  -1    7.05    4.86
  -7   3  -1   12.73    5.11
   7   3  -1    7.60    5.17
  -7  -3  -1   15.06    5.49
   7  -3   1    1.29    4.54
  -7   3   1    8.97    6.59
  -7   3   1   18.81    4.37
  -7  -3  -1   22.47    8.44
  -7   3   1   32.15    8.16
   7   3  -1   18.12    5.92
  -7   5  -1    5.01    4.84
   7   5   1    6.57    6.06
  -7  -5   1    7.76    5.74
  -7   5  -1    3.31    6.11
  -7   5  -1    1.82    5.79
   7  -5  -1    3.72    4.23
   7   5   1    8.59    5.14
  -7  -5   1    6.39    5.59
  -7   5   1   11.56    7.11
   7   5  -1    6.53    5.83
  -7  -5  -1    4.94    5.81
   7  -5   1    6.52    5.04
  -7   5   1   -0.31    4.21
  -7   5   1    4.80    6.78
  -7  -5  -1    4.68    5.61
   7   5  -1    4.16    4.81
  -7  -7   1    2.24    6.60
   7  -7  -1   -9.18    5.41
  -7  -7   1   12.94    8.70
  -7   7  -1   -2.90    4.92
   7   7   1   10.52    8.28
  -7   7  -1    5.08    7.23
   7  -7   1    8.59    8.54
  -7  -7  -1   -7.42    5.73
  -7   7   1   -2.00    6.58
   7   7  -1    1.25    6.76
  -7  -7  -1   13.27    8.80
  -8   0  -1   -2.51    3.98
  -8   0   1    2.54    4.00
  -8   0   1   -1.96    2.42
  -8   0  -1   -1.01    2.53
   8   0   1   -0.08    2.45
   8   0  -1    1.98    2.11
   8   0  -1   -2.03    2.36
   8   0   1    3.92    4.35
  -8   2  -1    3.54    5.06
   8   2   1   -0.67    3.44
   8  -2  -1    1.70    2.35
   8  -2  -1    7.28    5.09
  -8  -2   1   -5.85    3.00
   8   2   1    6.58    4.64
  -8  -2   1    1.24    4.15
  -8   2  -1    3.42    4.04
   8   2  -1    2.32    4.05
   8   2  -1    5.14    3.55
   8  -2   1    3.41    3.66
  -8  -2  -1   -0.48    4.81
   8  -2   1    3.51    4.44
  -8   2   1    4.13    4.47
  -8  -2  -1   -0.52    3.28
  -8   2   1    1.73    4.61
  -8   4  -1    5.94    5.51
  -8   4  -1    7.71    4.60
   8   4   1    5.82    4.05
   8  -4  -1    1.47    4.26
   8   4   1    4.57    5.42
  -8  -4   1   -1.41    3.84
  -8  -4   1    1.63    5.31
  -8   4  -1   -3.77    4.99
  -8   4   1   11.29    7.52
   8  -4   1    7.83    5.62
  -8   4   1   15.51    8.70
   8   4  -1   13.71    6.77
  -8  -4  -1    5.84    5.22
  -8  -4  -1    9.82    7.32
   8   4  -1   -2.69    3.96
   8   6   1   -0.15    6.15
  -8  -6   1    3.99    6.22
  -8   6  -1    0.44    5.15
   8  -6  -1   -1.20    7.34
  -8   6  -1   15.33    8.62
  -8  -6   1    4.32    6.56
   8   6  -1   15.31    8.45
  -8  -6  -1    0.51    5.46
  -8   6   1    0.65    5.99
   8  -6   1    3.60    6.83
  -8  -6  -1   -0.24    6.57
  -8  -8   1    0.53    6.41
  -8   8  -1   -3.20    7.10
   8  -8  -1    8.52   10.89
   8   8   1    0.79    8.76
  -8  -8   1   22.90   10.50
  -8   8   1    1.49    9.01
   8   8  -1   13.18   10.32
  -8  -8  -1   27.61   11.60
   8  -8   1   10.92   10.92
   9  -1  -1  145.54   16.06
  -9  -1   1  182.88   21.08
   9   1   1  179.35   20.45
   9   1   1  183.65   24.69
   9  -1  -1  180.75   24.50
  -9  -1   1  183.33   23.97
  -9   1  -1  199.97   20.82
  -9   1  -1  163.10   23.28
  -9   1   1  174.52   24.33
   9  -1   1  167.52   23.32
  -9   1   1  127.39   19.97
  -9  -1  -1  176.36   23.77
   9  -1   1  181.03   17.87
   9   1  -1  168.77   18.86
  -9  -1  -1  164.36   17.45
  -9   3  -1  203.13   24.01
  -9   3  -1  200.74   26.75
   9   3   1  178.16   22.93
   9  -3  -1  186.69   24.69
  -9  -3   1  176.69   23.28
   9   3   1  157.28   23.21
  -9  -3   1  172.16   25.32
   9   3  -1  172.73   22.12
  -9  -3  -1  178.12   21.85
   9  -3   1  186.55   25.39
   9   3  -1  154.22   23.45
  -9   3   1  183.19   26.41
  -9  -3  -1  184.09   25.14
   9  -3   1  171.93   20.72
  -9   3   1  158.83   22.59
  -9  -5   1  107.06   19.51
   9   5   1  111.88   18.16
  -9   5  -1  125.16   20.03
   9   5   1  161.45   22.02
  -9  -5   1  135.00   21.54
  -9   5  -1  124.14   22.11
   9  -5  -1  132.55   19.89
   9  -5   1  148.24   20.82
  -9   5   1  110.24   21.53
  -9   5   1  156.58   22.80
   9   5  -1   98.37   17.73
  -9  -5  -1  155.98   24.17
   9   5  -1  148.27   21.81
  -9   7  -1   48.46   15.15
  -9  -7   1   89.50   18.94
  -9  -7   1   41.64   13.60
   9   7   1   66.27   16.14
   9  -7  -1   47.58   16.01
  -9  -7  -1   71.56   17.63
   9   7  -1   89.62   18.29
   9  -7   1   75.46   19.25
  -9   7   1   35.27   13.32
  10   0   1    4.60    4.75
 -10   0   1   -2.19    3.02
  10   0  -1    3.21    4.44
 -10   0  -1   -1.09    5.03
 -10   0  -1   -1.08    2.94
 -10   0   1   -3.80    4.18
  10   0   1    3.26    3.93
 -10  -2   1    5.28    5.96
  10   2   1   -0.25    4.32
 -10   2  -1   -0.33    4.06
 -10   2  -1   -4.47    4.72
  10  -2  -1   -4.64    3.86
 -10  -2   1    9.87    5.58
  10   2   1   -0.71    3.70
  10   2  -1   -3.69    3.75
 -10   2   1    8.06    6.57
 -10  -2  -1   -3.30    4.37
  10   2  -1   -2.42    3.04
 -10  -2  -1    0.39    3.62
  10  -2   1   -1.02    3.66
 -10   2   1    7.09    5.82
 -10  -4   1    0.40    6.02
 -10   4  -1   20.38    9.32
  10  -4  -1    7.65    6.06
 -10   4  -1   -1.77    5.61
  10   4   1    4.28    5.52
  10   4   1    9.25    6.98
 -10  -4   1    2.12    5.95
  10   4  -1   -5.28    3.74
  10   4  -1   -3.05    4.33
 -10   4   1   13.57    8.73
 -10   4   1    4.43    6.69
 -10  -4  -1    7.09    7.27
  10  -4   1    0.50    5.76
 -10  -6   1   22.00   10.17
  10   6   1   28.85    9.90
 -10   6  -1    5.62    7.49
 -10   6  -1   -4.13    7.66
 -10  -6   1   12.48    7.56
  10   6  -1   26.52   10.76
 -10   6   1   17.23    8.96
 -10  -6  -1   33.08   13.27
 -10   6   1    1.74    9.22
 -11  -1   1   11.57    7.18
  11   1   1    8.68    5.24
  11  -1  -1    9.82    6.13
  11   1   1   -0.48    4.48
 -11  -1   1    8.35    5.53
 -11   1  -1    3.27    4.40
 -11   1  -1    8.47    8.19
 -11   1   1    3.16    5.48
 -11  -1  -1    4.79    7.27
  11   1  -1   12.68    7.48
 -11   1   1   -0.91    3.95
  11  -1   1    0.61    4.71
 -11  -3   1   17.87    9.53
 -11   3  -1   20.63    8.15
  11   3   1   36.65   10.49
  11  -3  -1   30.97    9.81
  11   3   1   19.42    7.54
 -11   3  -1   44.13   12.15
 -11  -3   1   35.39    9.82
  11  -3   1   34.92   10.93
  11   3  -1   42.40    9.50
  11   3  -1   13.20    8.01
 -11  -3  -1   47.57   13.01
 -11   3   1   47.28   13.46
 -11   3   1   24.36    9.09
 -11   5  -1   35.77   11.37
  11   5   1   10.42    7.86
 -11  -5   1   41.54   12.88
  11   5   1   22.65    9.93
 -11   5  -1   22.51   10.97
  11  -5  -1   12.32    7.85
  11   5  -1   26.66    9.63
 -11   5   1   24.74   10.93
  11   5  -1   23.55    9.58
 -11   5   1   35.38   13.78
 -11  -5  -1   13.76    8.76
  11  -5   1   29.26    9.88
 -12   0  -1   -2.19    5.00
  12   0   1    1.27    4.58
  12   0  -1    2.25    5.18
 -12   0   1    5.13    5.42
 -12   0   1    5.25    5.86
 -12   2  -1    6.00    5.26
 -12   2  -1    2.39    6.78
 -12  -2   1    0.51    6.42
  12  -2  -1    6.40    6.15
  12   2   1    0.55    5.11
  12   2   1   -0.37    4.61
 -12   2   1    4.54    5.77
 -12  -2  -1    6.01    8.21
  12   2  -1    2.58    5.89
 -12   2   1    3.67    8.14
  12  -2   1    3.72    6.17
  12   4   1    6.81    7.57
 -12  -4   1   -0.46    6.08
  12  -4  -1   -3.94    5.06
 -12   4  -1    4.77    7.96
 -12   4  -1   -4.04    5.99
  12   4   1   -7.46    4.96
  12   4  -1   -0.15    6.36
 -12   4   1   -9.12    5.36
  12   4  -1   13.80    7.25
 -12   4   1   -0.64    6.50
  12  -4   1    8.38    8.57
 -12  -4  -1   -6.55    5.06
 -12   6  -1   -1.18    9.34
 -12   6  -1   -4.40    6.52
  12   6   1    5.26    8.52
 -12  -6   1   23.29   11.99
  12   6  -1   -2.99    6.91
 -12   6   1    4.10    8.53
 -12  -6  -1    6.31    8.57
 -12   6   1   12.02   11.48
 -13   1  -1    5.99    7.96
 -13  -1   1    7.79    7.46
  13  -1  -1    1.33    5.45
  13   1   1   -1.55    4.86
 -13   1   1    6.96    6.45
  13   1  -1   -5.05    3.97
  13  -1   1    8.83    7.97
 -13   1   1    4.37    7.39
 -13  -1  -1   22.09   11.41
  13   3   1   13.46    8.81
  13  -3  -1    2.86    6.53
  13   3   1   25.22   13.57
 -13  -3   1    1.29    7.04
 -13   3  -1    0.07    7.55
 -13  -3  -1    7.99    8.30
  13  -3   1    7.82    7.49
 -13   3   1    6.67    7.01
 -13   3   1    3.17    8.57
  13   3  -1    6.81    7.45
  13   5   1    1.04    7.35
  13   5   1   16.40    9.14
 -13  -5   1    9.68    9.37
  13  -5  -1    1.52    6.51
 -13   5  -1   10.31    9.97
 -13   5  -1   11.81    8.81
 -13   5   1    2.14    9.63
 -13   5   1    3.90    8.46
  13  -5   1   -1.77    6.98
 -13  -5  -1    0.42    9.19
  13   5  -1   -2.68    6.64
 -14   0   1   -7.40    4.75
 -14   0  -1   -0.13    7.38
  14   0   1   -5.04    4.67
  14   0  -1   -6.06    4.89
  14   2   1    6.53    7.26
  14  -2  -1    9.16    8.80
 -14  -2   1   14.75   10.29
 -14   2  -1    3.01    8.39
  14   2  -1    6.09    7.52
 -14  -2  -1   -0.77    7.12
 -14   2   1    7.66    8.41
  14  -2   1    2.43    7.20
 -14   4  -1   -0.22    8.32
 -14  -4   1    6.27    9.48
  14   4   1   -4.62    5.92
  14  -4  -1   -1.43    6.22
  14   4  -1   -3.13    6.75
 -14   4   1   -6.75    7.42
  14  -4   1    2.77    8.03
 -14  -4  -1    1.05    8.20
 -14   4   1   -3.29    7.25
 -15  -1   1   58.68   15.54
  15  -1  -1   32.35   12.81
 -15   1  -1   42.93   13.96
  15   1   1   69.35   18.96
 -15   1   1   92.15   18.69
 -15  -1  -1   58.70   16.53
  15   1  -1   26.00   11.66
  15  -1   1   45.29   14.12
 -15  -3   1   61.40   17.36
  15  -3  -1   59.53   16.74
  15   3   1   40.36   13.45
 -15   3  -1   46.10   15.23
  15  -3   1   33.23   15.25
 -15   3   1   66.32   17.88
 -15  -3  -1   50.90   16.95
  15   3  -1   22.29   11.57
   0   0  -2    5.44    1.95
   0   0   2    6.40    2.73
   0   0  -2    0.30    1.94
   0   0  -2    3.20    2.45
   0   2  -2  436.89   39.44
   0   2   2  448.31   39.97
   0  -2  -2  441.07   41.25
   0  -2  -2  449.79   38.48
   0  -2   2  455.62   40.71
   0   2  -2  439.77   39.78
   0  -2   2  439.43   39.33
   0   2   2  444.75   39.75
   0   4   2   33.94    7.58
   0   4  -2   29.06    6.90
   0  -4   2   39.24    7.99
   0   4   2   32.60    7.80
   0   4  -2   29.95    5.36
   0  -4  -2   15.39    7.63
   0   4  -2   26.21    7.10
   0   6   2  262.87   29.30
   0  -6  -2  236.27   31.92
   0   6  -2  214.34   27.71
   0   6  -2  202.15   27.21
   0   6   2  206.04   27.19
   0  -6   2  268.48   30.07
   0   8  -2   -3.58    5.95
   0   8  -2   -1.24    7.03
   0  -8   2    0.51    6.97
   0   8   2    7.27    7.49
   0  -8   2    5.09    6.36
   0   8   2    3.90    6.79
   0  -8  -2   -6.08    6.09
   1  -1  -2   -1.36    2.88
   1   1   2    0.33    2.18
   1  -1  -2    4.25    2.31
  -1   1  -2    0.32    1.89
   1   1   2    2.56    2.89
  -1  -1   2    0.87    2.93
  -1  -1   2    4.50    1.71
  -1   1  -2    4.47    3.14
  -1   1  -2    4.25    2.70
  -1   1   2    6.78    3.40
  -1  -1  -2    5.40    3.45
   1   1  -2    4.88    2.67
   1  -1   2    2.60    2.76
  -1   1   2    1.27    2.23
  -1  -1  -2    5.39    2.36
   1   1  -2   -2.13    2.17
   1   3   2    0.05    3.25
  -1  -3   2    6.77    3.84
  -1   3  -2    5.80    4.05
  -1   3  -2    4.65    3.10
  -1   3  -2    4.55    3.85
   1  -3  -2    5.90    1.92
   1  -3  -2    1.31    4.54
   1   3   2    9.03    4.11
  -1  -3   2    5.57    4.68
   1  -3   2    6.29    3.66
   1   3  -2    8.87    4.38
  -1   3   2    4.81    4.25
   1   3  -2    7.94    3.27
  -1  -3  -2    2.49    1.47
  -1   3   2   -3.42    2.83
  -1  -3  -2    7.24    4.71
  -1   5  -2    5.17    4.85
  -1   5  -2    9.31    5.51
   1   5   2    4.85    5.18
   1  -5  -2    0.86    4.93
  -1  -5   2   -0.39    3.00
  -1   5  -2    3.76    2.51
   1   5   2    4.97    3.94
  -1  -5   2   -3.43    3.69
   1   5  -2   -3.10    3.91
  -1   5   2    4.90    4.63
  -1  -5  -2    7.85    6.16
   1  -5   2    0.59    3.81
  -1   5   2    1.73    4.46
   1   5  -2    2.55    4.77
   1   5  -2    3.90    2.67
  -1   7  -2   -4.27    5.75
   1   7   2   -0.99    5.81
  -1  -7   2   20.08    9.68
  -1  -7   2   17.30    8.20
   1  -7  -2    3.24    6.62
  -1   7  -2   11.80    7.47
   1   7   2   13.09    7.27
  -1   7   2   20.97    8.50
   1  -7   2   10.56    7.66
  -1   7   2   19.92    8.09
   1   7  -2    3.93    6.81
  -1  -7  -2   -4.46    5.04
  -1   9  -2   -4.33    5.62
   1   9   2   -4.15    6.70
   1   9   2   -4.98    5.99
  -1   9  -2   -4.80    7.14
   1  -9  -2    1.16   10.44
  -1  -9   2    9.98    9.57
  -1  -9  -2   11.15    9.56
   1  -9   2   10.25    9.24
   1   9  -2   -4.31    6.88
  -1   9   2    8.11    8.48
  -1   9   2   -0.24    7.38
   2   0   2   14.39    2.32
   2   0  -2   17.60    2.75
   2   0   2   18.36    4.73
  -2   0  -2   16.11    4.04
  -2   0  -2   20.29    4.52
  -2   0   2   22.02    5.53
   2   0  -2   18.05    4.20
  -2   0   2   13.92    3.48
  -2   2  -2  566.36   50.60
   2   2   2  559.54   49.82
  -2   2  -2  551.08   50.33
   2   2   2  578.71   50.89
  -2  -2   2  568.89   50.04
  -2   2  -2  593.88   50.42
  -2  -2   2  574.62   51.35
   2  -2  -2  553.97   51.63
  -2   2  -2  549.32   50.09
   2  -2  -2  583.98   49.71
  -2   2   2  532.35   51.05
  -2  -2  -2  580.16   49.54
   2   2  -2  563.16   50.08
  -2   2   2  588.55   49.71
   2   2  -2  580.03   50.46
  -2  -4   2   20.52    5.89
   2   4   2   21.88    5.83
   2  -4  -2   35.45    8.87
   2  -4  -2   21.73    3.61
   2   4   2   25.39    3.50
   2   4   2   18.89    6.16
  -2   4  -2   27.76    5.08
  -2   4  -2   30.08    6.74
  -2  -4   2   16.38    6.43
  -2   4  -2   20.72    6.18
   2   4  -2   21.72    4.78
  -2  -4  -2    1.48    4.89
   2  -4   2   18.20    6.26
  -2   4   2   14.72    5.08
  -2   4   2   30.14    7.84
   2   4  -2    8.99    4.55
  -2  -6   2  278.15   29.89
   2   6   2  243.75   28.73
  -2   6  -2  204.65   26.39
   2   6   2  238.29   28.06
  -2   6  -2  244.12   29.33
  -2  -6   2  165.81   27.57
   2  -6  -2  297.42   35.67
  -2  -6  -2  235.55   30.82
  -2   6   2  204.27   26.02
  -2   6   2  226.42   28.28
   2   6  -2  279.59   30.67
   2  -6   2  199.85   28.51
  -2   8  -2   10.25    8.44
  -2  -8   2    2.69    6.97
  -2   8  -2   13.41    8.50
  -2  -8   2    6.56    8.12
   2   8   2   16.71    9.04
   2  -8  -2   -5.45    6.47
   2   8   2    0.26    6.68
   2   8  -2   26.47   11.37
   2  -8   2    0.45    8.16
  -2   8   2   15.60    8.49
  -2  -8  -2   19.09   11.42
  -2   8   2    0.15    6.08
  -3   1  -2  124.83   14.61
  -3  -1   2  193.86   18.24
  -3   1  -2  135.91   14.10
  -3  -1   2  120.01   13.35
  -3   1  -2  134.21   13.83
   3   1   2  133.27   15.03
   3  -1  -2  144.92   14.13
  -3   1  -2  133.15   13.22
   3   1  -2  141.96   13.16
  -3   1   2  159.71   16.53
  -3   1   2  128.18   11.76
  -3  -1  -2  125.14   13.54
  -3  -1  -2  129.86   15.45
  -3  -1  -2  136.54   12.17
  -3   1   2  147.36   15.85
   3   1  -2  140.36   14.31
  -3   3  -2   18.61    5.19
   3   3   2   14.26    4.46
  -3   3  -2   19.79    4.75
   3  -3  -2   20.13    6.38
  -3  -3   2   14.69    5.96
  -3  -3   2   19.16    5.34
  -3   3  -2   28.60    6.41
  -3   3  -2   28.35    6.34
   3  -3  -2   21.51    4.58
   3   3   2   15.74    6.03
   3   3  -2   14.31    5.00
  -3   3   2   17.13    5.75
  -3   3   2   24.53    4.71
  -3  -3  -2   11.40    5.26
   3   3  -2   18.19    4.86
  -3   5  -2   69.86    9.68
  -3  -5   2   56.43   11.28
  -3   5  -2   70.27   11.39
   3  -5  -2   64.30    7.95
   3  -5  -2   95.16   16.16
   3   5   2   68.50   11.61
  -3   5  -2   67.63   12.30
  -3  -5   2   51.92   12.17
   3   5   2   60.45   11.87
   3  -5   2   49.93   11.16
  -3   5   2   60.52   10.28
  -3  -5  -2   47.09   11.79
   3   5  -2   58.15    8.86
   3   5  -2   52.85   11.19
  -3   5   2   56.11   12.19
  -3  -7   2   10.98    8.84
  -3  -7   2    6.35    6.07
  -3   7  -2   -4.91    4.51
  -3   7  -2   19.17    8.38
   3  -7  -2   14.86    9.46
   3   7   2   15.33    7.58
   3   7   2    4.00    7.05
   3  -7   2    9.68    7.56
  -3   7   2   18.88    8.36
   3   7  -2   10.85    7.41
  -3   7   2    0.65    5.98
  -3  -7  -2    4.81    6.71
   3   9   2   32.76   12.18
  -3   9  -2   63.32   14.56
  -3   9  -2   26.39   11.99
   3  -9  -2   38.64   15.17
  -3  -9   2   50.56   16.55
  -3  -9  -2   44.76   15.24
   3  -9   2   81.86   19.80
  -3   9   2   20.42   11.21
   3   9  -2   57.12   16.22
  -3  -9  -2   43.15   14.31
  -3   9   2   37.65   12.92
  -4   0   2  609.63   55.51
   4   0  -2  614.73   53.34
  -4   0  -2  639.03   53.50
   4   0  -2  661.68   55.98
  -4   0  -2  634.41   56.04
  -4   0  -2  601.07   55.40
   4   0   2  598.60   55.23
  -4   0   2  631.70   56.01
   4  -2  -2   11.28    4.20
   4   2   2   29.29    6.43
  -4   2  -2   11.14    4.78
  -4   2  -2    9.02    4.20
  -4   2  -2   16.17    5.13
  -4  -2   2   20.40    6.32
  -4  -2   2   15.21    4.82
  -4   2  -2   19.32    5.10
  -4   2   2   10.36    4.53
   4   2  -2   18.49    5.29
  -4   2   2   22.67    3.37
  -4  -2  -2   26.19    7.22
  -4  -2  -2   25.10    4.60
  -4   2   2    7.69    4.79
   4   2  -2   17.65    4.75
  -4  -2  -2   10.79    4.35
  -4   4  -2  250.77   26.79
   4  -4  -2  192.67   26.88
  -4  -4   2  211.28   22.90
   4  -4  -2  228.35   21.22
   4   4   2  230.63   22.38
  -4   4  -2  204.14   22.20
   4   4   2  258.76   24.37
  -4   4  -2  222.31   25.17
  -4   4  -2  215.28   21.69
  -4  -4   2  165.34   24.77
   4   4   2  217.73   21.04
   4   4  -2  229.34   25.78
   4   4  -2  224.01   21.80
  -4  -4  -2  188.80   25.76
  -4   4   2  222.48   25.89
  -4   4   2  209.18   21.29
   4  -6  -2   -0.61    6.34
   4   6   2    5.72    4.86
  -4   6  -2    8.09    6.40
  -4  -6   2    3.95    5.58
  -4  -6   2    3.04    5.08
  -4   6  -2    5.94    5.51
   4   6   2   16.59    8.09
  -4  -6  -2    2.85    6.82
  -4   6   2    5.78    5.17
   4  -6   2    5.44    5.19
   4   6  -2   -6.06    4.78
  -4   6   2    4.26    6.28
   4  -8  -2  151.70   28.56
  -4   8  -2  120.64   21.33
   4   8   2  147.10   23.37
  -4  -8   2  134.10   21.95
  -4  -8   2  114.62   22.63
   4   8  -2  162.67   25.21
  -4   8   2  123.98   20.28
   4  -8   2  108.22   23.06
  -4  -8  -2  130.93   22.87
  -4   8   2  180.60   27.15
  -4  -8  -2  130.37   24.06
  -5   1  -2   62.35    9.93
  -5  -1   2   58.42    9.66
  -5   1  -2   63.80    8.29
  -5   1  -2   61.59   10.01
   5   1   2   65.68    9.61
   5  -1  -2   57.53    9.55
  -5  -1   2   64.17   10.69
   5   1  -2   53.93    7.64
  -5  -1  -2   49.88    8.91
  -5  -1  -2   57.73   10.56
   5  -1   2   69.54   10.06
  -5   1   2   59.11   10.11
  -5   1   2   56.38    9.40
  -5  -1  -2   67.06    7.02
   5   1  -2   51.93    9.78
   5  -3  -2  103.85   13.68
  -5   3  -2  102.67   15.98
   5   3   2   88.24   14.30
  -5   3  -2  137.16   15.83
  -5   3  -2  120.13   14.07
  -5  -3   2  116.96   15.89
   5   3   2  124.15   14.93
  -5   3  -2  101.41   13.87
  -5  -3   2  108.43   15.06
  -5  -3  -2  131.95   18.39
   5   3  -2  102.36   14.37
   5   3  -2   87.93   13.95
  -5   3   2  129.53   17.64
  -5  -3  -2   99.38   13.08
  -5   3   2  105.90   11.07
  -5   3   2   91.08   15.52
  -5  -5   2   24.45    8.77
   5   5   2   29.34    5.87
  -5  -5   2   29.77    8.01
  -5   5  -2   45.73    8.83
  -5   5  -2   24.78    7.04
   5   5   2   20.22    8.18
  -5   5  -2   36.52    9.08
   5  -5  -2   20.05    5.73
   5  -5  -2   32.93   10.15
  -5  -5  -2    8.63    6.32
   5   5  -2   23.90    7.74
   5  -5   2   24.41    8.91
  -5  -5  -2   30.94    7.97
  -5   5   2   33.46    7.02
   5   5  -2   33.70    7.24
  -5   5   2   26.22    8.82
  -5   7  -2   65.54   13.21
   5   7   2   52.61   14.01
   5  -7  -2   33.22   12.75
  -5  -7   2   64.61   13.55
  -5   7  -2   40.46   12.63
  -5  -7   2   36.12   11.95
  -5   7   2   53.94   13.26
  -5   7   2   40.18   10.91
   5  -7   2   38.32   12.53
  -5  -7  -2   57.15   13.39
   5   7  -2   72.03   15.83
  -5  -7  -2   63.81   15.26
  -6   0  -2  161.45   21.37
   6   0   2  183.35   19.56
  -6   0   2  222.32   20.79
   6   0  -2  203.89   20.84
   6   0  -2  189.58   17.26
  -6   0  -2  177.19   22.09
  -6   0  -2  199.56   17.97
  -6   0   2  194.44   20.49
   6   2   2   -0.37    3.16
  -6  -2   2   -0.35    3.97
  -6   2  -2   -1.21    3.53
   6   2   2   -2.77    3.24
  -6   2  -2    3.21    3.35
  -6   2  -2   -3.75    2.49
   6  -2  -2    1.54    3.14
  -6  -2   2    0.38    3.58
  -6   2  -2   -0.97    2.79
  -6   2   2   -0.21    3.47
  -6   2   2    1.84    3.99
   6   2  -2    2.30    2.76
  -6  -2  -2   -5.57    2.12
   6   2  -2   -0.69    3.09
  -6  -2  -2    2.62    4.91
   6   4   2  125.58   18.48
  -6   4  -2  131.14   19.15
  -6  -4   2  140.95   19.48
   6  -4  -2  121.17   15.90
  -6  -4   2  108.07   17.06
  -6   4  -2  125.18   16.34
  -6   4  -2  129.37   16.99
  -6   4  -2  109.98   17.37
   6   4   2  130.77   16.53
  -6   4   2  146.35   14.98
  -6  -4  -2  123.24   16.37
  -6  -4  -2   99.45   18.19
   6   4  -2  109.39   16.45
   6   4  -2  132.82   17.93
  -6   4   2  138.48   18.84
  -6   4   2  126.90   20.31
   6   6   2    1.19    6.51
  -6  -6   2   -1.40    5.73
  -6  -6   2   -4.60    4.07
  -6   6  -2   11.44    7.63
  -6   6  -2   -2.53    4.29
   6  -6  -2    1.29    5.72
  -6   6   2    3.99    4.99
  -6  -6  -2    0.55    5.45
   6  -6   2    1.39    6.12
  -6   6   2    3.07    6.34
   6   6  -2    2.83    6.13
  -6  -6  -2   -1.78    4.88
   6  -8  -2   78.41   19.64
  -6  -8   2   86.41   18.91
  -6   8  -2  105.14   17.38
  -6   8  -2   45.98   14.16
   6   8   2   81.52   17.74
  -6  -8   2   77.01   16.50
   6  -8   2   92.57   20.15
  -6   8   2   60.09   16.72
  -6  -8  -2   81.83   19.58
   6   8  -2   91.73   18.80
  -6  -8  -2   78.11   17.24
  -7  -1   2  106.05   15.83
  -7  -1   2  107.62   16.39
   7   1   2  151.09   17.06
  -7   1  -2  149.29   18.08
   7  -1  -2  126.73   17.70
  -7   1  -2   94.84   15.73
  -7   1  -2  126.84   14.49
   7   1  -2  122.69   12.53
  -7  -1  -2  115.68   16.49
  -7  -1  -2  101.06   16.80
   7  -1   2  123.54   15.23
  -7   1   2  126.83   16.55
   7   1  -2  113.03   16.88
  -7   1   2  129.33   17.70
  -7  -1  -2  125.32   12.15
   7   3   2  111.89   16.81
   7   3   2  121.92   17.30
  -7   3  -2  123.99   17.29
  -7   3  -2  133.22   15.95
  -7   3  -2  128.93   17.02
   7  -3  -2  111.46   16.45
  -7   3  -2  110.70   17.66
  -7  -3   2  123.08   18.22
  -7  -3   2  109.65   17.08
  -7  -3  -2  128.38   19.05
  -7   3   2  117.09   12.11
   7   3  -2  126.27   16.49
  -7   3   2  108.94   18.36
  -7   3   2  129.28   18.80
   7   3  -2  146.30   19.00
  -7  -3  -2  147.43   16.29
  -7   5  -2  141.54   18.98
  -7   5  -2  151.64   21.58
  -7   5  -2  169.88   20.83
   7   5   2  178.81   24.45
   7   5   2  147.76   19.19
  -7   5  -2  124.61   21.78
   7  -5  -2  142.69   24.65
  -7  -5   2  142.20   21.86
   7  -5  -2  149.03   19.28
  -7  -5   2  151.88   22.13
   7   5  -2  138.16   19.62
   7   5  -2  201.82   23.96
  -7  -5  -2  160.32   24.64
  -7  -5  -2  151.48   20.55
  -7   5   2  144.16   22.75
  -7   7  -2   21.21    8.20
  -7  -7   2   24.93   10.70
  -7  -7   2   32.12   10.83
   7   7   2   19.68    9.73
  -7   7  -2    9.79    8.88
   7  -7  -2   31.52   13.79
   7   7  -2   16.53    9.11
  -7  -7  -2   23.78    9.74
  -7  -7  -2   21.76    9.60
  -7   7   2   48.61   13.38
   7  -7   2    9.14    8.42
  -8   0   2   17.21    6.65
   8   0  -2   15.10    6.88
  -8   0  -2   14.94    4.04
  -8   0  -2   34.33    9.99
  -8   0  -2   14.76    5.88
   8   0  -2   14.74    3.12
  -8   0   2   14.69    6.21
   8   0   2    9.46    4.69
  -8   2  -2   17.87    7.18
  -8  -2   2   38.15    9.36
   8   2   2   24.96    8.30
   8   2   2   15.75    6.07
  -8  -2   2   22.43    7.61
  -8   2  -2   19.07    6.60
  -8   2  -2   24.56    6.65
   8  -2  -2   17.40    6.41
   8  -2   2   21.67    6.12
  -8   2   2   35.72    8.83
   8   2  -2   23.93    7.52
  -8   2   2   24.25    8.52
  -8  -2  -2   14.49    7.27
   8   2  -2   18.63    5.39
  -8  -2  -2   19.07    4.94
   8   4   2   31.09    9.33
  -8  -4   2   30.33    8.63
  -8   4  -2   24.17    9.33
  -8   4  -2   30.44    8.17
  -8   4  -2   20.90    7.41
  -8  -4   2   29.84    9.27
   8  -4  -2   34.29    8.71
   8   4   2   14.83    6.86
  -8   4  -2   19.17    8.01
  -8  -4  -2   32.29   10.84
  -8   4   2   25.14    8.73
  -8   4   2   22.82    9.48
  -8  -4  -2   32.61    7.89
   8   4  -2   27.97    8.60
   8   4  -2   20.63    6.93
   8  -6  -2    2.55    8.02
  -8   6  -2    2.31    6.83
   8   6   2    1.79    7.57
  -8  -6   2   -2.06    5.38
  -8  -6   2    5.40    7.45
  -8   6  -2    9.14    6.32
  -8   6  -2    0.37    6.44
   8   6  -2    9.95    7.94
  -8  -6  -2   11.60    8.03
  -8   6   2    5.76    7.77
  -8   8  -2   -4.16    6.75
   8  -8  -2    3.44    8.69
  -8  -8   2   -6.62    7.16
   8   8   2   11.56    9.57
   8   8  -2   -2.46    7.84
  -8  -8  -2   -5.70    6.80
   8  -8   2    5.65    9.28
  -8   8   2   11.63   11.07
   9   1   2   86.58   13.06
   9   1   2   80.80   15.28
  -9   1  -2   74.54   10.72
   9  -1  -2   91.14   16.21
  -9   1  -2   48.30   12.35
  -9  -1   2   56.87   12.03
  -9  -1   2   71.38   13.64
  -9   1   2   64.90   12.43
  -9  -1  -2   89.45   16.02
   9   1  -2   79.82   10.01
   9  -1   2   84.49   11.99
  -9   1   2   66.34   13.60
  -9  -1  -2   68.83    9.52
   9  -1   2   59.23   13.06
   9   1  -2   68.36   13.50
  -9   3  -2   94.02   14.62
  -9  -3   2  102.99   16.43
  -9   3  -2  101.88   17.75
  -9  -3   2   94.80   16.61
   9   3   2   76.34   14.82
   9   3   2   84.85   15.42
   9  -3  -2  100.62   16.08
   9   3  -2   90.54   13.56
   9   3  -2   69.44   14.10
  -9  -3  -2   96.90   17.31
   9  -3   2  105.86   14.77
   9  -3   2   88.62   16.54
  -9   3   2   84.65   17.88
  -9   3   2   70.22   14.69
  -9  -5   2   24.69    8.39
  -9  -5   2   38.52   11.70
   9   5   2   27.40    8.78
  -9   5  -2   25.89   11.12
   9  -5  -2   23.38    8.14
  -9   5  -2   38.96   11.03
   9   5   2   37.72   10.77
  -9   5  -2   38.28    9.58
   9  -5   2   43.81   10.89
  -9  -5  -2   35.70   12.41
  -9   5   2   18.28    9.06
   9   5  -2   28.78   10.00
  -9   5   2   48.88   14.28
   9   5  -2   25.69    9.02
   9  -7  -2   38.00   15.27
   9   7   2   72.15   16.70
  -9  -7   2  104.74   19.49
  -9  -7   2   92.47   19.85
  -9   7  -2   64.75   15.36
  -9  -7  -2   50.66   15.32
   9  -7   2   66.91   18.67
   9   7  -2   76.33   17.23
  -9   7   2   59.68   16.82
  10   0   2  221.61   29.57
 -10   0  -2  193.62   19.10
  10   0  -2  121.79   22.52
 -10   0  -2  185.50   27.21
  10   0   2  185.09   21.71
 -10   0   2  225.98   27.17
 -10   0   2  204.27   24.20
  10  -2  -2   79.40   15.73
  10   2   2   44.68   12.21
  10   2   2   78.15   13.43
 -10   2  -2   68.98   14.69
 -10  -2   2  113.66   16.40
 -10  -2   2   85.56   15.56
 -10   2  -2   97.46   13.70
  10  -2   2   78.15   12.19
  10   2  -2   98.28   12.40
 -10   2   2   93.20   15.22
 -10  -2  -2  118.93   18.90
  10   2  -2   53.54   13.18
 -10   2   2   73.15   15.97
  10  -2   2   56.47   14.19
  10   4   2   86.24   15.69
  10  -4  -2   89.97   15.89
 -10   4  -2   54.22   15.44
 -10  -4   2   83.14   16.49
 -10   4  -2   82.27   15.13
 -10  -4   2  100.54   17.95
  10   4   2   71.86   14.65
  10  -4   2   61.28   14.88
  10   4  -2   65.56   13.55
 -10   4   2  105.75   17.34
 -10  -4  -2   91.35   19.24
 -10   4   2   84.62   18.74
  10   4  -2   94.59   16.53
 -10  -6   2   19.82   10.29
 -10   6  -2   10.42    9.55
 -10   6  -2    6.64    7.19
 -10  -6   2   13.78    9.42
  10  -6  -2   26.69   12.99
  10   6   2   42.46   12.79
  10   6  -2   32.09   10.21
 -10  -6  -2   36.21   12.86
 -10   6   2   15.92    9.36
 -11   1  -2  121.30   20.71
  11   1   2   60.53   14.56
 -11  -1   2  127.62   19.44
 -11  -1   2  100.96   16.29
  11   1   2  117.10   16.08
  11  -1  -2   94.53   17.02
 -11   1   2  134.47   18.71
 -11  -1  -2  111.31   19.41
 -11   1   2  121.49   19.61
  11  -1   2   86.92   18.27
  11   1  -2   72.93   15.77
  11  -1   2  105.74   14.67
 -11   3  -2   46.73   10.20
  11  -3  -2   35.93   11.12
  11   3   2   30.14    9.18
  11   3   2   11.51    7.95
 -11  -3   2   19.86    9.14
 -11   3  -2   48.86   12.80
 -11  -3   2   32.28   10.78
 -11   3   2   48.34   14.48
  11  -3   2   19.26    9.17
 -11   3   2   28.33    9.46
  11   3  -2   19.95    9.73
  11   3  -2   34.97    8.51
 -11  -3  -2   24.01    9.98
 -11   5  -2   72.38   16.99
 -11  -5   2   55.88   14.05
 -11   5  -2   56.81   13.32
  11  -5  -2   48.19   11.91
 -11  -5   2   51.41   14.30
  11   5   2   28.63    9.99
  11   5   2   72.72   16.06
  11  -5   2   78.05   15.92
 -11   5   2   42.73   14.41
 -11  -5  -2   86.48   17.48
  11   5  -2   56.20   14.34
 -11   5   2   54.26   14.81
  11   5  -2   78.41   14.77
  12   0   2   38.85   11.33
 -12   0   2   73.84   15.47
  12   0  -2   46.14   11.56
 -12   0   2   53.68   11.55
 -12   0  -2   59.55   14.89
  12   2   2   -7.70    3.90
 -12  -2   2    6.29    6.18
 -12  -2   2   -3.49    5.10
  12   2   2    4.07    5.33
  12  -2  -2    6.92    7.35
 -12   2  -2   -1.18    6.46
 -12   2   2    7.86    6.38
 -12  -2  -2    4.34    7.25
 -12   2   2    9.15    7.52
  12   2  -2   -3.82    4.66
  12  -2   2    3.99    5.95
  12   4   2   94.97   17.71
 -12  -4   2   91.95   18.35
  12   4   2   71.61   15.89
 -12   4  -2   88.38   15.43
 -12   4  -2   63.99   16.53
  12  -4  -2   84.60   17.22
 -12   4   2   48.69   15.53
  12   4  -2   66.36   15.29
  12   4  -2   60.61   13.61
  12  -4   2   46.15   13.98
 -12  -4  -2   94.22   19.94
 -12   4   2   99.97   18.09
 -12   6  -2   -2.18    9.48
  12   6   2    2.44    7.99
 -12  -6   2   -1.34    8.01
 -12   6  -2    2.19    7.70
 -12   6   2    1.89    9.79
 -12  -6  -2    4.28    8.40
 -12   6   2    2.90    8.04
  12   6  -2   -4.38    6.85
  13   1   2   14.77    8.12
 -13   1  -2   21.97   10.85
 -13  -1   2   16.37    9.40
 -13  -1   2   13.31    6.93
  13  -1  -2    5.60    6.24
 -13   1   2    7.34    6.20
 -13   1   2   18.93    9.62
  13  -1   2   19.99   10.20
 -13  -1  -2   23.43   12.02
  13   1  -2   32.73   11.43
  13   3   2   25.40    9.33
  13  -3  -2   37.74   12.49
 -13  -3   2   13.77    8.42
  13   3   2   13.31    9.05
 -13   3  -2   10.64    9.99
  13  -3   2    1.26    7.24
 -13  -3  -2   33.85   12.10
 -13   3   2   11.34    7.83
  13   3  -2    9.47    8.23
 -13   3   2    5.08    8.24
  13  -5  -2   19.46    9.65
 -13  -5   2   -1.72    6.73
  13   5   2   10.64    9.41
  13   5   2    7.16    8.40
 -13   5  -2   15.36   11.54
 -13  -5  -2    7.82    9.24
  13  -5   2    6.94    8.57
  13   5  -2   -9.46    6.65
 -13   5   2   11.96    9.23
 -13   5   2    3.98    9.05
 -14   0  -2   44.66   13.63
  14   0   2   33.89   13.81
  14   0  -2   18.52    9.72
 -14   0   2   15.69    9.23
  14  -2  -2    8.93    8.15
 -14  -2   2    3.50    7.27
 -14   2  -2   16.22   10.16
  14   2   2    5.70    7.02
  14   2  -2   20.64   10.52
 -14   2   2   11.34    9.57
 -14   2   2   16.41    8.84
 -14  -2  -2    9.64   10.15
  14  -2   2   12.25    8.35
 -14  -4   2   26.94   13.05
  14   4   2   38.54   13.94
  14  -4  -2   60.63   15.69
 -14   4  -2   22.20   11.96
  14  -4   2   42.73   15.31
 -14   4   2   25.14   11.86
 -14   4   2   12.08   10.35
  14   4  -2   62.84   17.23
 -14  -4  -2   22.57   12.42
 -15  -1   2    7.70    7.63
 -15   1  -2   28.99   12.13
  15  -1  -2   19.79   10.47
  15   1   2    8.73    8.34
 -15  -1  -2   15.32   11.07
 -15   1   2   -6.00    6.82
  15  -1   2    5.89    7.44
  15   1  -2   -6.00    5.99
 -15  -3   2   -9.10    6.13
 -15   3  -2   -1.95    8.05
  15   3   2   14.11   10.28
  15  -3  -2    6.88    9.76
  15  -3   2    5.16    7.72
  15   3  -2    1.79    8.72
 -15  -3  -2    7.95    9.66
 -15   3   2   -5.08    7.92
   0   0  -3   -0.84    2.79
   0   0   3    0.18    3.16
   0   0   3   -6.74    2.59
   0   0  -3   -1.75    2.20
   0  -2   3    0.03    1.98
   0  -2   3    4.88    3.88
   0   2  -3    0.38    3.16
   0   2   3    5.33    3.44
   0  -2  -3    6.42    4.79
   0  -2  -3    1.31    2.49
   0   2   3   -1.15    3.24
   0   2  -3    0.41    3.21
   0  -4  -3   38.09    9.98
   0  -4  -3   20.37    2.70
   0  -4   3   18.38    5.76
   0  -4   3   20.35    7.15
   0   4  -3   25.18    5.51
   0   4  -3   23.95    6.78
   0   4   3   14.43    5.63
   0   4   3   10.45    5.36
   0   6   3   90.71   15.61
   0  -6  -3   68.00   14.90
   0  -6   3   76.19   13.71
   0   6   3  105.94   15.97
   0  -6   3   81.52   15.81
   0   6  -3   77.24   14.30
   0  -8   3   40.29   13.41
   0   8   3   14.40    9.54
   0  -8  -3   52.37   16.98
   0  -8   3   35.01   11.27
   0   8   3   48.91   12.80
   0   8  -3   23.03   10.18
  -1   1  -3  291.98   27.58
   1   1   3  325.00   27.86
  -1   1  -3  291.92   26.19
  -1   1  -3  294.62   27.46
   1  -1  -3  299.37   27.02
  -1  -1   3  292.18   25.51
   1  -1  -3  305.29   27.73
   1   1   3  297.75   26.71
  -1  -1   3  292.63   28.26
  -1  -1  -3  310.14   27.16
   1  -1   3  294.07   27.24
   1   1  -3  281.66   27.36
   1   1  -3  309.48   27.01
  -1   1   3  306.90   27.62
  -1   1   3  283.27   26.89
   1  -3  -3  372.47   31.82
  -1  -3   3  322.10   34.56
  -1  -3   3  356.32   32.43
   1   3   3  350.08   33.19
  -1   3  -3  375.81   34.24
   1  -3  -3  355.58   35.40
   1   3   3  376.05   33.96
  -1   3  -3  369.26   33.64
  -1   3  -3  354.95   32.83
  -1   3   3  341.80   33.06
   1   3  -3  350.91   33.70
   1   3  -3  355.39   33.00
  -1   3   3  329.61   33.79
  -1  -3  -3  372.85   35.81
  -1  -3  -3  363.68   31.44
   1  -3   3  352.50   32.95
   1   5   3  210.50   26.26
  -1   5  -3  266.60   28.93
  -1  -5   3  232.54   28.70
  -1   5  -3  231.26   26.68
  -1   5  -3  226.60   22.04
   1   5   3  230.68   26.67
   1  -5  -3  161.68   26.61
  -1  -5   3  234.04   23.96
   1  -5   3  239.91   27.22
  -1  -5  -3  231.84   30.60
  -1   5   3  214.90   26.62
  -1   5   3  226.23   25.41
   1   5  -3  223.99   26.64
   1   5  -3  234.93   22.05
  -1  -7   3   43.15   11.58
   1   7   3   81.10   14.89
  -1   7  -3   41.86   11.71
  -1  -7   3   93.38   17.90
   1  -7  -3   67.42   17.67
   1   7   3   71.86   14.37
  -1   7  -3   67.08   14.02
  -1   7   3   87.90   15.92
  -1   7   3   83.57   14.85
   1   7  -3   50.11   13.12
   1  -7   3   81.43   15.55
  -1  -7  -3   74.11   16.10
  -1   9  -3    9.32    8.45
  -1  -9   3   11.92   10.28
   1   9   3   26.49   11.16
   1   9   3   22.76   10.01
   1  -9  -3   12.45   10.60
  -1  -9  -3    8.22    9.82
   1  -9   3   27.04   12.61
   1   9  -3   -3.82    7.17
  -1   9   3   21.89   10.55
  -1   9   3   30.33   11.55
  -2   0   3   -3.38    3.73
   2   0   3    0.01    3.72
   2   0  -3    1.12    2.60
  -2   0  -3    5.44    3.31
   2   0   3    1.62    2.06
  -2   0   3   -0.68    2.16
  -2   0  -3   -2.59    2.73
   2   0  -3   -4.13    1.83
   2   2   3   -0.95    2.15
   2  -2  -3   -1.44    3.30
  -2   2  -3    1.87    3.45
  -2   2  -3    1.93    2.78
   2   2   3    6.82    4.14
  -2   2  -3   -0.29    2.78
  -2  -2   3    1.56    2.20
  -2  -2   3   -1.92    3.44
   2  -2  -3    3.57    2.55
  -2   2  -3    1.05    2.74
   2   2  -3    0.57    2.88
  -2  -2  -3   10.97    4.74
  -2   2   3    0.68    3.55
  -2  -2  -3    3.49    2.38
   2   2  -3    5.82    3.42
  -2   2   3    3.26    2.71
  -2   4  -3    5.22    4.38
  -2  -4   3   15.63    4.63
   2  -4  -3   13.20    3.18
   2   4   3   21.62    5.87
   2   4   3   20.63    6.52
  -2  -4   3   18.00    6.83
  -2   4  -3   17.81    4.77
  -2   4  -3    4.59    4.41
   2  -4  -3   36.04    9.36
  -2  -4  -3   14.69    3.10
  -2   4   3   32.47    7.54
  -2   4   3   14.41    4.99
   2   4  -3   20.21    5.93
   2   4  -3   16.42    4.92
  -2  -4  -3   13.29    6.22
   2  -4   3   19.64    5.80
  -2  -6   3   44.41   11.68
  -2  -6   3   43.02    9.83
  -2   6  -3   28.32    9.76
  -2   6  -3   39.29   10.15
   2   6   3   54.53   11.82
   2  -6  -3   31.07   11.32
   2   6   3   52.69   10.88
   2  -6   3   30.34    9.52
  -2   6   3   48.30   12.57
  -2   6   3   62.30   10.96
   2   6  -3   28.15    9.29
  -2  -6  -3   53.93   14.17
   2   8   3   49.83   13.40
  -2   8  -3   45.63   13.01
  -2  -8   3   22.55   11.37
  -2   8  -3   25.32   10.46
   2   8   3   63.29   13.52
   2  -8  -3   30.63   12.70
  -2   8   3   31.34   11.59
  -2  -8  -3   37.88   13.20
   2  -8   3   31.82   11.26
  -2   8   3   36.51   10.94
   2   8  -3   14.56    9.17
  -3   1  -3    1.19    3.02
  -3   1  -3    0.74    2.27
  -3  -1   3    1.93    4.62
   3   1   3   -3.49    3.25
  -3  -1   3   -0.15    2.10
  -3   1  -3   -3.39    2.91
  -3   1  -3   -0.62    2.95
   3  -1  -3   -0.68    2.82
   3   1   3   -0.65    1.07
  -3   1   3   -2.47    2.73
   3   1  -3    1.14    3.17
   3   1  -3   -3.62    2.18
  -3  -1  -3   -7.14    2.71
  -3   1   3    0.66    1.59
  -3   1   3    4.58    3.40
  -3  -1  -3   -0.14    2.57
  -3   3  -3   -0.50    2.61
  -3   3  -3    0.92    3.10
  -3  -3   3   -4.47    3.28
  -3  -3   3    3.96    3.04
   3  -3  -3   -1.83    2.28
  -3   3  -3    7.97    4.24
  -3   3  -3    3.11    3.97
   3   3   3    5.48    2.91
   3   3   3    7.00    4.50
   3  -3  -3    1.75    4.77
   3   3  -3    1.81    3.77
  -3   3   3    2.44    2.98
  -3  -3  -3   -2.10    1.85
  -3   3   3   -3.64    3.17
   3   3  -3   -0.39    2.55
  -3  -3  -3   -0.57    3.63
  -3  -5   3    5.26    3.84
  -3  -5   3    4.18    5.11
   3   5   3    3.19    4.98
  -3   5  -3    0.77    4.48
   3  -5  -3    2.26    5.05
   3   5   3   -1.31    3.11
  -3   5  -3    5.90    3.30
  -3   5  -3   -2.07    3.74
  -3   5   3   -0.88    3.23
  -3   5   3   11.77    5.99
  -3  -5  -3    1.57    5.70
   3   5  -3    7.60    4.03
   3   5  -3    4.07    4.77
   3  -5   3   -1.09    3.98
   3   7   3   -8.00    3.86
  -3  -7   3   -3.38    5.79
   3   7   3    7.53    7.31
  -3  -7   3   -4.40    4.34
  -3   7  -3    3.66    5.64
  -3   7  -3  -10.12    4.76
   3  -7  -3    3.09    7.05
  -3   7   3   -2.05    5.19
  -3   7   3    5.83    6.58
   3   7  -3    4.44    6.46
   3  -7   3   -0.09    5.26
  -3  -7  -3  -10.64    5.43
   3   9   3   24.37   11.01
  -3   9  -3    5.35    9.26
  -3  -9   3   24.29   11.35
  -3   9  -3    4.44    7.97
   3   9   3    6.20    8.09
   3  -9  -3    5.75    9.88
   3   9  -3    0.43    7.62
  -3   9   3   25.76   10.83
  -3   9   3    4.43    8.44
  -3  -9  -3    8.76   10.07
  -4   0  -3    0.58    2.81
   4   0  -3   -1.09    1.45
   4   0  -3   -1.05    2.79
  -4   0   3   -3.38    3.83
   4   0   3    2.70    3.51
  -4   0   3    1.55    2.73
  -4   0  -3   -1.84    3.25
   4   0   3   -0.93    1.24
  -4  -2   3   15.74    6.27
  -4  -2   3    7.90    3.64
  -4   2  -3    4.32    3.61
  -4   2  -3   15.26    5.20
   4   2   3   15.75    5.55
  -4   2  -3   11.15    4.50
   4  -2  -3   15.92    4.78
  -4   2  -3   12.56    4.11
  -4  -2  -3    6.16    4.76
   4   2  -3   11.34    4.26
  -4   2   3    5.12    4.68
   4   2  -3    4.99    4.20
  -4  -2  -3   13.06    4.43
  -4   2   3    8.48    2.34
  -4   2   3    7.84    4.69
  -4   4  -3   14.63    4.94
   4  -4  -3   10.09    5.93
  -4  -4   3   13.54    6.73
  -4  -4   3   14.80    5.22
  -4   4  -3   11.79    5.52
   4   4   3    9.57    5.44
  -4   4  -3    8.69    5.18
   4  -4  -3   14.64    4.39
   4   4   3   17.83    4.90
   4   4   3   19.73    5.17
  -4   4  -3   10.47    4.95
   4   4  -3   17.59    6.73
   4   4  -3   15.17    4.95
  -4   4   3   11.68    5.94
  -4  -4  -3   13.68    6.43
  -4   4   3    7.63    4.04
  -4  -6   3   25.61    8.29
  -4  -6   3   26.61    9.61
   4   6   3   30.06   10.20
   4  -6  -3   25.31    9.69
  -4   6  -3   26.96    9.12
   4   6   3   16.72    7.38
  -4   6  -3   24.25    8.07
  -4   6   3   27.42   10.44
  -4  -6  -3   24.74    9.95
  -4   6   3   25.76    7.71
   4  -6   3   21.48    9.67
   4   6  -3   25.51    9.52
   4   8   3   42.14   12.78
  -4  -8   3   14.00   10.29
  -4   8  -3   50.16   12.92
   4  -8  -3   46.04   15.09
   4   8   3   45.80   12.67
  -4   8  -3   22.24   10.27
   4  -8   3   29.96   11.98
  -4  -8  -3    8.74    9.37
  -4   8   3   21.48    9.67
   4   8  -3   40.85   13.06
  -4   8   3   25.04   11.43
   5  -1  -3  122.52   18.48
  -5   1  -3  174.91   16.51
  -5  -1   3  147.17   20.16
  -5   1  -3  156.53   19.95
  -5  -1   3  187.46   18.11
   5   1   3  187.86   20.90
  -5   1  -3  185.96   20.46
  -5  -1  -3  167.01   17.99
   5  -1   3  141.75   19.18
   5   1  -3  172.75   20.56
  -5   1   3  174.84   20.11
   5   1  -3  179.57   16.56
  -5  -1  -3  234.73   23.72
  -5   1   3  219.98   22.56
  -5   3  -3  193.35   21.86
   5   3   3  182.30   22.05
  -5   3  -3  170.45   19.96
  -5   3  -3  187.38   20.51
   5  -3  -3  173.14   19.96
  -5  -3   3  178.68   22.82
  -5  -3   3  202.69   21.05
  -5   3  -3  182.57   20.78
  -5  -3  -3  196.93   23.85
  -5   3   3  160.97   21.71
  -5  -3  -3  162.98   17.66
   5   3  -3  153.94   20.29
  -5   3   3  148.72   16.06
  -5  -3  -3  168.81   17.23
   5   3  -3  149.91   19.37
  -5   3   3  181.24   22.56
  -5  -5   3  104.59   15.81
   5   5   3  101.52   13.23
   5  -5  -3   99.67   18.93
  -5  -5   3  110.70   18.13
   5  -5  -3  108.01   13.86
  -5   5  -3   95.30   16.26
  -5   5  -3   78.65   13.86
   5   5   3  102.48   17.40
  -5   5  -3  122.95   15.64
   5   5  -3  113.81   14.91
  -5   5   3  109.26   18.45
  -5   5   3  108.53   14.09
   5   5  -3  146.10   19.16
  -5  -5  -3   67.66   15.56
   5  -5   3  101.31   16.82
  -5  -5  -3  109.58   15.93
  -5  -7   3   26.63   11.61
   5   7   3   40.70   12.42
   5  -7  -3   51.89   14.85
  -5  -7   3   52.44   13.00
  -5   7  -3   42.93   12.07
  -5   7  -3   67.60   13.13
   5  -7   3   34.76   11.29
  -5   7   3   67.98   15.55
  -5  -7  -3   45.13   12.28
  -5  -7  -3   75.29   16.78
   5   7  -3   50.81   13.98
  -5   7   3   37.50    9.88
   6   0  -3    2.10    1.53
  -6   0   3    1.91    3.40
   6   0   3   -2.98    3.37
  -6   0  -3    2.16    3.86
  -6   0   3    0.66    4.27
   6   0  -3    2.44    3.83
  -6   0  -3    2.64    1.79
  -6   0  -3    0.90    3.90
  -6   2  -3   -5.53    2.82
  -6  -2   3   -2.01    2.87
   6  -2  -3   -2.35    3.01
  -6   2  -3   -0.94    3.65
   6   2   3    4.52    3.75
  -6   2  -3   -4.54    2.70
  -6  -2   3   -5.45    3.49
  -6   2  -3    3.84    2.99
  -6  -2  -3   -1.17    2.02
   6   2  -3   -2.26    3.03
  -6   2   3   -1.86    3.28
  -6  -2  -3   -1.09    3.47
   6   2  -3   -1.45    2.30
  -6  -2  -3    0.39    3.49
  -6   2   3   -3.01    3.53
   6  -4  -3   17.20    5.64
  -6   4  -3   11.05    5.26
   6   4   3   -1.20    3.93
  -6  -4   3   18.39    7.58
  -6  -4   3   13.14    5.57
   6  -4  -3   18.61    7.85
   6   4   3   13.71    4.98
  -6   4  -3   14.74    5.87
  -6   4  -3   15.86    5.93
  -6   4  -3   17.39    7.41
   6   4  -3   -0.48    4.24
  -6   4   3   20.34    7.23
  -6  -4  -3   10.62    4.85
  -6   4   3    8.98    6.63
  -6   4   3   20.72    4.60
  -6  -4  -3    2.31    5.17
   6   4  -3    9.20    5.27
  -6   6  -3   58.40   13.93
  -6   6  -3  110.81   15.54
  -6  -6   3   65.41   13.87
   6  -6  -3   84.62   18.96
  -6  -6   3   34.15   11.98
   6   6   3   59.08   14.11
  -6   6  -3   77.82   16.88
  -6   6   3   43.98   13.04
   6   6  -3   75.22   15.15
  -6  -6  -3   51.89   14.94
   6  -6   3   66.94   15.32
  -6  -6  -3   56.75   12.13
  -6   6   3   68.49   17.08
  -6   8  -3   35.89   10.80
   6   8   3   42.18   13.04
   6  -8  -3   42.37   16.23
  -6   8  -3   21.66   10.35
  -6  -8   3   36.87   13.41
   6   8  -3   41.70   13.65
  -6  -8  -3   16.47   11.02
  -6   8   3   34.60   11.92
   6  -8   3   30.43   12.10
  -7   1  -3  234.48   25.99
   7  -1  -3  238.27   24.41
  -7   1  -3  226.65   21.35
  -7  -1   3  212.96   23.53
  -7  -1   3  234.63   27.20
  -7   1  -3  310.64   30.62
   7   1   3  183.81   24.17
   7   1  -3  215.17   20.99
   7   1  -3  176.82   25.07
  -7   1   3  250.60   27.16
  -7  -1  -3  218.96   19.72
  -7   1   3  249.29   27.46
   7  -1   3  211.09   24.80
  -7  -1  -3  269.23   27.97
  -7  -1  -3  241.03   28.04
   7  -3  -3  300.80   32.07
  -7   3  -3  323.60   32.32
  -7   3  -3  335.97   33.47
   7   3   3  312.46   32.68
  -7  -3   3  311.09   32.28
  -7  -3   3  342.84   34.33
  -7   3  -3  319.44   31.57
  -7   3  -3  330.23   31.66
   7   3   3  333.47   32.94
   7   3  -3  330.95   31.53
  -7   3   3  315.00   34.15
   7   3  -3  329.68   33.09
  -7  -3  -3  322.28   34.21
  -7  -3  -3  305.25   30.05
  -7   3   3  329.17   33.37
  -7   5  -3  289.35   32.73
   7   5   3  185.11   27.92
   7   5   3  223.41   26.38
  -7  -5   3  264.25   29.91
   7  -5  -3  279.60   35.30
  -7   5  -3  212.75   26.68
  -7   5  -3  235.68   28.12
  -7  -5   3  205.02   29.76
  -7   5  -3  227.02   28.20
   7  -5  -3  262.55   25.04
  -7  -5  -3  225.93   31.97
  -7   5   3  213.18   29.58
   7   5  -3  249.20   29.30
   7   5  -3  197.40   27.11
  -7  -5  -3  255.61   27.68
  -7  -7   3   71.96   16.42
  -7  -7   3   79.24   15.83
   7   7   3   91.96   17.41
  -7   7  -3   84.95   16.53
  -7   7  -3   73.50   14.43
   7  -7  -3   85.60   20.20
   7   7  -3   52.82   14.79
   7  -7   3   61.82   16.07
  -7   7   3   69.19   16.21
  -7  -7  -3   33.85   13.50
  -8   0  -3    2.92    3.79
   8   0  -3    4.46    4.75
  -8   0   3    1.04    4.51
   8   0   3   -5.30    2.74
  -8   0  -3   -1.67    3.93
   8   0  -3   -0.91    1.57
  -8   0  -3    0.26    1.99
  -8   0   3   -5.00    2.45
   8  -2  -3    1.31    4.19
  -8   2  -3    8.83    4.27
  -8  -2   3    1.10    3.91
  -8   2  -3    0.54    4.43
   8   2   3    1.87    3.93
  -8  -2   3    1.35    4.25
   8   2   3   -3.97    3.29
  -8   2  -3   -0.67    4.62
   8   2  -3    3.01    4.92
  -8  -2  -3    3.10    3.74
  -8   2   3   -0.89    4.13
  -8  -2  -3    1.57    3.06
   8   2  -3   -0.30    2.64
   8  -2   3    5.39    4.20
  -8   2   3   -2.02    4.19
  -8  -2  -3   -2.99    3.60
  -8   4  -3   -1.24    4.61
  -8   4  -3   12.30    5.89
   8   4   3   11.27    5.90
  -8   4  -3   17.47    7.78
  -8  -4   3   12.42    7.39
  -8   4  -3    5.61    5.68
  -8  -4   3    8.22    5.62
   8   4   3    6.55    6.89
   8  -4  -3   14.15    6.35
   8   4  -3    1.74    4.18
  -8   4   3   20.84    9.15
  -8  -4  -3   17.91    9.04
  -8   4   3   -0.29    7.01
   8   4  -3    5.56    5.28
   8  -6  -3   38.32   12.91
  -8   6  -3   37.17   11.74
   8   6   3   76.69   16.54
  -8   6  -3   53.85   14.15
  -8   6  -3   61.11   12.16
  -8  -6   3   50.10   12.81
  -8  -6   3   34.51   11.83
  -8   6   3   42.40   13.80
  -8  -6  -3   39.41   12.35
   8   6  -3   41.60   12.04
   8  -8  -3   15.37   12.24
   8   8   3   45.07   14.48
  -8  -8   3    5.91    9.74
  -8   8  -3    9.75    8.70
   8   8  -3   52.52   15.30
   8  -8   3   29.48   13.67
  -8  -8  -3   17.12   10.46
  -8   8   3   23.61   12.24
  -9  -1   3    1.02    4.69
  -9   1  -3   -6.43    3.98
  -9   1  -3    4.99    3.17
   9   1   3   -2.71    3.01
  -9   1  -3    2.77    4.53
   9  -1  -3   -4.42    3.25
  -9  -1   3   -2.28    4.49
  -9  -1  -3   -3.31    3.76
  -9   1   3   -0.49    4.11
  -9   1   3   -3.62    3.78
   9   1  -3    1.83    2.54
   9  -1   3   -6.69    2.77
   9   1  -3   -0.03    3.83
  -9  -1  -3    3.79    5.50
  -9   3  -3   -3.80    3.99
  -9  -3   3   -0.74    5.04
  -9   3  -3   -4.50    4.54
   9  -3  -3   -3.44    3.68
  -9  -3   3    5.33    5.23
   9   3   3    6.67    5.69
   9   3   3   -4.36    4.32
  -9   3  -3   -1.96    3.87
   9  -3   3   -2.15    4.46
  -9  -3  -3    0.39    4.38
   9   3  -3    1.31    4.76
  -9   3   3   -4.11    3.90
  -9   3   3    1.55    6.23
   9   3  -3    3.02    4.33
   9   5   3   -5.26    4.24
  -9   5  -3    1.95    5.05
  -9   5  -3   -3.42    4.97
  -9  -5   3    7.45    7.22
   9   5   3    0.70    5.68
  -9  -5   3    1.67    5.83
   9  -5  -3    5.73    6.28
  -9   5  -3    5.55    6.07
  -9   5  -3    2.24    6.89
   9   5  -3    2.49    5.54
  -9   5   3    2.62    7.20
  -9   5   3    3.48    7.94
   9   5  -3   -7.29    4.22
  -9  -5  -3   -6.24    5.09
   9  -7  -3   -1.52    7.27
  -9  -7   3    0.43    8.90
  -9   7  -3   -4.09    6.24
   9   7   3    4.23    9.14
  -9   7   3   13.57    9.81
  -9  -7  -3    5.27    7.90
   9   7  -3    9.11    7.20
   9  -7   3   -3.95    6.99
 -10   0   3   -1.38    4.34
  10   0   3    3.64    4.48
  10   0   3    6.22    6.94
 -10   0  -3    1.03    6.07
 -10   0   3    4.88    5.84
  10   0  -3    2.82    4.99
  10  -2  -3    0.95    4.91
  10   2   3    5.27    5.40
 -10  -2   3    1.10    5.27
 -10   2  -3    5.66    6.34
 -10  -2   3    0.05    4.73
 -10   2  -3    1.40    6.18
 -10   2  -3    4.71    4.26
  10   2   3   -7.21    3.85
 -10   2   3   12.12    7.51
  10   2  -3    1.95    5.59
  10   2  -3    4.72    3.93
 -10  -2  -3    7.36    7.48
 -10   2   3    8.83    5.72
  10  -2   3    5.19    5.08
  10  -4  -3   10.54    6.81
  10   4   3    9.97    7.62
 -10   4  -3   10.53    7.95
  10   4   3   14.93    7.56
 -10   4  -3    3.02    5.32
 -10  -4   3    8.25    7.60
 -10  -4   3   15.91    7.56
  10  -4   3   -1.56    6.20
 -10   4   3   20.18   10.57
 -10  -4  -3   -0.36    6.66
  10   4  -3    2.34    5.88
  10   4  -3    7.91    5.90
 -10   4   3   13.07    8.57
  10  -4   3    3.57    6.20
 -10   6  -3   20.51   11.31
 -10  -6   3    8.06    7.69
  10   6   3   11.03    9.70
 -10  -6   3   11.46    9.48
  10  -6  -3   11.49    9.09
 -10   6  -3   15.16    8.81
 -10   6   3   14.26    9.69
  10  -6   3   23.67    9.65
  10   6  -3   19.89    9.46
 -10  -6  -3   22.33   12.04
 -11   1  -3   51.12   13.24
  11   1   3   51.74   13.00
  11   1   3   50.83   10.71
 -11  -1   3   70.72   14.14
  11  -1  -3   72.67   15.51
 -11  -1   3   44.80   11.19
  11   1  -3   17.35    8.51
 -11   1   3   63.99   13.52
  11  -1   3   27.25   10.76
 -11  -1  -3   36.29   11.52
 -11   1   3   51.22   12.17
  11  -1   3   56.96   10.77
 -11   3  -3   19.00    9.70
 -11  -3   3   31.05   10.61
 -11  -3   3   35.73   11.45
 -11   3  -3   31.72    9.00
  11   3   3   23.50   10.24
  11  -3  -3   34.13   11.09
  11   3   3   52.27   11.84
 -11   3   3   52.28   12.03
  11   3  -3   34.11   11.60
  11  -3   3   55.93   13.93
 -11  -3  -3   41.42   12.73
 -11   3   3   44.97   12.81
 -11   5  -3   21.87   10.82
  11  -5  -3   20.22    9.88
 -11  -5   3   16.71   10.67
  11   5   3   22.52   10.37
 -11  -5   3   19.16    9.51
  11   5   3   12.18    8.16
 -11   5  -3   23.34    9.46
  11   5  -3   17.85    8.84
  11  -5   3   18.63    9.58
 -11   5   3   30.44   11.85
  11   5  -3   26.28   10.69
 -11  -5  -3   15.79    9.18
 -11   5   3   28.43   12.85
 -12   0  -3    3.08    7.48
  12   0  -3   -5.18    3.84
  12   0   3   -0.22    4.29
  12   0   3    0.71    5.48
 -12   0   3    2.41    5.11
 -12   0   3   -0.49    4.80
  12  -2  -3   -1.75    6.12
 -12  -2   3    8.05    6.93
 -12  -2   3    3.41    5.46
  12   2   3   10.29    6.52
 -12   2  -3   -4.77    5.61
  12   2   3   -0.30    4.50
 -12   2   3    6.79    7.49
 -12   2   3    5.27    6.20
  12   2  -3    1.55    5.88
 -12  -2  -3    6.15    7.74
  12  -2   3   -0.45    6.16
  12   4   3    6.46    7.24
 -12  -4   3   14.71    9.05
  12  -4  -3    2.41    5.76
  12   4   3   -0.75    6.29
 -12   4  -3    1.06    6.66
 -12  -4   3    4.75    7.44
 -12   4   3    7.16    9.07
  12  -4   3   14.41    9.07
 -12   4   3    1.24    6.74
  12   4  -3   10.07    8.43
 -12  -4  -3   12.25    8.46
 -12   6  -3   31.34   13.99
  12  -6  -3    2.11    9.36
  12   6   3   39.47   13.82
 -12   6  -3    5.53    7.74
 -12  -6   3   18.15   10.65
  12   6  -3   10.50    8.94
 -12   6   3   12.61   10.13
  12  -6   3   12.09    9.30
 -12  -6  -3   12.56    9.62
 -13  -1   3  111.86   19.27
  13   1   3  136.26   25.30
 -13   1  -3  138.54   23.86
  13  -1  -3  166.22   26.77
 -13  -1   3  113.94   21.41
 -13   1   3  153.51   24.34
  13   1  -3  105.53   21.94
  13  -1   3  151.17   24.98
 -13   1   3  131.57   21.06
 -13  -1  -3  145.70   24.40
 -13   3  -3  169.02   27.22
  13  -3  -3  136.66   24.55
  13   3   3  105.12   22.71
 -13  -3   3  168.23   26.29
  13   3   3  180.64   24.50
 -13  -3   3  130.58   24.36
 -13   3   3  200.07   30.55
 -13   3   3  155.17   25.15
  13   3  -3  159.67   27.35
  13  -3   3  171.70   27.97
 -13  -3  -3  194.11   31.20
  13   5   3  148.23   23.47
  13  -5  -3  163.00   25.26
 -13   5  -3  137.39   25.59
  13   5   3  112.46   22.61
 -13  -5   3  105.15   21.06
  13  -5   3  135.28   24.79
  13   5  -3   85.99   21.16
 -13   5   3  117.29   24.84
 -13  -5  -3  133.08   25.86
 -13   5   3   98.48   20.88
 -14   0  -3   -1.50    6.86
 -14   0   3   -3.86    6.29
  14   0   3   -2.60    5.42
 -14   0   3   -2.57    6.39
  14   0  -3   -8.79    4.15
  14   2   3   -6.22    5.35
  14  -2  -3    0.98    6.80
 -14  -2   3    4.43    7.58
 -14   2  -3    8.07    8.21
 -14   2   3    0.26    6.82
  14  -2   3    2.76    6.61
  14   2  -3    3.93    7.80
 -14   2   3    1.75    7.06
 -14  -2  -3    3.78    7.87
 -14   4  -3   -0.29    7.67
  14  -4  -3   -1.90    7.85
  14   4   3    5.41    8.17
  14   4   3   23.89   10.54
 -14  -4   3   -1.46    7.20
  14  -4   3   25.65   12.52
 -14   4   3    8.22    9.74
 -14  -4  -3    5.80    8.76
 -14   4   3   11.34    9.76
  14   4  -3    3.03    7.99
  15  -1  -3   -3.01    6.12
 -15   1  -3   -4.46    7.10
 -15  -1   3   -4.55    5.87
  15   1   3   -0.07    6.45
 -15  -1  -3    2.34    9.68
  15   1  -3   -0.56    7.02
  15  -1   3    1.09    7.23
 -15   1   3   -5.34    6.70
   0   0  -4  358.28   32.84
   0   0  -4  355.95   31.63
   0   0   4  340.68   32.82
   0   0   4  360.31   32.69
   0  -2   4  151.28   17.55
   0  -2  -4  149.37   17.99
   0  -2   4  134.85   12.27
   0   2   4  127.26   15.54
   0   2  -4  142.17   16.59
   0   2  -4  131.30   15.68
   0  -2  -4  121.99   13.92
   0   2   4  146.23   14.70
   0   4   4  196.95   24.69
   0  -4   4  230.00   22.58
   0  -4  -4  237.86   20.79
   0   4   4  219.34   23.77
   0   4  -4  226.16   23.90
   0   4  -4  225.48   22.68
   0  -4   4  256.32   28.23
   0  -6   4   13.58    6.08
   0   6   4   27.29    8.28
   0   6   4   40.63    9.84
   0  -6   4   17.41    8.32
   0   6  -4   19.29    8.44
   0  -6  -4   13.66    7.76
   0   8   4  155.02   22.28
   0   8  -4  162.19   22.92
   0   8   4  121.21   20.72
   0  -8   4  106.61   22.55
   0  -8  -4   95.59   22.08
  -1   1  -4   33.77    4.72
  -1   1  -4   28.26    6.56
  -1   1  -4   26.71    6.35
   1  -1  -4   38.98    6.60
   1  -1  -4   38.79    6.99
   1   1   4   44.43    7.70
  -1  -1   4   34.90    7.88
   1   1   4   30.48    5.44
   1  -1   4   29.19    6.10
  -1  -1  -4   17.21    5.57
  -1  -1  -4   35.57    6.38
   1   1  -4   42.73    6.35
   1   1  -4   40.08    6.99
  -1   1   4   28.37    5.96
  -1   1   4   41.15    7.32
  -1   3  -4   -4.16    2.81
  -1   3  -4   -4.17    2.69
  -1  -3   4   -0.82    3.34
   1   3   4    4.02    3.51
  -1  -3   4    3.93    2.60
   1  -3  -4   -1.21    3.63
   1  -3  -4   -1.78    2.24
   1   3   4   -6.21    3.24
   1  -3   4   11.93    5.62
  -1  -3  -4   -1.81    4.16
   1   3  -4   -1.49    2.62
  -1  -3  -4   -0.27    2.16
  -1   3   4    5.59    4.45
   1  -3   4    0.89    2.43
  -1   3   4   -2.86    3.01
   1   3  -4    0.10    3.83
  -1   5  -4   54.14   11.31
  -1  -5   4   66.33   10.21
   1  -5  -4   71.80   14.97
  -1   5  -4   75.02   10.51
  -1  -5   4   33.56   10.47
   1   5   4   58.54   10.85
   1   5   4   34.08    9.25
  -1   5   4   62.08   11.10
   1   5  -4   71.23   12.31
   1  -5   4   46.71   11.36
  -1   5   4   50.40   11.47
  -1  -5  -4   27.26    9.90
   1  -5   4   62.64   10.67
   1   5  -4   56.11    9.45
  -1  -7   4   -0.97    7.07
   1   7   4   -2.31    5.44
  -1   7  -4    9.06    7.51
   1   7   4    4.04    5.49
   1  -7  -4   -6.68    7.23
   1  -7   4   -2.62    4.97
  -1  -7  -4   -5.34    5.08
   1   7  -4    2.14    6.58
  -1   7   4    6.09    7.00
   1  -7   4    9.49    5.50
  -1   7   4    5.81    6.32
   1   9   4   32.76   12.25
   1   9   4   38.38   12.10
  -1   9  -4    4.12    9.36
   1  -9  -4   35.42   15.50
  -1  -9   4   20.16   12.38
  -1  -9  -4   30.24   13.95
   1   9  -4   26.05   11.91
   1  -9   4   10.91   10.44
  -1   9   4    7.09    9.03
  -1   9   4   20.41   10.84
  -2   0  -4  833.39   71.33
   2   0   4  776.33   72.23
   2   0   4  841.69   70.69
  -2   0  -4  807.89   71.61
  -2   0   4  813.92   72.63
   2   0  -4  815.86   70.62
   2   0  -4  815.58   71.68
  -2   0   4  809.11   70.69
   2  -2  -4   12.54    4.02
  -2  -2   4   10.33    2.59
   2   2   4    4.92    3.09
   2   2   4    2.90    4.01
  -2  -2   4    4.92    4.31
  -2   2  -4    6.58    4.16
  -2   2  -4    6.46    4.17
   2  -2  -4    7.27    4.76
  -2   2  -4   17.75    3.91
  -2  -2  -4   12.12    3.64
  -2   2   4   11.56    5.22
  -2   2   4    8.71    3.54
   2   2  -4   10.97    4.33
   2  -2   4   10.02    4.58
   2   2  -4   22.68    5.15
  -2  -2  -4   13.02    5.05
   2  -4  -4  291.73   27.33
   2   4   4  278.93   28.92
  -2  -4   4  304.91   28.11
  -2   4  -4  265.48   30.08
   2  -4  -4  327.25   32.55
  -2   4  -4  304.60   28.92
  -2   4  -4  320.57   30.02
   2   4   4  271.02   30.01
  -2  -4   4  314.71   31.59
  -2  -4  -4  331.35   32.47
   2  -4   4  306.49   29.17
   2   4  -4  311.01   30.14
  -2   4   4  292.91   30.56
  -2   4   4  304.62   29.02
   2   4  -4  285.63   28.81
  -2  -4  -4  293.04   27.07
  -2  -6   4    1.46    4.37
  -2   6  -4    6.70    6.08
   2  -6  -4   -2.51    6.28
  -2   6  -4   -2.45    4.78
   2   6   4   -0.66    4.41
  -2  -6   4   -0.68    5.17
   2   6   4   -0.54    5.42
   2   6  -4   -2.11    5.54
  -2   6   4   -5.56    3.91
  -2   6   4    0.91    5.43
  -2  -6  -4   -3.50    5.70
   2  -6   4   -3.16    4.18
  -2  -8   4  136.94   24.88
   2  -8  -4  190.35   30.38
   2   8   4  165.72   23.78
  -2   8  -4  120.69   22.30
   2   8   4  142.30   23.33
  -2   8   4  142.71   21.88
  -2  -8  -4  122.29   24.79
   2  -8   4  150.48   26.78
   2   8  -4  137.75   23.36
  -2   8   4  227.49   30.39
  -3  -1   4    2.55    2.25
  -3   1  -4   -0.69    3.29
  -3   1  -4   -0.60    2.65
   3   1   4    3.14    3.52
  -3   1  -4    4.98    3.74
   3   1   4   -1.82    1.44
  -3  -1   4   -4.95    3.53
   3  -1  -4    5.61    3.45
  -3  -1  -4   -3.89    2.47
   3   1  -4    1.67    3.45
  -3   1   4    3.38    3.42
  -3   1   4    4.53    4.41
   3  -1   4   -1.45    2.49
   3   1  -4    3.04    2.80
  -3   1   4    1.20    2.39
  -3  -1  -4   -1.19    3.62
   3   3   4  136.40   15.11
  -3   3  -4  143.26   16.41
  -3  -3   4  134.29   13.95
  -3   3  -4  130.96   16.63
   3   3   4  180.29   19.82
   3  -3  -4  162.76   19.98
  -3   3  -4  111.46   15.89
   3  -3  -4  144.47   15.60
  -3  -3   4  165.52   20.38
  -3   3  -4  142.60   17.08
   3   3  -4  114.67   15.97
  -3  -3  -4  130.28   13.80
  -3   3   4  131.04   18.00
  -3   3   4  146.12   15.67
  -3  -3  -4   79.14   15.93
   3   3  -4  145.43   16.81
   3  -5  -4    3.67    5.19
  -3   5  -4   -0.93    3.26
   3   5   4    4.71    5.21
   3   5   4   -2.81    2.44
  -3   5  -4    7.73    5.35
  -3   5  -4    1.96    4.46
  -3  -5   4   -2.35    4.49
  -3  -5   4    3.92    4.00
   3  -5   4   -0.49    3.75
   3   5  -4    6.83    5.93
   3   5  -4   -2.62    3.36
  -3   5   4   -0.90    4.84
  -3   5   4   -2.74    3.19
  -3  -5  -4    1.04    5.45
  -3   7  -4   48.02   12.57
  -3  -7   4   48.90   13.78
   3  -7  -4   27.37   10.97
  -3   7  -4   37.00   10.82
   3   7   4   28.59    9.47
   3   7   4   52.46   13.56
  -3   7   4   66.10   14.94
  -3   7   4   40.72   10.64
   3  -7   4   29.47   11.33
   3   7  -4   42.53   12.77
  -3  -7  -4   24.57   12.23
   3  -9  -4   14.10   12.23
  -3   9  -4    5.69    7.85
   3   9   4    8.77    9.09
  -3  -9   4    7.18    9.60
   3   9   4    0.86    6.96
   3   9  -4   -5.34    7.81
  -3  -9  -4    3.08   10.07
   3  -9   4   -4.50    8.31
  -3   9   4    6.87    8.54
  -3   9   4   10.31    8.92
  -4   0   4  131.66   14.44
  -4   0   4  121.16   16.58
   4   0   4  110.54   10.78
   4   0   4  121.56   15.29
   4   0  -4  112.03   15.43
  -4   0  -4  135.01   15.89
  -4   0  -4  109.72   14.60
   4   0  -4  113.53   11.22
   4   2   4  629.77   54.79
  -4   2  -4  647.77   57.01
  -4  -2   4  628.59   59.04
  -4   2  -4  608.71   57.20
   4   2   4  649.16   57.87
   4  -2  -4  640.78   57.18
  -4   2  -4  630.12   57.42
  -4  -2   4  620.92   56.03
  -4   2  -4  647.83   56.48
  -4   2   4  585.85   58.10
  -4  -2  -4  646.52   58.64
  -4   2   4  629.52   58.20
  -4  -2  -4  658.59   56.65
   4   2  -4  645.24   57.71
   4   2  -4  637.43   56.47
   4   4   4    0.21    4.22
  -4  -4   4    0.77    4.62
   4   4   4    0.04    2.64
  -4   4  -4   -1.03    3.57
   4  -4  -4    0.93    2.79
  -4   4  -4    4.42    3.80
  -4   4  -4    2.85    3.76
  -4   4  -4    0.21    4.01
  -4  -4   4    3.53    3.39
   4  -4  -4   -3.26    4.59
  -4  -4  -4    3.78    3.10
   4   4  -4    0.57    3.48
  -4   4   4    2.36    4.85
   4   4  -4    4.23    4.05
  -4   4   4    0.22    2.80
  -4  -4  -4   -0.05    5.03
   4   6   4  272.93   27.75
  -4  -6   4  258.94   27.59
   4   6   4  235.59   31.36
  -4   6  -4  259.73   32.44
  -4   6  -4  285.18   31.31
   4  -6  -4  195.29   32.56
  -4  -6   4  283.78   34.83
  -4   6  -4  250.27   26.45
  -4  -6  -4  254.84   35.09
  -4   6   4  267.55   33.54
  -4   6   4  283.62   30.04
   4   6  -4  247.84   31.93
   4  -6   4  277.49   33.43
  -4   8  -4    9.41    7.62
   4   8   4   -1.99    6.86
   4   8   4   14.86    8.29
  -4  -8   4   -4.17    7.47
  -4   8  -4   10.45    7.99
   4  -8  -4    2.84    9.53
  -4  -8  -4   14.10   10.60
  -4   8   4   -3.27    5.57
   4   8  -4    9.99    8.84
  -4   8   4    7.15    8.84
  -5   1  -4  184.95   20.88
  -5  -1   4  150.36   17.88
  -5   1  -4  186.23   21.14
   5   1   4  150.75   20.38
  -5   1  -4  174.10   16.78
   5  -1  -4  175.49   21.11
  -5  -1   4  195.45   23.02
   5   1  -4  218.79   23.71
   5  -1   4  213.81   23.14
  -5  -1  -4  164.78   21.44
  -5   1   4  182.87   21.33
   5   1  -4  181.25   17.08
  -5  -1  -4  178.31   20.76
  -5   1   4  173.67   21.88
  -5   3  -4   26.04    6.54
   5  -3  -4    8.44    5.51
   5  -3  -4   21.59    5.90
  -5   3  -4   27.60    7.03
  -5   3  -4   16.67    5.78
  -5  -3   4   21.10    5.21
  -5   3  -4   18.82    6.27
   5   3   4   31.46    8.28
  -5  -3   4   19.88    8.03
  -5  -3  -4   14.44    6.44
   5   3  -4   23.95    6.44
  -5   3   4   11.19    5.75
  -5   3   4   26.98    4.36
  -5  -3  -4   13.56    4.26
   5   3  -4   18.92    6.57
  -5  -3  -4   23.86    5.99
  -5   5  -4  121.16   17.79
  -5  -5   4   94.26   18.77
  -5  -5   4  127.11   17.50
   5   5   4  131.54   20.11
  -5   5  -4  114.41   17.69
   5  -5  -4  120.17   21.01
   5   5   4  136.48   16.88
  -5   5  -4  110.76   17.62
  -5   5  -4  123.74   17.26
   5  -5  -4  132.17   15.91
   5   5  -4  146.81   17.81
  -5  -5  -4  140.67   21.80
  -5   5   4  118.18   15.37
   5   5  -4  113.10   17.82
  -5   5   4  102.45   18.26
   5   7   4   31.94   11.06
   5  -7  -4   13.12   10.31
  -5  -7   4    4.82    9.01
  -5   7  -4   26.45    8.95
  -5   7  -4   19.86    9.29
  -5  -7  -4    1.75    8.15
   5   7  -4    9.29    8.54
  -5   7   4    2.51    8.01
   5  -7   4   21.61    9.50
   6   0  -4    6.33    2.01
  -6   0  -4    2.33    3.99
  -6   0   4    6.87    5.53
  -6   0  -4    9.53    5.63
   6   0  -4    6.91    4.40
   6   0   4    3.32    4.22
  -6   0   4    3.35    3.78
  -6   2  -4   27.08    7.54
  -6  -2   4   36.14    7.34
  -6   2  -4   18.24    6.75
  -6   2  -4   42.54    7.17
  -6   2  -4   48.99    9.47
   6   2   4   52.74   10.72
   6  -2  -4   25.90    7.58
  -6  -2   4   30.92    9.35
  -6  -2  -4   15.38    7.47
   6   2  -4   49.03    7.73
  -6   2   4   47.99   10.52
   6   2  -4   30.57    7.93
  -6   2   4   26.38    8.57
  -6  -2  -4   38.77    8.08
  -6   4  -4   -3.07    3.32
   6  -4  -4    5.18    6.16
   6  -4  -4   -0.47    3.47
  -6   4  -4   -0.50    4.17
  -6   4  -4   -1.83    3.70
  -6   4  -4   -3.73    4.11
  -6  -4   4   -4.90    4.32
  -6  -4   4    1.48    3.76
   6   4   4   -4.59    4.02
  -6   4   4   -3.07    2.49
  -6  -4  -4    9.13    6.84
  -6  -4  -4    2.37    3.78
  -6   4   4    4.50    5.46
   6   4  -4   -2.69    3.82
  -6  -4  -4   -2.39    3.04
   6   4  -4   -6.27    3.38
   6  -6  -4   62.52   16.24
   6   6   4   74.52   16.18
  -6   6  -4   39.82    9.90
  -6  -6   4   33.88   10.53
  -6   6  -4   60.38   13.42
  -6   6  -4   53.16   11.87
  -6  -6   4   45.97   12.96
   6   6  -4   64.08   14.22
  -6  -6  -4   39.95   10.51
   6  -6   4   38.57   12.24
  -6  -6  -4   43.56   13.18
  -6   6   4   30.15   11.41
  -6  -8   4   -4.05    7.75
  -6   8  -4    2.64    7.52
   6   8   4   -4.99    6.30
  -6   8  -4    7.34    7.26
   6  -8  -4    8.17    9.15
  -6  -8  -4   -0.22    7.64
   6   8  -4   -3.07    7.59
  -6   8   4   -0.80    8.00
   7  -1  -4   70.18   12.76
  -7   1  -4   84.78   13.51
  -7   1  -4   90.64   14.27
  -7  -1   4   71.17   11.94
   7   1   4   96.92   14.53
  -7  -1   4   53.79   13.45
  -7   1  -4   77.95    9.38
   7   1  -4   87.26   14.45
  -7   1   4   68.48   12.73
   7  -1   4   82.71   13.27
  -7  -1  -4   57.83   12.22
  -7  -1  -4   83.59   13.35
   7   1  -4   85.47    9.80
  -7   1   4   50.82   11.74
   7  -3  -4  138.21   18.86
  -7  -3   4  151.91   18.66
  -7   3  -4  144.77   19.96
  -7  -3   4  120.41   20.22
  -7   3  -4  146.39   18.79
   7   3   4  110.16   18.16
  -7   3  -4  134.31   19.33
  -7   3  -4  138.26   17.15
   7   3  -4  139.15   17.69
  -7   3   4  137.00   20.20
  -7  -3  -4  107.33   18.93
   7   3  -4  140.98   19.47
  -7  -3  -4  143.08   18.64
  -7   3   4  108.37   19.46
   7  -5  -4   16.74    8.65
   7  -5  -4    9.13    5.59
  -7   5  -4   14.60    6.99
  -7   5  -4    4.95    5.91
   7   5   4   21.44    8.95
  -7  -5   4   14.60    8.36
   7   5   4   13.39    6.34
  -7   5  -4   -0.03    6.13
  -7   5  -4    9.99    6.31
  -7  -5   4    8.86    5.79
  -7  -5  -4   10.28    8.10
  -7   5   4   25.39    9.50
   7   5  -4   13.81    7.32
   7   5  -4   11.55    5.92
   7   7   4   60.37   15.46
   7  -7  -4   72.42   17.90
  -7  -7   4  138.51   22.70
  -7   7  -4   42.98   13.55
  -7   7  -4   92.61   16.24
  -7  -7  -4   86.04   20.30
   7  -7   4   83.55   19.25
  -7   7   4   89.96   18.63
   7   7  -4   67.83   16.10
  -8   0   4   29.49    8.26
   8   0   4   46.60    9.93
  -8   0  -4   62.29   12.16
  -8   0   4   45.79   10.44
  -8   0  -4   38.01    8.91
   8   0  -4   28.95    8.68
  -8   2  -4  105.68   12.57
  -8   2  -4  108.28   16.35
  -8   2  -4   73.31   13.65
  -8  -2   4  118.61   15.89
  -8  -2   4   89.13   15.95
   8   2   4   67.15   13.41
   8  -2  -4  100.50   16.61
  -8   2   4   79.88   15.09
  -8  -2  -4   95.00   15.37
  -8   2   4  108.24   16.69
   8   2  -4   60.34   13.20
   8   2  -4  100.01   12.84
  -8  -2  -4   93.97   16.89
   8  -2   4   80.16   14.34
  -8  -4   4   19.37    7.65
  -8   4  -4   11.78    6.13
   8  -4  -4   16.92    7.10
   8   4   4   11.82    6.52
  -8   4  -4   17.80    7.08
  -8  -4   4   33.61   10.77
   8   4   4   32.07   10.08
  -8   4  -4   33.57    9.25
  -8   4  -4   36.16   10.14
   8   4  -4   23.83    7.61
  -8   4   4   22.97    9.44
  -8   4   4   27.32   10.20
  -8  -4  -4   43.21   12.96
   8   4  -4   14.42    7.06
   8   6   4   42.04   12.33
  -8   6  -4   42.16   11.52
  -8  -6   4   31.11   13.31
  -8  -6   4   18.22    9.62
   8  -6  -4   19.39   10.66
  -8   6  -4   41.41   12.63
  -8   6  -4   46.49   11.09
  -8   6  -4    4.79    6.93
  -8   6   4   39.27   12.54
   8   6  -4   24.94   10.08
  -8  -6  -4   12.56    9.56
  -9  -1   4  173.80   23.41
   9   1   4  154.34   20.57
  -9  -1   4  185.92   22.62
  -9   1  -4  154.51   20.70
  -9   1  -4  118.21   20.75
   9  -1  -4  175.32   23.87
  -9   1   4  174.79   22.87
   9  -1   4  153.56   20.18
  -9  -1  -4  137.15   22.09
  -9   1   4  138.20   21.09
   9   1  -4  122.32   20.59
  -9  -1  -4  126.29   19.60
   9  -3  -4   33.61    9.33
  -9  -3   4   24.04    9.55
  -9   3  -4   28.97    9.31
   9   3   4   26.18    9.28
   9   3   4   38.28   10.40
  -9   3  -4   37.73   10.59
  -9  -3   4   43.38   10.90
  -9   3  -4   32.19    7.72
  -9  -3  -4   23.36    9.44
   9   3  -4   29.84    9.47
  -9   3   4   31.86   10.56
   9   3  -4   44.98    8.78
  -9   3   4   45.42   11.14
   9  -3   4   20.11    8.07
   9   5   4  118.16   19.32
  -9  -5   4  115.84   20.11
  -9   5  -4  136.53   20.36
   9  -5  -4  103.11   21.78
  -9   5  -4  162.53   21.48
   9   5   4  157.62   23.87
  -9   5  -4  202.33   24.48
  -9   5  -4  126.39   22.07
  -9  -5   4  119.36   22.02
   9  -5  -4  146.06   21.36
   9   5  -4  121.09   20.42
  -9   5   4  151.78   24.31
   9   5  -4  123.13   19.65
  -9  -5  -4  168.50   26.44
   9   7   4   21.31   11.66
  -9  -7   4   26.92   12.64
  -9   7  -4   -0.02    6.71
   9  -7  -4   13.97   10.73
  -9   7   4   -6.12    5.99
   9   7  -4   20.02   10.53
  -9  -7  -4   10.49   10.28
   9  -7   4   15.75   11.96
 -10   0  -4  168.64   25.35
 -10   0   4  203.82   25.69
 -10   0  -4  188.51   25.38
  10   0  -4  153.50   24.30
  10   0   4  183.01   23.57
 -10   0   4  177.38   25.28
 -10  -2   4  273.19   32.94
 -10   2  -4  308.13   34.71
 -10   2  -4  209.59   30.59
  10   2   4  265.02   31.31
 -10  -2   4  276.14   31.85
  10   2   4  249.49   32.32
  10  -2  -4  260.23   32.36
 -10   2   4  227.55   31.35
 -10   2   4  278.90   32.91
 -10  -2  -4  212.69   31.25
  10   2  -4  174.81   29.82
  10  -2   4  269.20   29.75
 -10   4  -4   24.79    8.07
 -10  -4   4   49.69   12.13
  10   4   4   39.05   11.31
 -10   4  -4   57.72   12.31
 -10   4  -4   28.05   10.19
  10   4   4   35.08   10.66
 -10  -4   4   13.83    9.18
  10  -4  -4   33.35    9.84
  10   4  -4   26.94    9.76
 -10  -4  -4   18.36   10.12
 -10   4   4   34.06   11.78
 -10   4   4   22.16   11.74
  10   4  -4   47.80   10.27
  10  -4   4   27.82    9.50
  10  -6  -4   79.98   19.98
 -10   6  -4   93.13   17.99
 -10   6  -4  100.76   20.66
 -10  -6   4   98.40   20.74
  10   6   4  142.57   22.43
  10   6  -4  129.03   20.35
  10  -6   4   82.30   18.33
 -10  -6  -4   96.09   20.74
 -10   6   4   74.39   17.97
  11  -1  -4    2.22    6.43
 -11   1  -4   13.47    7.28
 -11   1  -4   24.78    9.78
 -11  -1   4   26.62    8.72
  11   1   4   10.40    7.01
  11   1   4   30.93   10.78
 -11  -1   4   18.72    8.01
  11   1  -4    3.34    5.85
 -11   1   4   27.96   10.27
  11  -1   4   30.23    8.68
 -11   1   4    1.53    5.22
 -11  -1  -4   19.06    8.31
 -11   3  -4   84.41   17.71
  11   3   4  109.13   18.55
 -11   3  -4  131.95   20.37
  11   3   4   94.24   18.38
 -11  -3   4  109.63   19.51
  11  -3  -4  121.39   20.93
 -11  -3   4  105.56   18.21
 -11   3   4   92.68   18.03
  11  -3   4  104.96   16.93
 -11  -3  -4  107.25   19.67
  11   3  -4   72.90   17.33
 -11   3   4  107.69   20.43
 -11   5  -4   18.42   10.39
  11  -5  -4   24.93    9.73
  11   5   4    0.69    6.57
 -11   5  -4   30.04    9.49
  11   5   4   23.77   10.77
 -11  -5   4   15.59    9.26
 -11  -5   4   28.46   11.31
  11   5  -4   15.18    9.52
  11  -5   4   24.98   12.31
 -11   5   4   24.22   10.97
 -11  -5  -4   16.62    9.29
  11   5  -4   24.85    9.08
 -11   5   4   -0.11    6.93
  12   0   4   30.58    9.02
 -12   0   4   15.68    8.36
 -12   0  -4   16.55   10.36
  12   0  -4    9.43    6.59
  12   0   4   21.41    9.08
 -12   0   4   35.99   10.39
  12  -2  -4    6.11    7.56
 -12   2  -4   24.64   11.72
  12   2   4   24.97    9.49
  12   2   4    3.69    7.19
 -12  -2   4   -0.98    5.19
 -12  -2   4   27.57   10.59
 -12   2   4   19.42    9.67
  12  -2   4   29.05   12.48
 -12   2   4   30.91   10.22
  12   2  -4   18.95    9.34
 -12  -2  -4   37.46   12.02
 -12  -4   4   -0.09    6.46
  12   4   4    8.40    7.78
  12   4   4   -0.98    5.93
 -12   4  -4    1.82    7.91
  12  -4  -4    5.54    6.77
 -12  -4   4  -10.27    5.74
 -12  -4  -4   -7.89    5.21
  12   4  -4   -6.68    5.97
 -12   4   4    0.44    9.22
  12  -4   4   -6.15    5.49
 -12   4   4    8.14    8.15
 -13  -1   4   38.56   11.90
  13   1   4   35.45   10.30
  13  -1  -4   23.43   10.49
  13   1   4   43.75   13.53
 -13   1  -4   32.48   12.69
 -13  -1   4   19.44    9.14
 -13   1   4   57.38   14.07
 -13   1   4    9.35    8.53
  13  -1   4   25.81   11.15
  13   1  -4   52.10   13.65
 -13  -1  -4   29.28   12.44
  13   3   4    9.10    8.26
 -13  -3   4    0.53    6.85
  13   3   4    3.54    6.85
 -13   3  -4   -2.27    6.58
  13  -3  -4   23.63   10.93
 -13  -3   4   15.96    8.88
 -13  -3  -4   -2.18    6.34
 -13   3   4    5.48    8.21
  13   3  -4    1.92    7.64
  13  -3   4   -3.27    6.63
 -13   3   4   -7.37    6.31
  13   5   4   65.64   16.75
 -13  -5   4   41.39   12.55
 -13   5  -4   35.97   13.68
  13  -5  -4   46.68   14.38
 -13   5   4   29.71   13.56
 -13   5   4   41.08   14.18
  13  -5   4   31.12   12.66
  13   5  -4   59.56   15.88
 -13  -5  -4   71.27   18.99
  14   0   4   15.49    8.68
 -14   0   4    7.29    7.44
 -14   0  -4   17.40   10.92
  14   0  -4    7.97    7.18
 -14   0   4   12.13    8.54
 -14   2  -4   89.23   19.26
 -14  -2   4   83.41   17.23
  14   2   4   56.77   15.97
  14  -2  -4   63.26   17.75
 -14  -2   4   81.16   17.64
  14   2  -4   85.11   21.09
 -14  -2  -4   86.78   20.95
  14  -2   4   57.62   16.83
 -14   2   4   86.47   17.29
 -14   2   4  113.77   21.35
  15  -1  -4    6.79    8.82
 -15  -1   4    1.02    6.04
  15   1   4    1.32    6.05
 -15   1  -4    1.65   10.22
  15  -1   4    0.31    6.43
  15   1  -4    0.13    6.60
 -15  -1  -4    1.77    9.02
 -15   1   4    5.38    8.56
 -15   1   4   21.75   10.57
   0   0   5    6.45    4.42
   0   0   5    0.03    3.41
   0   0  -5    5.48    2.80
   0   0  -5    0.46    3.13
   0   2   5   18.49    5.23
   0   2   5   16.52    5.69
   0  -2   5   17.47    5.96
   0   2  -5    8.27    4.89
   0   2  -5   15.18    5.53
   0  -2  -5    6.72    5.25
   0  -2  -5   12.67    4.63
   0  -4   5    1.26    2.72
   0  -4  -5    3.03    2.26
   0   4   5   -1.77    3.63
   0   4  -5    0.41    3.15
   0  -4   5   -5.12    2.85
   0   4   5   -1.41    3.79
   0  -4  -5   -4.99    3.18
   0   4  -5   -0.01    3.96
   0   6   5    5.61    6.35
   0  -6  -5   -1.36    6.93
   0   6   5    5.34    6.14
   0   6  -5   -4.49    5.51
   0   6  -5   -0.08    3.42
   0  -6   5   -0.37    6.51
   0  -8   5    0.17    7.99
   0   8  -5   -5.38    6.10
   0   8   5    2.13    6.48
   0   8   5   -0.24    7.14
   0  -8  -5   -0.59    8.31
  -1   1  -5    9.83    4.23
   1   1   5    7.52    3.56
  -1   1  -5    7.00    2.64
   1  -1  -5    0.07    3.62
  -1  -1   5    9.57    5.31
   1  -1  -5    7.48    3.93
   1   1   5   14.23    5.41
  -1   1  -5    5.84    4.18
  -1   1   5    9.35    4.40
   1  -1   5   14.81    5.39
  -1   1   5   11.99    5.09
  -1  -1  -5    8.86    4.18
   1   1  -5    7.24    1.88
   1   1  -5    8.53    3.92
  -1  -1  -5    6.88    4.05
   1   1  -5   11.65    5.20
  -1  -3   5   39.34    9.81
  -1  -3   5   40.61    4.89
   1  -3  -5   42.42    7.08
   1   3   5   34.22    8.16
   1   3   5   53.46    8.57
  -1   3  -5   28.11    7.22
   1  -3  -5   47.95   10.61
  -1   3  -5   35.58    7.65
  -1  -3  -5   24.01    8.21
  -1   3   5   35.63    7.29
   1  -3   5   29.60    8.06
  -1   3   5   60.26    9.94
   1  -3   5   31.74    5.56
   1   3  -5   30.88    7.45
   1   3  -5   26.14    6.93
  -1  -3  -5   43.92    6.68
  -1   5  -5   23.59    7.03
   1   5   5   36.36    8.84
  -1  -5   5   11.95    6.97
  -1  -5   5   28.62    6.51
   1   5   5   23.81    7.83
   1  -5  -5   52.09   12.93
  -1   5  -5   44.39   10.14
   1   5  -5   28.66    7.10
   1  -5   5   27.05    9.30
   1   5  -5    8.22    6.28
  -1   5   5   22.33    8.51
  -1   5   5   34.04    8.52
  -1  -5  -5   36.13   11.47
   1  -5   5   29.50    6.69
  -1  -7   5    2.93    7.27
  -1   7  -5    6.03    7.13
   1  -7  -5   11.18    8.96
   1   7   5    8.65    6.88
   1   7   5   11.89    7.49
  -1  -7  -5   -3.39    6.15
  -1   7   5    7.56    6.62
  -1   7   5    3.03    6.73
   1   7  -5   15.26    8.27
   1  -7   5    3.59    8.00
  -1  -9   5    2.78    8.68
   1   9   5    6.04    7.75
   1   9   5    7.44    8.36
  -1   9  -5    2.56    8.93
   1  -9  -5   -0.49    9.20
  -1   9   5    3.23    6.89
   1   9  -5   13.57    9.32
   1  -9   5    3.74    8.85
  -1   9   5   -1.88    7.32
  -1  -9  -5   -6.66    8.78
  -2   0  -5    0.46    3.51
   2   0  -5    0.81    2.89
   2   0  -5    1.31    2.71
  -2   0  -5    1.91    2.94
   2   0  -5   -6.25    2.01
  -2   0   5   -0.31    3.86
   2   0   5    0.70    3.82
   2   0   5   -2.20    2.56
   2   2   5    3.22    3.95
  -2   2  -5    1.73    2.23
  -2   2  -5   11.51    4.57
   2   2   5   -2.64    2.20
  -2  -2   5    9.99    5.64
   2  -2  -5    4.99    3.94
  -2   2  -5   -0.99    3.07
   2  -2  -5    4.92    3.41
  -2  -2   5    2.50    1.30
  -2   2   5    2.81    3.50
   2   2  -5    2.19    3.16
  -2  -2  -5    3.67    3.95
   2   2  -5    2.61    3.58
   2  -2   5    3.16    3.78
  -2  -2  -5    1.92    3.10
  -2   2   5    1.85    3.09
  -2  -4   5    4.94    2.85
   2   4   5    0.12    3.03
   2  -4  -5    1.64    2.93
  -2   4  -5    3.89    4.72
  -2   4  -5   -3.15    3.01
   2  -4  -5   -0.75    4.97
  -2  -4   5    1.05    4.29
   2   4   5    0.85    4.65
  -2  -4  -5    3.84    2.54
   2   4  -5   -3.88    3.07
  -2   4   5   -3.61    3.31
   2  -4   5    5.43    5.06
  -2  -4  -5    7.41    5.46
  -2   4   5   -2.32    3.89
   2   4  -5    1.69    3.97
   2  -4   5    0.61    2.98
   2   6   5    0.75    4.44
  -2   6  -5   -5.16    4.23
  -2  -6   5   -0.86    5.52
   2  -6  -5   13.29    8.19
   2   6   5    7.20    6.25
  -2   6  -5   -0.13    5.38
   2  -6   5    0.73    4.54
  -2  -6  -5    0.73    6.43
   2  -6   5    2.93    6.24
  -2   6   5    0.49    5.08
   2   6  -5    5.81    4.66
  -2   6   5   -2.70    5.04
   2   6  -5   -0.89    5.11
  -2  -8   5   19.68   10.11
   2   8   5   12.43    8.48
  -2   8  -5   -0.57    7.53
   2  -8  -5   -0.37    8.13
   2   8   5   16.32    8.60
  -2   8   5    2.21    6.76
   2   8  -5   -0.07    6.83
  -2  -8  -5    0.69    8.65
   2  -8   5    4.40    8.09
  -2   8   5   -1.08    6.51
   3   1   5  182.50   20.20
   3  -1  -5  169.75   18.67
  -3   1  -5  145.89   18.59
  -3  -1   5  122.71   18.54
   3   1   5  156.84   14.61
  -3   1  -5  149.85   15.86
   3  -1  -5  159.16   18.11
  -3  -1   5  152.03   14.82
  -3   1  -5  167.84   19.10
  -3  -1  -5  144.63   17.99
  -3   1   5  146.41   15.39
   3   1  -5  145.17   17.88
   3  -1   5  153.90   15.57
  -3   1   5  165.49   19.89
   3   1  -5  148.89   15.60
  -3  -1  -5  188.69   20.48
  -3   3  -5  163.07   17.51
   3   3   5  162.04   17.16
   3  -3  -5  166.27   17.67
   3   3   5  162.37   20.97
  -3  -3   5  174.61   16.40
  -3   3  -5  175.43   21.06
  -3   3  -5  196.97   21.77
   3  -3  -5  173.89   22.62
  -3  -3   5  186.02   22.79
  -3  -3  -5  212.42   24.60
  -3   3   5  185.32   22.80
  -3   3   5  159.02   17.37
   3   3  -5  185.23   20.64
  -3  -3  -5  156.53   17.26
   3  -3   5  193.62   22.29
   3   3  -5  170.43   20.38
   3   5   5  124.99   18.79
  -3   5  -5  136.57   17.36
  -3   5  -5  121.74   17.81
  -3  -5   5  123.75   15.46
   3  -5  -5   96.36   18.58
  -3  -5   5   99.85   18.58
   3   5   5  102.83   15.83
  -3   5   5  118.82   19.57
   3  -5   5  128.90   17.59
   3  -5   5  136.44   20.33
  -3   5   5  131.55   16.63
   3   5  -5  139.40   17.77
   3   5  -5  126.76   18.70
   3   7   5   56.01   14.20
  -3   7  -5   20.35    9.14
  -3  -7   5   45.24   13.57
   3   7   5   41.57   10.83
   3  -7  -5   52.75   16.92
  -3   7   5   71.50   15.41
   3  -7   5   26.35   11.71
  -3  -7  -5   39.99   12.88
   3   7  -5   44.64   12.46
  -3   7   5   46.43   10.89
   4   0  -5    0.91    3.80
   4   0   5   -1.94    1.81
   4   0   5   -0.65    3.80
  -4   0  -5    1.85    3.70
   4   0  -5   -1.70    1.76
  -4   0  -5    8.41    4.39
  -4   0   5   -4.64    3.31
  -4   0   5   -2.72    2.11
   4   2   5    3.83    2.04
  -4   2  -5    2.67    4.06
   4  -2  -5   -0.05    3.93
   4  -2  -5   -2.81    2.67
  -4  -2   5   -1.63    3.77
  -4  -2   5   -1.13    1.98
  -4   2  -5    0.81    2.89
  -4   2  -5    3.37    4.48
   4   2   5   16.10    5.94
  -4   2   5    3.03    3.80
   4  -2   5   -3.63    2.45
  -4   2   5   -1.68    2.38
  -4  -2  -5    1.42    3.11
  -4  -2  -5   -1.48    3.44
   4   2  -5    3.93    3.75
   4   2  -5    3.54    3.08
  -4   4  -5    4.30    4.54
   4  -4  -5    0.02    2.84
   4   4   5   -2.46    4.11
   4   4   5    6.03    3.59
  -4  -4   5    4.65    5.52
   4  -4  -5    6.68    5.69
  -4   4  -5    3.03    4.69
  -4  -4   5    1.97    3.00
  -4   4  -5    4.40    5.15
  -4   4  -5    4.22    3.62
  -4  -4  -5   -6.46    4.42
   4   4  -5    0.77    4.07
  -4   4   5    8.08    4.10
  -4   4   5    1.86    4.71
   4   4  -5    0.78    3.68
  -4  -4  -5    7.82    3.54
  -4   6  -5    7.14    5.15
   4   6   5    4.28    4.87
   4   6   5   -1.25    5.59
  -4  -6   5    0.58    6.24
  -4   6  -5    9.66    6.86
  -4   6  -5   -2.06    5.17
   4  -6  -5    6.48    7.29
   4   6  -5    0.15    4.38
  -4  -6  -5   -0.67    6.11
   4   6  -5    2.45    5.65
   4  -6   5   -2.14    4.17
  -4   6   5   -4.96    5.95
  -4   6   5    4.11    5.04
   4   8   5    3.10    7.26
   4   8   5    5.10    7.72
  -4  -8   5   -3.45    6.52
   4  -8  -5    3.01    9.99
  -4   8  -5    6.28    8.02
  -4  -8  -5    5.24    9.31
   4  -8   5   -2.10    6.81
  -4   8   5   -8.09    6.37
   4   8  -5    4.22    8.25
  -5  -1   5    0.01    2.65
  -5   1  -5   -1.90    3.50
  -5  -1   5    4.00    4.87
   5   1   5   -3.02    3.60
   5  -1  -5    2.88    4.61
  -5   1  -5   -3.63    2.38
  -5   1   5    1.36    2.01
  -5   1   5    3.99    3.90
   5   1  -5   -2.79    3.15
  -5  -1  -5   -2.80    2.88
   5  -1   5   -2.12    4.26
   5   1  -5   -0.73    2.17
  -5  -1  -5   -2.48    3.64
  -5   1   5    3.99    5.01
   5  -1   5    2.57    2.66
  -5   3  -5   -0.97    3.43
  -5   3  -5   -2.28    2.98
   5   3   5    6.44    5.17
   5   3   5    0.75    2.20
  -5  -3   5    0.70    2.72
  -5  -3   5    1.02    5.11
  -5   3  -5    3.08    3.53
   5  -3  -5   -1.65    4.03
   5  -3  -5   -1.85    3.26
  -5   3  -5   -1.42    3.96
   5   3  -5   -4.07    2.73
  -5  -3  -5   -2.16    4.11
  -5   3   5    1.52    4.63
  -5  -3  -5    1.18    2.87
   5   3  -5    1.14    3.18
  -5   3   5    7.72    2.88
  -5   5  -5   -2.84    3.82
  -5   5  -5   -2.85    4.40
   5  -5  -5   -5.32    4.91
  -5   5  -5    1.14    4.75
   5  -5  -5    4.47    3.75
  -5  -5   5    3.03    4.36
  -5   5  -5    3.78    5.52
   5   5   5    9.77    6.47
   5   5   5    5.64    4.06
  -5  -5   5    2.51    6.91
  -5   5   5    3.44    3.79
  -5  -5  -5   -2.21    6.06
  -5   5   5    1.78    5.78
   5   5  -5    4.77    5.38
   5   5  -5   -2.32    4.60
   5   7   5   -0.29    7.56
   5   7   5    6.89    7.98
  -5   7  -5    2.31    6.30
  -5  -7   5   -1.84    6.87
  -5   7  -5   10.68    7.63
   5  -7  -5   -5.54    6.77
   5   7  -5    2.73    7.49
  -5  -7  -5   -7.28    5.84
  -5   7   5   -1.65    6.30
  -6   0  -5    1.12    3.92
   6   0  -5   -0.45    1.78
   6   0   5    4.04    4.73
   6   0  -5    1.94    3.84
  -6   0   5    1.32    3.59
  -6   0   5  -11.08    3.06
  -6   0  -5   -2.99    2.31
  -6  -2   5    7.15    3.87
  -6   2  -5    3.27    4.51
  -6   2  -5   -1.80    3.47
   6   2   5   -1.73    3.91
  -6  -2   5    1.03    5.29
  -6   2  -5    6.36    3.35
   6  -2  -5   14.20    5.87
   6  -2   5   -0.67    4.77
  -6  -2  -5    3.36    3.63
  -6   2   5    7.18    5.15
  -6  -2  -5   15.23    6.13
   6   2  -5    1.22    4.71
   6   2  -5    2.82    3.34
  -6   2   5    3.38    5.11
  -6   4  -5    5.39    4.97
  -6   4  -5   -3.25    3.47
   6  -4  -5   -2.35    4.68
  -6   4  -5    2.05    4.39
  -6  -4   5   -1.38    3.25
   6   4   5    2.33    6.42
  -6   4  -5   -9.44    3.69
   6  -4  -5   -1.28    3.64
  -6  -4   5    4.47    6.50
   6   4  -5    0.66    4.16
  -6  -4  -5    3.59    4.80
  -6  -4  -5   -1.33    3.78
   6   4  -5    3.98    4.24
  -6   4   5   -1.08    4.78
   6  -6  -5    0.45    6.18
  -6   6  -5    8.66    6.97
  -6   6  -5   -1.29    4.74
   6   6   5   -6.09    4.94
  -6   6  -5    1.39    4.59
  -6  -6   5    2.96    7.59
   6   6  -5    3.16    6.60
   6   6  -5    0.88    5.84
  -6   6   5   -3.74    5.22
  -6  -6  -5   -2.20    6.18
   6  -6   5    4.74    7.11
   6  -8  -5    4.78   10.03
   6   8   5   -0.47    7.65
  -6  -8   5    1.76    8.29
  -6   8  -5    2.80    8.03
  -6   8  -5    5.08    7.66
  -6  -8  -5   13.10    8.67
   6   8  -5    6.08    9.39
  -6   8   5    0.80    7.57
  -7  -1   5   20.15    8.17
  -7  -1   5   23.50    6.44
  -7   1  -5   14.41    6.38
  -7   1  -5   20.71    7.00
   7   1   5   20.72    7.48
   7  -1  -5   10.21    5.90
   7  -1   5   20.44    4.58
  -7   1   5   21.22    7.68
  -7  -1  -5   22.01    7.79
   7   1  -5   16.10    4.31
  -7   1   5   26.62    7.83
   7   1  -5   10.72    5.85
   7  -1   5    4.63    5.37
  -7  -1  -5   19.92    7.02
  -7   3  -5   45.04    8.81
  -7   3  -5   47.88   10.75
  -7  -3   5   43.99   12.94
  -7   3  -5   70.30   12.40
  -7  -3   5   52.22    9.90
   7   3   5   41.29   10.80
  -7   3  -5   62.25   11.65
   7  -3  -5   53.49   11.34
  -7   3   5   62.06   12.78
   7   3  -5   54.69   10.30
  -7  -3  -5   45.47   11.93
  -7  -3  -5   67.85   11.69
  -7   3   5   54.21   12.29
   7   3  -5   33.56    9.66
  -7   5  -5   50.25   11.53
  -7   5  -5   44.24   10.92
   7   5   5   57.01   13.71
   7  -5  -5   37.02    9.30
  -7   5  -5   53.55   12.35
  -7  -5   5   23.80    8.26
  -7   5  -5   32.87    9.85
   7  -5  -5   13.37   10.89
  -7  -5   5   30.67   12.18
  -7   5   5   50.48   13.01
  -7  -5  -5   35.43   12.56
   7   5  -5   51.15   11.31
   7   5  -5   60.10   12.57
  -7   7  -5   -0.51    6.48
   7   7   5   -1.11    7.28
  -7  -7   5   24.83   12.43
  -7   7  -5   10.59    7.29
   7  -7  -5   10.84    9.59
  -7   7   5   -4.85    6.45
  -7  -7  -5   19.82   12.10
   7   7  -5   21.89   10.55
  -8   0  -5   -2.05    4.04
  -8   0  -5   -0.07    3.44
  -8   0   5   -1.66    3.46
  -8   0   5   -0.26    4.42
   8   0  -5    2.96    4.51
   8   0   5   -0.06    4.48
  -8   2  -5   -2.05    4.18
  -8   2  -5    5.57    3.58
  -8  -2   5    8.57    4.74
  -8  -2   5    2.16    5.48
   8   2   5    3.43    5.05
  -8   2  -5   -0.65    4.10
   8  -2  -5    7.59    5.53
   8  -2   5    0.48    4.92
  -8  -2  -5    0.88    3.94
  -8   2   5    2.25    5.24
  -8  -2  -5   13.76    7.97
   8   2  -5    3.13    4.73
   8   2  -5   13.56    4.67
  -8   2   5    6.38    6.14
  -8   4  -5   -2.12    3.38
  -8   4  -5   16.29    7.19
  -8   4  -5    2.47    6.21
  -8  -4   5   -4.32    6.23
   8   4   5    2.51    6.39
   8  -4  -5   -5.33    4.19
  -8  -4   5    8.27    5.35
  -8   4  -5   -0.34    5.59
   8  -4  -5   -6.21    4.92
   8   4  -5   -1.48    5.13
  -8  -4  -5    1.81    5.31
  -8   4   5    8.38    6.39
  -8  -4  -5   -2.84    5.66
   8   4  -5    1.73    4.62
  -8   4   5   -1.40    5.41
   8  -6  -5    2.22    7.47
  -8   6  -5    9.12    7.53
   8   6   5    1.48    7.63
  -8   6  -5    3.09    7.38
  -8   6  -5    5.51    6.98
  -8  -6   5    9.37    8.33
  -8   6  -5   -1.62    5.21
   8   6  -5    5.24    7.16
  -8  -6  -5   -0.30    7.78
  -8   6   5   -5.75    6.29
   8   6  -5    1.56    6.36
   9   1   5   78.10   14.58
  -9  -1   5  109.90   16.05
  -9   1  -5  114.30   17.82
  -9   1  -5  102.56   16.55
   9  -1  -5   65.25   13.99
  -9  -1   5  119.78   19.44
  -9   1   5   88.12   15.98
  -9  -1  -5  118.71   18.68
   9  -1   5  120.72   17.61
  -9  -1  -5   79.84   14.51
   9   1  -5   71.84   15.53
  -9   1   5   49.34   13.37
  -9  -3   5   59.33   14.89
  -9   3  -5   57.89   10.38
   9   3   5   71.15   13.67
  -9   3  -5   53.11   12.40
   9  -3  -5   77.67   14.42
  -9  -3   5   46.86   11.18
  -9   3  -5   29.25    9.84
  -9  -3  -5   49.39   12.20
  -9  -3  -5   97.58   17.81
   9   3  -5   48.92   12.52
   9  -3   5   65.60   13.63
  -9   3   5   74.94   14.94
   9   3  -5   75.84   11.65
  -9   3   5   50.25   12.97
  -9   5  -5   64.19   13.75
  -9  -5   5   42.28   14.12
   9  -5  -5   76.28   13.65
  -9   5  -5   61.39   14.19
  -9   5  -5   62.62   12.96
   9   5   5   51.09   14.01
   9  -5  -5   26.58   11.95
  -9   5  -5   36.92   10.53
   9   5  -5   55.97   14.00
  -9   5   5   37.67   12.28
  -9  -5  -5   67.80   17.81
   9   5  -5   38.82   11.18
  -9   7  -5   37.38   11.69
  -9  -7   5   34.85   15.40
   9  -7  -5   21.27   13.38
   9   7   5   59.05   15.57
  -9   7  -5   39.20   12.28
  -9  -7  -5   66.09   18.14
   9  -7   5   15.85   10.58
  -9   7   5   44.79   14.66
   9   7  -5   22.34   11.05
  10   0   5   -4.39    4.88
 -10   0  -5    1.28    5.07
  10   0  -5    0.45    4.77
 -10   0   5    2.13    5.52
 -10   0  -5    1.33    5.73
 -10   0   5    2.30    4.61
  10  -2  -5   -2.48    5.59
 -10  -2   5    3.81    5.06
 -10   2  -5    0.26    5.46
  10   2   5   -1.51    5.15
 -10  -2   5    5.26    7.15
 -10   2  -5   -7.05    4.88
 -10  -2  -5    2.97    6.18
  10  -2   5   -0.69    5.02
 -10  -2  -5   12.37    8.62
  10   2  -5    4.21    7.13
 -10   2   5    7.96    7.17
 -10   2   5   -5.99    5.15
 -10   4  -5    7.27    7.31
 -10   4  -5   -4.94    4.72
 -10  -4   5    9.64    6.61
 -10  -4   5    4.65    7.72
  10  -4  -5   -1.13    5.04
  10   4   5   -0.37    5.61
 -10   4  -5    0.17    5.29
  10   4   5   -7.73    5.28
 -10   4   5    4.35    7.24
  10   4  -5  -12.42    3.42
 -10  -4  -5    1.48    7.17
 -10   4   5    9.83    8.15
  10  -4   5    5.72    6.77
  10   4  -5    6.50    6.05
  10   6   5   15.88    9.63
 -10   6  -5    0.78   11.98
 -10  -6   5    4.48    9.58
 -10   6  -5   -3.81    6.66
 -10   6  -5    6.42    7.60
  10  -6  -5   10.78   10.90
 -10   6  -5   -3.75    6.55
  10   6  -5    3.63    9.49
 -10  -6  -5  -11.16    6.53
  10   6  -5    0.79    6.89
 -10   6   5   -1.65    6.80
 -11  -1   5    3.01    6.09
  11  -1  -5   -4.65    4.53
 -11  -1   5    1.36    5.05
  11   1   5    0.07    5.26
 -11   1  -5   -2.60    5.40
 -11   1  -5   -0.05    6.45
 -11  -1  -5   -0.49    6.91
  11  -1   5   -6.61    4.43
 -11  -1  -5   -1.67    4.70
 -11   1   5    2.60    6.41
 -11   1   5    2.69    6.39
  11   1  -5    3.91    6.24
 -11  -3   5   -3.33    6.82
  11   3   5    1.43    6.21
 -11   3  -5    8.93    8.04
  11  -3  -5    4.18    6.30
 -11   3  -5    8.85    7.97
  11   3   5    2.21    7.10
 -11  -3   5    2.27    5.57
 -11   3   5   10.61    7.89
  11   3  -5   -2.97    5.99
 -11  -3  -5   13.39    8.88
  11  -3   5    3.77    6.45
 -11   3   5    0.35    6.35
  11  -5  -5   -5.68    5.57
 -11   5  -5   -7.69    6.37
  11  -5  -5   14.79    9.74
  11   5   5    2.35    8.37
 -11   5  -5   -2.22    6.67
 -11  -5   5   -0.75    7.89
  11   5  -5    7.28    9.11
  11   5  -5   -9.86    5.75
 -11   5   5   -1.40    8.62
 -11   5   5   -2.39    6.86
 -11  -5  -5   -0.52    6.24
  12   0  -5   -0.50    4.87
 -12   0  -5    4.50    6.53
 -12   0   5   10.17    6.80
  12   0   5    2.41    5.91
 -12   0  -5    5.63    7.81
 -12   0   5   11.32    8.57
  12  -2  -5    3.13    6.35
 -12   2  -5   -2.50    5.54
 -12  -2   5   -1.70    4.95
  12   2   5    3.87    6.44
 -12  -2   5   -0.93    6.56
  12   2   5    4.53    6.13
 -12   2  -5    4.15    7.99
 -12   2   5    1.55    7.00
 -12   2   5   -2.95    6.55
  12  -2   5    1.92    6.61
 -12  -2  -5   -5.16    6.14
  12   2  -5    1.08    7.82
 -12  -4   5   12.68    8.45
 -12  -4   5   -0.42    7.99
  12  -4  -5    0.32    6.53
 -12   4  -5   -3.77    5.72
  12   4   5   -8.26    5.72
 -12   4  -5    1.84    7.39
  12   4   5   -1.98    5.90
 -12   4   5   -1.54    8.57
  12   4  -5   -0.11    7.22
 -12  -4  -5   13.49   10.07
 -12   4   5   -7.09    7.33
 -13  -1   5   17.21    8.53
 -13   1  -5   28.41   12.25
  13   1   5   33.46   11.87
 -13  -1   5   15.25    8.99
  13  -1  -5   13.92    8.62
  13   1   5   45.56   11.98
  13  -1   5   15.36   10.69
 -13  -1  -5   16.13   10.73
  13   1  -5   19.97    9.45
 -13   1   5    6.33    7.83
 -13   1   5    0.63    7.40
  13   3   5   33.03   11.67
 -13  -3   5   23.09   11.01
 -13   3  -5   20.80   10.32
  13   3   5   41.65   12.42
 -13  -3   5   13.73    8.48
  13  -3  -5   24.98   11.24
 -13   3   5   22.00   11.07
  13  -3   5    7.53    9.45
 -13  -3  -5   68.18   17.71
  13   3  -5   13.09    9.63
 -13   3   5   34.19   13.19
 -14   0  -5  -10.82    6.21
  14   0   5   -0.02    6.58
  14   0  -5   -1.12    5.42
 -14   0   5   -1.01    6.32
 -14   0   5    2.22    7.34
 -14  -2   5   13.23    7.71
 -14   2  -5   -6.38    6.73
 -14  -2   5   -5.00    7.07
  14   2   5    4.86    6.98
  14   2   5    3.85    6.53
  14  -2  -5    2.47    7.75
  14  -2   5    8.48    8.67
  14   2  -5   -1.53    6.06
 -14  -2  -5   -1.62    9.73
 -14   2   5   13.92   10.14
 -14   2   5   -3.62    6.44
 -15  -1   5   34.05   12.43
  15   1   5   24.68   10.97
 -15  -1   5   25.84   12.06
  15  -1  -5   21.76   12.67
 -15   1  -5   31.89   14.63
 -15   1   5   50.94   15.34
  15  -1   5   23.71   12.27
  15   1  -5   24.98   12.70
 -15   1   5   30.56   11.36
 -15  -1  -5   47.46   16.80
   0   0  -6  218.01   22.67
   0   0   6  225.01   22.32
   0   0  -6  217.71   20.63
   0   0   6  195.46   23.71
   0   2  -6  988.07   86.11
   0  -2  -6  971.15   86.06
   0   2  -6 1000.00   87.04
   0   2   6  934.21   86.09
   0  -2  -6  939.17   87.11
   0   2   6  982.70   86.23
   0  -2   6  997.54   87.13
   0   4   6   43.05    9.72
   0  -4   6   28.46    8.83
   0  -4  -6   29.55   10.14
   0   4  -6   23.43    7.62
   0   4  -6   35.27    8.15
   0   4   6   37.09    8.71
   0  -4   6   36.40    5.39
   0  -4  -6   26.16    6.19
   0  -6  -6  431.28   52.16
   0  -6   6  453.47   45.48
   0   6   6  447.12   43.06
   0   6  -6  396.33   40.60
   0   6   6  419.29   42.84
   0   6  -6  410.10   42.94
   0   8   6   24.67   10.78
   0   8   6   19.82    9.71
   0  -8   6   29.37   11.85
   0  -8  -6   21.89   11.99
   0   8  -6   40.27   12.89
  -1  -1   6    8.22    5.42
  -1   1  -6   13.42    3.46
   1   1   6   20.14    5.41
   1  -1  -6    8.79    4.71
  -1   1  -6   20.38    5.77
   1   1   6   24.10    7.01
  -1   1  -6   10.33    5.02
   1  -1  -6   31.30    6.72
  -1   1   6   17.92    6.24
  -1   1   6   24.11    6.55
  -1  -1  -6   33.17    6.53
   1   1  -6   17.75    3.01
   1   1  -6   28.33    6.37
   1   1  -6    9.63    5.03
   1  -1   6    9.74    5.06
  -1  -1  -6   14.20    5.51
   1   3   6   23.17    6.09
  -1   3  -6   17.39    6.06
   1  -3  -6   20.18    7.89
   1  -3  -6   26.68    6.38
  -1  -3   6   24.92    8.21
  -1   3  -6   19.73    6.39
   1   3   6    9.56    5.67
   1  -3   6   24.14    3.91
  -1  -3  -6   21.68    8.13
   1   3  -6   28.48    7.57
  -1  -3  -6   16.79    4.93
   1  -3   6   19.61    6.88
  -1   3   6   19.18    5.92
   1   3  -6   14.14    5.50
  -1   3   6   22.79    6.88
   1   5   6   29.93    9.13
  -1   5  -6   14.36    6.34
   1  -5  -6   10.26    7.04
   1   5   6   16.29    6.61
  -1   5  -6    4.26    5.20
  -1  -5   6   10.89    7.17
  -1  -5  -6   17.57    8.82
   1   5  -6    9.99    6.63
  -1   5   6   19.17    7.12
  -1   5   6   23.55    8.46
   1  -5   6   47.91   11.79
   1   5  -6   19.88    6.64
  -1   7  -6   -8.34    4.96
  -1  -7   6    5.75    6.92
   1  -7  -6   -5.18    5.82
   1   7   6    7.08    6.88
   1   7   6   15.88    8.65
  -1   7   6    7.16    7.17
   1  -7   6    1.96    6.96
  -1  -7  -6    2.37    7.96
   1   7  -6   -1.59    6.06
  -1   7   6    2.00    6.58
  -2   0   6  325.92   33.82
   2   0   6  324.95   33.69
  -2   0  -6  345.01   33.34
   2   0   6  347.62   31.84
   2   0  -6  358.22   33.15
   2   0  -6  352.19   31.49
  -2   0   6  334.84   32.46
  -2   0  -6  338.43   31.95
   2   2   6   56.21    8.00
   2   2   6   43.04    9.41
  -2   2  -6   46.69    6.61
  -2  -2   6   67.57   12.56
  -2   2  -6   50.09    9.97
  -2   2  -6   55.80   10.47
   2  -2  -6   46.43    9.65
   2  -2  -6   59.35    9.65
   2   2  -6   54.37   10.17
  -2   2   6   41.06    8.19
  -2   2   6   47.77    9.50
  -2  -2  -6   55.82    8.96
  -2  -2  -6   31.50    8.59
   2   2  -6   47.30    8.61
   2  -2   6   41.35    8.85
  -2  -4   6  160.51   24.14
   2  -4  -6  177.11   25.78
   2   4   6  217.85   25.37
  -2   4  -6  186.28   22.83
  -2   4  -6  202.46   23.35
   2   4   6  196.98   21.95
   2  -4  -6  169.31   19.10
   2  -4   6  181.30   18.83
  -2  -4  -6  166.67   24.96
  -2   4   6  195.32   22.18
  -2  -4  -6  186.20   18.80
   2   4  -6  165.24   22.07
   2  -4   6  203.20   25.96
   2   4  -6  198.01   23.14
  -2   4   6  215.83   25.59
  -2   6  -6   70.58   13.19
  -2   6  -6   54.81   10.87
  -2  -6   6   39.15   11.64
   2   6   6   72.09   14.46
   2   6   6   42.47   10.44
   2  -6  -6   57.81   15.33
   2   6  -6   32.93   10.82
  -2   6   6   35.18   10.31
   2   6  -6   47.24   10.51
   2  -6   6   45.25   12.78
  -2  -6  -6   44.83   13.75
  -2   6   6   42.60   12.56
   2  -8  -6   82.01   21.24
   2   8   6   70.53   15.63
   2   8   6   37.80   11.92
  -2  -8   6   55.30   16.63
  -2   8  -6   46.73   12.30
  -2   8   6   44.21   13.60
  -2   8   6   47.81   12.78
   2  -8   6   31.70   14.02
   2   8  -6   36.20   12.68
  -2  -8  -6   80.38   20.98
  -3   1  -6   56.99   10.29
   3   1   6   59.77    7.55
  -3   1  -6   53.75    8.56
  -3  -1   6   64.53    7.66
  -3  -1   6   64.95   11.27
   3   1   6   48.69   10.52
   3  -1  -6   40.71    8.50
   3  -1  -6   61.73    9.96
   3  -1   6   59.06    8.97
  -3   1   6   32.71    7.46
   3   1  -6   57.25    8.39
  -3   1   6   34.13    9.37
   3  -1   6   65.41   12.45
   3   1  -6   67.70   10.71
  -3  -1  -6   57.24    9.29
  -3  -1  -6   45.55    9.24
   3   3   6  101.92   12.02
   3   3   6   84.32   14.49
   3  -3  -6   57.05   12.70
  -3   3  -6   81.36   13.56
  -3   3  -6   98.15   12.16
  -3   3  -6  112.66   15.55
   3  -3  -6   92.10   12.89
  -3  -3   6   75.83   14.41
  -3  -3   6   86.89    9.09
   3  -3   6   99.45   14.69
   3   3  -6  110.76   14.82
  -3   3   6  100.83   15.46
   3   3  -6  108.96   14.74
  -3  -3  -6   77.30   14.44
  -3   3   6   79.41   11.86
  -3  -3  -6  102.85   13.19
   3   5   6   -1.63    3.50
  -3   5  -6    3.27    4.81
  -3   5  -6   -2.94    4.70
   3   5   6   -4.02    4.81
  -3  -5   6   -4.41    4.79
   3  -5  -6    5.44    6.74
  -3  -5  -6    9.76    7.13
  -3   5   6    2.58    4.48
   3   5  -6    2.81    4.21
   3  -5   6    6.11    5.77
  -3   5   6   10.16    6.15
   3  -5   6   -1.31    3.51
   3   5  -6    3.77    5.20
   3  -7  -6   75.07   18.65
   3   7   6   69.70   16.62
  -3  -7   6   69.77   16.44
  -3   7  -6   86.49   16.01
   3   7   6   96.53   15.90
  -3  -7  -6   45.08   14.62
  -3   7   6   64.25   13.42
   3  -7   6   97.43   19.26
  -3   7   6  118.83   19.56
   3   7  -6   93.37   17.50
  -4   0   6   45.26    7.81
   4   0   6   39.23    9.57
   4   0   6   37.32    6.01
   4   0  -6   35.59    8.08
  -4   0  -6   33.68    8.08
  -4   0  -6   30.57    7.75
  -4   0   6   36.28    9.50
   4   0  -6   53.09    7.27
  -4  -2   6   64.06   13.53
  -4   2  -6   81.42   12.15
  -4   2  -6   85.45   14.44
   4   2   6   88.30    9.48
   4   2   6  106.56   15.77
  -4   2  -6  114.93   15.69
  -4  -2   6   98.22    9.96
   4  -2  -6   96.94   13.27
   4  -2  -6   98.20   15.04
   4   2  -6   75.75   12.97
  -4   2   6  101.25   11.53
   4   2  -6   99.98   12.63
  -4   2   6  101.18   15.35
  -4  -2  -6   92.10   12.94
   4  -2   6   88.39   12.96
  -4  -2  -6   84.51   14.89
  -4   4  -6   21.94    7.50
   4  -4  -6   12.44    7.03
  -4   4  -6   15.10    6.27
  -4   4  -6   20.19    6.25
   4   4   6   18.57    5.06
  -4  -4   6   10.92    7.64
   4  -4  -6   14.89    5.18
   4   4   6   12.50    6.73
  -4  -4  -6    8.33    6.97
  -4   4   6   26.96    8.61
   4  -4   6   16.00    7.19
  -4   4   6   22.93    5.99
   4   4  -6   20.47    7.11
   4   4  -6   25.27    7.90
  -4  -4  -6   13.08    4.61
   4   6   6   22.08    9.39
  -4   6  -6   33.68    8.92
  -4   6  -6   13.01    7.83
   4   6   6   25.95    8.08
  -4  -6   6   23.69   10.69
   4  -6  -6   15.47    9.35
  -4  -6  -6    4.90    8.72
  -4   6   6   29.10    7.57
   4   6  -6   20.09    9.20
   4   6  -6   37.68    9.63
   4  -6   6   23.53    9.82
  -4   6   6   17.71    9.15
   4   8   6   23.78   11.89
  -4   8  -6   25.84   11.19
  -4  -8   6   34.82   13.32
   4  -8  -6   76.87   19.93
  -4  -8  -6   19.58   10.94
  -4   8   6   30.38   12.51
   4   8  -6   35.62   12.98
   4  -8   6   30.43   13.01
  -5  -1   6   77.44   14.71
  -5   1  -6   90.94   13.42
  -5  -1   6   92.00   11.82
   5   1   6   72.24   13.59
   5  -1  -6   92.59   14.64
  -5   1  -6  109.15   15.48
   5  -1   6   59.62   12.87
  -5   1   6   81.36   14.98
   5   1  -6   79.87   10.88
  -5   1   6  105.50   10.91
  -5  -1  -6   77.78   14.01
   5   1  -6   77.93   13.09
  -5  -1  -6   95.64   13.88
   5  -1   6   96.26   11.35
  -5   1   6   75.65   12.84
  -5  -3   6    9.17    5.89
   5  -3  -6    8.24    6.02
  -5   3  -6   18.75    7.10
  -5  -3   6   12.37    4.36
   5   3   6   10.81    3.46
   5   3   6    0.05    4.60
  -5   3  -6   10.79    5.23
  -5   3  -6   12.55    6.50
   5  -3  -6    8.73    4.75
  -5  -3  -6    0.13    4.51
   5   3  -6    5.60    5.25
  -5   3   6    5.34    5.20
   5  -3   6   14.84    6.33
  -5  -3  -6    6.81    4.32
   5   3  -6   12.99    5.55
  -5   3   6   13.21    3.98
  -5   5  -6  100.07   17.66
  -5  -5   6  148.96   23.36
   5   5   6  119.24   19.62
  -5   5  -6  132.69   18.80
   5  -5  -6  111.12   21.28
  -5   5  -6  107.51   17.54
   5  -5   6  157.16   22.20
  -5   5   6  115.88   19.17
   5   5  -6  103.44   18.05
  -5  -5  -6  114.39   20.71
   5   5  -6  154.62   19.97
   5  -7  -6   11.48   10.19
  -5   7  -6    0.28    5.80
   5   7   6   -1.15    8.05
  -5  -7   6   -0.46    7.73
  -5   7   6    1.17    7.10
   5   7  -6    0.78    7.87
   5  -7   6   -8.10    5.54
  -5  -7  -6    7.44    8.68
  -6   0  -6  675.21   61.69
   6   0  -6  655.38   57.71
  -6   0   6  658.39   60.44
   6   0  -6  676.48   61.98
  -6   0   6  648.94   62.89
  -6   0  -6  644.17   60.90
   6   0   6  678.76   62.01
  -6   2  -6  177.42   20.57
  -6  -2   6  120.19   21.15
   6   2   6  191.07   23.48
  -6  -2   6  151.69   18.07
  -6   2  -6  181.88   21.66
   6  -2  -6  171.70   21.18
   6   2  -6  158.45   18.36
  -6   2   6   98.31   18.95
   6  -2   6  156.20   18.74
  -6   2   6  149.32   21.38
  -6  -2  -6  143.62   19.42
   6   2  -6  199.33   23.68
   6  -2   6  147.65   21.72
  -6  -2  -6  139.05   20.85
  -6  -4   6  399.38   43.31
  -6   4  -6  358.54   34.62
   6  -4  -6  323.16   32.97
   6   4   6  376.74   40.01
   6  -4  -6  281.70   38.71
  -6   4  -6  291.52   33.43
  -6   4  -6  328.18   33.91
  -6   4   6  374.20   40.54
   6  -4   6  332.91   34.55
  -6  -4  -6  340.76   32.76
   6   4  -6  323.68   33.44
  -6  -4  -6  285.75   39.81
   6   4  -6  335.75   34.59
  -6   6  -6   63.72   13.65
  -6   6  -6   40.30   10.98
  -6  -6   6   53.05   14.69
   6   6   6   54.54   14.49
   6  -6  -6   41.39   13.69
  -6   6  -6   54.08   13.23
  -6  -6  -6   27.95   11.26
  -6   6   6   63.43   15.66
   6   6  -6   61.45   13.17
   6   6  -6   49.31   13.08
   6  -6   6   66.87   15.67
   6   8   6  126.02   23.81
  -6   8  -6  144.24   22.34
  -6  -8   6  134.79   26.50
  -6   8   6  152.23   26.33
   6  -8   6  154.05   28.35
   6   8  -6  112.14   22.29
  -6  -8  -6  128.60   26.12
   7  -1  -6   77.60   14.35
   7   1   6   50.64   11.31
  -7   1  -6   43.37   10.39
  -7  -1   6   53.31   12.63
  -7   1  -6   58.44   11.78
  -7  -1   6   46.38    9.59
   7   1  -6   35.10    9.61
  -7   1   6   67.88   11.54
  -7  -1  -6   47.07   10.31
  -7   1   6   66.44   14.08
   7  -1   6   55.11   12.56
   7  -1   6   48.94    7.34
  -7  -1  -6   78.58   14.18
   7   1  -6   53.54    7.82
   7  -3  -6  236.04   29.65
  -7   3  -6  210.59   26.32
   7  -3  -6  237.05   27.62
  -7   3  -6  223.19   27.72
   7   3   6  202.97   27.52
  -7  -3   6  207.79   22.55
  -7   3  -6  265.83   29.43
  -7  -3   6  215.50   30.63
  -7  -3  -6  201.97   28.69
   7   3  -6  215.91   28.49
   7  -3   6  250.91   26.68
   7   3  -6  212.03   24.80
  -7  -3  -6  215.71   25.90
  -7   3   6  156.28   25.71
  -7   3   6  222.20   29.55
  -7   5  -6   32.69   10.14
  -7   5  -6   25.82    9.28
   7  -5  -6   27.31   11.35
  -7  -5   6   20.27   11.30
  -7   5  -6   36.11   10.62
   7  -5  -6   33.71    9.33
  -7   5  -6   40.57   10.84
   7   5   6   19.01    9.49
  -7  -5  -6   26.67   10.58
   7   5  -6   43.35   11.13
  -7   5   6   40.66   11.89
   7   5  -6   36.38    9.97
   7  -7  -6  108.14   24.03
  -7   7  -6  170.92   22.55
   7   7   6  130.54   22.70
  -7  -7   6  107.97   22.74
  -7   7  -6   80.33   17.29
  -7   7   6   55.77   17.34
   7   7  -6  124.33   20.63
  -7  -7  -6   71.51   18.01
  -8   0   6   91.23   14.35
   8   0   6   87.07   14.82
  -8   0   6   56.36   13.58
   8   0  -6   84.00   16.59
  -8   0  -6   84.85   14.51
  -8   0  -6   81.98   15.04
  -8  -2   6   44.60    9.44
  -8   2  -6   56.56   12.04
   8   2   6   62.55   12.91
   8  -2  -6   31.01   10.06
  -8   2  -6   68.27   12.37
  -8  -2   6   19.64    9.08
   8   2  -6   44.74    8.33
   8  -2   6   38.09   11.05
  -8   2   6   66.56   13.83
   8   2  -6   31.07   10.17
  -8  -2  -6   48.46   12.51
  -8   2   6   59.64   13.31
  -8  -2  -6   34.93    9.40
  -8   4  -6   22.30    8.67
  -8  -4   6   16.90    9.07
  -8   4  -6    6.69    5.47
  -8   4  -6   20.71    8.47
  -8   4  -6    3.80    6.00
   8   4   6   11.61    7.14
   8  -4  -6   21.04    9.88
   8  -4  -6   15.80    8.02
  -8  -4  -6   17.08    7.94
   8   4  -6   20.90    7.09
  -8  -4  -6    5.34    8.66
  -8   4   6   16.97    9.51
   8   4  -6    7.08    6.83
  -8   6  -6    9.47    8.00
   8  -6  -6    8.01    9.85
  -8   6  -6    5.47    8.87
  -8  -6   6    8.13   10.13
  -8   6  -6   23.01    9.42
   8   6   6   21.41    9.68
  -8   6  -6   15.76    9.24
  -8   6   6   10.10    9.15
   8   6  -6   16.05    8.16
   8   6  -6   26.37   10.22
  -8  -6  -6    8.37    9.38
   9  -1  -6   80.25   14.43
  -9   1  -6   91.76   15.99
   9   1   6   65.90   14.12
  -9  -1   6   73.41   15.81
  -9   1  -6   72.99   14.76
  -9  -1   6   66.60   13.02
  -9   1   6   61.74   14.88
  -9  -1  -6   88.92   15.16
   9   1  -6   40.12   12.45
  -9  -1  -6   83.32   16.08
   9  -1   6   57.42   13.36
  -9   1   6   93.87   16.54
  -9   3  -6   36.06   10.81
  -9  -3   6   15.95    6.22
   9   3   6   19.43    8.43
   9  -3  -6   22.56    8.68
  -9   3  -6   21.71    8.68
  -9  -3   6   16.26    9.15
  -9  -3  -6   26.45    9.11
   9  -3   6   19.20    9.03
  -9   3   6   14.42   10.03
   9   3  -6    4.44    6.19
  -9  -3  -6   17.88   10.46
   9   3  -6    7.85    5.36
  -9   3   6   42.96   12.59
  -9  -5   6   51.48   16.75
  -9   5  -6  141.96   21.27
  -9   5  -6   94.27   17.18
  -9   5  -6  111.16   17.40
   9  -5  -6  115.61   18.49
   9   5   6   95.69   18.95
  -9   5  -6  114.85   19.60
   9  -5  -6   71.18   19.04
  -9   5   6  102.07   19.69
   9   5  -6   82.21   16.89
   9   5  -6  107.29   17.33
  -9  -5  -6   69.23   18.00
  -9   7  -6    5.92    7.97
   9   7   6    4.35    9.03
   9  -7  -6   10.09   10.14
  -9   7  -6   10.54    8.90
  -9  -7   6   -7.71    8.48
  -9   7   6   -9.91    8.27
   9   7  -6   -0.36    7.38
  -9  -7  -6    8.38    9.49
 -10   0   6   10.26    6.37
 -10   0  -6   -2.66    4.18
  10   0   6   12.11    7.61
 -10   0  -6   10.82    8.51
 -10   0   6   -2.30    5.86
  10   0  -6   -2.20    5.00
  10  -2  -6    3.68    6.72
  10   2   6   -3.98    5.01
 -10  -2   6    3.00    4.69
 -10  -2   6    4.80    6.97
 -10   2  -6    0.37    6.28
 -10   2  -6   -0.68    5.84
 -10   2   6   -0.68    5.16
 -10   2   6    4.23    7.04
  10   2  -6    0.78    6.33
 -10  -2  -6    4.93    7.05
  10  -2   6   -2.15    5.58
 -10  -2  -6    2.34    7.01
  10   4   6    5.36    7.11
  10   4   6   -7.08    5.67
 -10   4  -6   13.51    7.37
 -10   4  -6    1.05    6.30
  10  -4  -6    1.59    5.74
 -10  -4   6   -2.12    6.80
 -10   4   6   -2.32    6.70
 -10  -4  -6   -5.10    5.66
 -10   4   6   -1.14    7.38
  10   4  -6    7.83    7.90
  10  -4   6   -1.60    5.94
  10   4  -6   -4.17    4.85
  10  -6  -6   -1.89    6.78
 -10   6  -6   -1.86    7.38
  10   6   6   11.51    9.19
 -10   6  -6   -5.33    6.74
 -10   6  -6    3.24    8.23
 -10  -6   6   -2.80    8.94
 -10   6  -6  -10.27    7.51
  10   6  -6   -0.09    7.05
 -10  -6  -6   -7.89    6.19
 -10   6   6    1.40    7.75
  10   6  -6   -0.05    7.26
  11   1   6   55.23   12.92
  11  -1  -6   43.83   12.66
 -11  -1   6   33.66   11.83
 -11   1  -6   62.45   13.32
 -11  -1   6   65.90   13.38
 -11   1  -6   39.87   13.31
  11  -1   6   47.35   11.72
 -11   1   6   54.93   13.83
  11   1  -6   45.62   12.11
 -11  -1  -6   47.10   14.51
 -11   1   6   33.30   11.49
 -11  -1  -6   65.42   14.81
 -11   3  -6  105.44   18.60
 -11  -3   6   95.03   17.14
 -11   3  -6   55.38   15.00
 -11  -3   6   87.06   19.92
  11  -3  -6   97.31   19.58
  11   3   6  108.27   20.64
  11   3   6   95.93   18.37
 -11  -3  -6  101.75   18.01
 -11  -3  -6   97.53   19.77
 -11   3   6   87.84   18.11
 -11   3   6  119.98   21.72
  11  -3   6  106.35   18.39
  11   3  -6   60.43   17.39
  11  -5  -6    4.82    8.60
 -11   5  -6    9.37    9.58
  11   5   6   -2.84    7.90
 -11   5  -6    8.82    8.53
  11  -5  -6   -4.62    7.00
 -11  -5   6    8.06    9.95
  11  -5   6    5.46    8.46
 -11   5   6    3.36    9.00
 -11  -5  -6    1.47    9.13
  11   5  -6    7.46    8.85
  12   0   6  293.60   35.28
 -12   0  -6  288.84   37.50
 -12   0   6  218.57   33.11
 -12   0   6  290.80   37.87
 -12   0  -6  356.86   41.81
  12  -2  -6   63.98   15.12
 -12   2  -6   57.16   14.97
 -12  -2   6   47.38   12.43
 -12  -2   6   52.32   14.99
 -12   2  -6   32.41   12.47
  12   2   6   33.33   11.60
 -12  -2  -6   34.56   11.36
 -12   2   6   39.07   12.74
  12   2  -6   36.61   13.90
 -12  -2  -6   54.14   15.33
  12  -2   6   66.46   13.40
 -12   2   6   33.42   12.92
 -12   4  -6  190.38   29.88
  12   4   6  238.77   33.08
  12  -4  -6  236.79   32.30
 -12  -4   6  164.34   28.69
 -12   4  -6  169.09   28.49
  12   4   6  252.26   32.73
 -12   4   6  216.06   32.17
 -12   4   6  240.97   34.23
 -12  -4  -6  208.21   33.08
  13  -1  -6   38.22   12.89
  13   1   6   13.09    8.76
 -13   1  -6   16.74   10.13
 -13  -1   6   27.61   10.09
 -13   1  -6   21.88   11.71
  13   1   6   43.74   15.20
 -13  -1   6   19.74   10.25
  13  -1   6   23.00   10.04
 -13   1   6   45.95   13.59
 -13  -1  -6   40.84   14.93
 -13   1   6   11.44    8.36
  13   1  -6   25.16   11.96
  13   3   6   -2.27    5.94
  13   3   6    3.10    7.55
 -13   3  -6   -0.26    7.63
  13  -3  -6    2.40    7.83
 -13   3  -6    2.57    7.69
 -13  -3   6    8.61    7.52
 -13  -3   6    1.53    7.45
 -13   3   6   -0.43    7.25
 -13  -3  -6    1.19    8.61
  13   3  -6   12.15    8.70
 -13   3   6    0.62    7.64
 -14   0  -6   -9.62    7.26
  14   0  -6   -2.65    7.04
  14   0   6    8.22    8.64
 -14   0   6   28.00   11.59
 -14   0   6   10.43    8.01
  14  -2  -6  118.22   23.66
  14   2   6  120.46   24.07
 -14  -2   6  106.83   21.75
  14   2   6  129.21   21.30
 -14  -2   6  115.47   20.66
 -14   2  -6   88.76   21.07
 -14   2   6  119.53   22.42
 -14   2   6   84.41   19.26
  14   2  -6   76.26   19.57
  14  -2   6   73.57   20.83
 -14  -2  -6  157.33   28.68
   0   0   7   -0.26    4.26
   0   0   7   -1.55    3.48
   0   0  -7   -1.29    2.13
   0   0  -7    7.74    4.62
   0  -2   7   -1.32    3.84
   0  -2  -7    2.54    3.79
   0   2  -7    6.46    5.06
   0   2   7    3.38    4.87
   0  -2  -7    9.59    5.58
   0   2   7    4.32    4.08
   0   2  -7    1.09    3.72
   0  -4  -7    4.54    4.21
   0   4  -7   11.72    5.98
   0   4   7    6.57    5.72
   0  -4   7   12.86    6.87
   0   4   7    8.97    5.58
   0   4  -7    8.87    5.26
   0  -4  -7   10.87    7.60
   0   6   7    9.96    7.42
   0  -6   7    9.78    7.40
   0   6   7    4.00    6.30
   0   6  -7   13.55    6.71
   0  -6  -7   28.24   10.97
   0   6  -7    8.10    6.94
   0   8  -7   18.28   10.36
   0   8   7   23.17   10.50
   0  -8   7   21.27   10.37
   0  -8  -7    9.29    9.64
   0   8   7   23.59   10.70
  -1   1  -7   11.23    5.76
   1  -1  -7    7.11    4.56
   1   1   7    5.42    4.21
  -1   1  -7    7.14    5.30
  -1  -1   7    7.86    5.41
  -1   1  -7    7.76    3.03
   1   1   7    7.06    5.50
   1  -1  -7   20.71    6.18
  -1  -1  -7    3.86    3.47
  -1  -1  -7    8.20    4.47
  -1   1   7    4.39    4.40
   1  -1   7    5.63    5.13
  -1   1   7   11.23    5.10
   1   1  -7    5.55    2.33
   1   1  -7    9.81    4.80
   1   1  -7   14.76    6.13
  -1  -3   7    4.93    5.54
   1   3   7    3.20    4.14
   1  -3  -7   -1.28    4.27
  -1   3  -7    9.91    6.22
   1   3   7   10.23    5.81
  -1   3  -7    8.09    5.00
   1  -3  -7   -0.73    3.51
   1   3  -7    0.18    3.79
  -1   3   7    1.85    4.47
   1  -3   7    2.60    4.62
  -1  -3  -7    0.65    4.11
  -1  -3  -7   -1.92    2.75
  -1   3   7    0.86    4.09
   1   3  -7   -2.97    3.14
   1   5   7    8.37    6.58
  -1   5  -7    4.14    5.06
   1  -5  -7    0.10    6.88
  -1   5  -7   12.92    6.48
   1   5   7   11.42    6.02
  -1  -5   7   -1.64    4.93
   1   5  -7   -5.82    3.86
  -1  -5  -7    6.38    6.36
   1  -5   7    0.09    5.46
  -1   5   7   21.48    8.54
   1   5  -7   12.31    5.91
  -1   5   7    1.23    5.19
   1  -7  -7    4.47    8.67
  -1  -7   7   -0.15    6.43
  -1   7  -7    4.84    6.83
   1   7   7    2.48    6.46
   1   7   7   -2.89    7.16
  -1  -7  -7    8.07    7.56
  -1   7   7    3.22    7.45
  -1   7   7   -3.49    5.47
   1  -7   7    5.12    8.51
   1   7  -7   -0.29    6.50
  -2   0   7   -1.08    3.85
  -2   0  -7   -0.08    2.85
   2   0  -7   -1.01    2.50
   2   0  -7   -3.11    3.29
   2   0   7   -1.23    2.85
  -2   0   7    3.56    4.56
   2   0   7   -6.11    3.61
  -2   0  -7   -4.55    3.14
  -2   2  -7   -1.89    1.95
  -2   2  -7    1.92    4.46
   2   2   7   -0.86    2.73
   2  -2  -7   -3.23    2.89
   2   2   7   -3.00    4.23
   2  -2  -7   -1.69    4.20
  -2  -2   7    0.40    4.34
  -2   2  -7   -2.28    3.58
  -2   2   7    1.60    3.64
  -2  -2  -7   -2.38    3.79
   2  -2   7    2.77    3.76
   2   2  -7   -4.36    3.03
  -2  -2  -7   -1.30    3.06
   2   2  -7    1.00    3.33
  -2   2   7    2.17    3.88
   2  -4  -7    3.61    4.27
  -2   4  -7    8.63    6.40
   2  -4  -7   12.94    7.84
  -2  -4   7    7.45    7.05
  -2   4  -7   15.76    6.66
   2   4   7   12.82    7.01
   2   4   7    6.07    4.80
   2   4  -7   16.94    6.29
  -2  -4  -7    3.66    4.31
   2  -4   7    8.81    6.26
   2   4  -7   16.94    6.91
  -2  -4  -7   19.87    8.50
  -2   4   7    9.16    5.67
  -2   4   7    6.53    5.77
  -2   6  -7   14.68    7.75
   2   6   7   30.91    8.55
   2   6   7   33.56    9.71
  -2   6  -7   27.86    9.02
   2  -6  -7   34.88   13.06
  -2  -6   7   28.60   10.55
  -2   6   7   34.59    9.44
   2   6  -7   46.27   10.36
  -2  -6  -7   20.46   11.55
   2   6  -7   28.69   10.05
  -2   6   7   56.29   13.61
   2  -6   7    3.25    7.05
   2   8   7   32.90   11.08
  -2   8  -7   38.05   12.42
   2   8   7   14.39   10.70
   2  -8  -7    9.25   11.61
  -2  -8   7   34.26   14.01
   2  -8   7   43.40   14.07
  -2  -8  -7   29.03   13.86
   2   8  -7   45.13   13.62
  -2   8   7   40.71   11.68
  -2   8   7   40.47   13.48
   3   1   7  248.40   23.70
  -3   1  -7  250.04   26.53
  -3  -1   7  265.65   30.48
   3  -1  -7  255.96   25.41
   3   1   7  237.42   29.35
   3  -1  -7  245.89   25.97
  -3   1  -7  241.08   24.48
  -3  -1  -7  227.24   25.57
   3   1  -7  257.17   24.83
   3   1  -7  262.92   23.34
  -3   1   7  243.37   24.72
  -3  -1  -7  232.50   25.91
   3  -1   7  256.12   25.08
  -3   1   7  265.45   30.33
   3  -1   7  265.36   31.07
   3   1  -7  269.07   26.56
   3  -3  -7  363.23   36.47
  -3   3  -7  321.26   35.07
   3   3   7  335.72   35.54
  -3  -3   7  370.55   37.53
  -3   3  -7  335.13   34.92
  -3   3  -7  334.87   32.29
   3   3   7  322.32   32.63
   3  -3  -7  342.53   33.89
  -3  -3  -7  364.03   34.02
  -3  -3  -7  356.93   36.17
   3   3  -7  375.70   34.40
  -3   3   7  370.39   33.46
  -3   3   7  386.37   36.44
   3  -3   7  360.19   35.14
   3   3  -7  337.69   35.17
  -3   5  -7  298.22   33.12
  -3   5  -7  300.37   34.05
  -3  -5   7  191.72   31.99
   3  -5  -7  320.93   39.71
   3   5   7  274.39   28.78
   3   5   7  293.01   35.03
   3  -5   7  329.85   36.80
   3   5  -7  282.40   33.77
  -3  -5  -7  293.79   37.32
  -3   5   7  302.54   35.38
  -3   5   7  268.47   28.92
   3   5  -7  300.70   33.11
   3  -7  -7   72.08   18.74
  -3  -7   7   70.42   17.15
  -3   7  -7   81.03   15.81
   3   7   7   72.29   16.00
   3   7   7   99.83   16.23
   3   7  -7   74.49   15.97
   3  -7   7   58.83   16.53
  -3   7   7   95.52   19.19
  -3   7   7  124.51   17.34
  -3  -7  -7   84.59   21.16
  -4   0   7   -3.09    2.94
   4   0  -7   -3.56    2.79
   4   0  -7   -4.16    3.66
  -4   0  -7    3.73    3.78
   4   0   7    1.37    2.65
   4   0   7   -3.49    3.68
  -4   0   7    0.33    3.87
  -4   0  -7   -3.89    3.22
  -4  -2   7    1.84    2.21
   4  -2  -7    7.37    5.20
   4   2   7   14.92    6.47
  -4   2  -7    6.88    5.18
  -4  -2   7    7.92    6.49
  -4   2  -7    3.28    4.58
   4  -2  -7   -2.32    3.09
   4   2   7    1.62    2.34
  -4   2  -7   -0.28    2.99
   4   2  -7    3.42    4.86
   4   2  -7    0.54    3.33
  -4  -2  -7   -0.55    4.46
  -4  -2  -7   10.00    5.18
  -4   2   7    6.71    3.81
   4  -2   7    2.20    3.68
  -4   2   7    3.12    4.86
   4  -4  -7    9.96    6.72
  -4   4  -7    8.62    5.04
   4  -4  -7    3.53    4.21
   4   4   7    0.86    3.33
  -4   4  -7    6.63    5.97
   4   4   7    9.52    6.81
  -4  -4   7    5.39    7.12
  -4   4  -7    8.38    5.47
  -4  -4  -7   -0.46    3.42
   4   4  -7    9.09    6.02
   4   4  -7    3.22    5.34
  -4   4   7   10.11    6.88
   4  -4   7   17.30    7.36
  -4   4   7   12.54    5.24
  -4  -4  -7   -2.75    4.43
   4  -6  -7   18.79   10.57
  -4  -6   7   44.83   13.94
   4   6   7   25.78   10.71
  -4   6  -7   65.66   12.84
  -4   6  -7   32.84   10.58
   4  -6   7   39.58   12.80
   4   6  -7   47.75   11.77
   4   6  -7   32.62   10.82
  -4   6   7   59.29   15.29
  -4  -6  -7   57.66   16.26
  -4   6   7   57.03   14.98
  -4   8  -7   21.30    9.91
   4  -8  -7   41.14   15.43
   4   8   7   10.03   10.09
  -4  -8   7    4.98    8.77
   4  -8   7    5.60    9.45
  -4  -8  -7    9.72   10.15
   4   8  -7   28.79   12.82
  -4   8   7   40.15   14.11
   5  -1  -7    2.27    4.63
  -5   1  -7   13.64    5.56
  -5  -1   7    8.94    3.93
   5   1   7   12.38    2.96
  -5   1  -7   14.57    7.23
   5  -1  -7   12.22    5.40
   5   1   7    1.69    4.68
  -5  -1   7   22.80    8.73
   5  -1   7    6.71    6.86
  -5   1   7   15.33    4.72
  -5   1   7   19.04    7.85
   5   1  -7    8.11    4.64
   5   1  -7   11.28    4.08
  -5  -1  -7   15.87    5.32
   5  -1   7   10.88    4.78
  -5  -1  -7   16.76    6.55
   5  -3  -7   46.20   10.82
   5  -3  -7   43.65    9.21
  -5   3  -7   48.23   10.68
  -5  -3   7   41.59   11.44
  -5   3  -7   43.54   10.48
   5   3   7   34.06   10.44
  -5   3  -7   41.52    8.52
   5  -3   7   27.95    8.06
   5   3  -7   39.16    9.77
   5   3  -7   27.52    7.46
  -5   3   7   29.45    6.25
  -5  -3  -7   30.80    9.82
  -5   3   7   21.04    8.66
  -5  -3  -7   47.34    9.29
  -5  -5   7   21.30    9.87
   5   5   7   15.03    9.56
  -5   5  -7   27.07    9.00
   5  -5  -7   30.43   10.84
  -5   5  -7   13.06    7.52
  -5  -5  -7   15.81    8.55
  -5   5   7   26.98   10.60
   5   5  -7   24.85    8.75
   5  -5   7   29.71   10.27
   5   5  -7   34.01   10.14
   5   7   7   -2.23    6.78
   5  -7  -7   -5.02    7.82
  -5   7  -7    5.60    7.81
  -5  -7   7   -4.37    7.34
  -5   7   7   -3.09    6.54
   5  -7   7   -1.15    6.89
   5   7  -7    2.84    6.84
  -5  -7  -7   -3.12    7.60
  -6   0   7   -1.30    3.09
  -6   0   7    0.07    3.08
  -6   0   7    1.31    4.64
  -6   0  -7   -2.02    3.84
   6   0  -7    0.98    4.32
   6   0   7    3.05    5.50
  -6   0  -7   -2.70    3.94
  -6  -2   7    4.72    3.07
   6   2   7    6.08    6.26
  -6   2  -7   -5.89    2.34
   6  -2  -7   -3.95    3.88
  -6  -2   7    2.51    5.05
  -6   2  -7    1.97    3.85
   6  -2  -7   -1.27    3.45
   6   2  -7   -6.61    3.10
  -6  -2  -7   -3.17    4.23
   6   2  -7   -4.12    2.65
  -6  -2  -7    2.14    3.93
  -6   2   7   -0.35    4.32
   6  -2   7    2.94    3.96
   6  -2   7   -5.00    4.28
  -6   4  -7    2.76    5.64
   6  -4  -7   21.24    7.18
  -6  -4   7   10.97    8.48
  -6   4  -7   19.88    8.37
  -6   4  -7    5.47    5.53
   6   4   7   -7.16    4.84
   6  -4  -7   -4.18    6.23
  -6  -4  -7    0.19    4.46
  -6  -4  -7   -3.08    5.04
   6   4  -7   13.55    7.67
   6   4  -7    4.47    4.92
  -6   4   7    8.36    6.28
   6  -4   7   -3.32    5.49
  -6   6  -7    8.24    7.58
   6   6   7   19.83   10.00
   6  -6  -7   33.90   13.92
  -6   6  -7   16.50    7.78
  -6  -6   7   20.77   10.96
   6   6  -7    2.06    7.14
  -6  -6  -7   18.59   10.84
   6   6  -7   17.37    8.76
  -6   6   7    2.89    7.46
   6  -6   7   19.99   10.33
   7  -1  -7   -4.86    3.75
  -7  -1   7    0.62    3.08
   7   1   7   -2.25    4.63
  -7  -1   7    1.16    5.01
  -7   1  -7   -1.76    4.37
  -7   1  -7    3.70    5.56
   7   1  -7   -5.09    4.25
   7   1  -7    1.20    3.08
  -7  -1  -7    2.29    4.67
   7  -1   7    4.00    5.73
  -7   1   7   -1.59    3.84
  -7   1   7   -2.26    4.97
  -7  -1  -7   -0.09    4.06
   7  -3  -7    7.06    5.74
  -7   3  -7   -1.93    4.42
   7  -3  -7   -3.68    4.34
  -7  -3   7    8.51    8.17
   7   3   7    0.13    5.48
  -7   3  -7   -0.71    4.48
   7  -3   7   -2.09    5.25
  -7  -3  -7   -6.83    4.53
  -7  -3  -7   -0.85    3.95
   7  -3   7   -2.23    4.22
  -7   3   7    2.90    5.78
   7   3  -7    0.33    3.94
   7   3  -7    9.00    5.93
   7  -5  -7   -0.34    7.21
   7   5   7   -2.15    5.67
  -7   5  -7    0.20    4.87
  -7   5  -7    6.07    7.15
  -7  -5   7    3.16    7.62
   7   5  -7    3.59    5.60
  -7   5   7    5.55    6.74
   7   5  -7   -7.66    5.93
   7  -5   7    4.46    6.90
  -7  -5  -7    1.78    6.40
   7  -7  -7    1.95    9.50
   7   7   7    8.46    8.49
  -7   7  -7    7.51    8.71
  -7  -7   7    2.59    8.29
   7  -7   7   -6.72    7.23
  -7   7   7   -3.89    6.27
  -7  -7  -7   11.18    9.98
   7   7  -7   -7.84    6.24
  -8   0  -7    2.27    5.75
  -8   0   7   -4.04    3.80
   8   0   7   -3.45    4.31
  -8   0  -7    0.81    5.09
   8   0  -7   -0.84    4.68
  -8   0   7    4.96    5.58
  -8   2  -7    1.47    4.56
   8  -2  -7    5.12    5.57
  -8  -2   7    3.18    3.92
  -8  -2   7   -3.30    5.81
  -8   2  -7    2.78    4.74
   8   2   7   11.95    8.29
   8   2  -7   -3.60    5.05
  -8   2   7   -3.36    5.33
  -8  -2  -7   -1.83    4.00
   8  -2   7   -0.67    6.29
   8   2  -7    6.05    4.03
  -8  -2  -7    2.78    6.23
  -8   2   7   -0.69    5.04
   8   4   7   -2.63    5.57
  -8   4  -7   10.59    7.04
   8  -4  -7    1.03    7.05
  -8  -4   7   13.42    8.93
  -8   4  -7   -6.41    4.67
   8  -4  -7    3.94    5.25
  -8   4  -7   10.38    6.88
   8  -4   7    3.75    5.99
  -8   4   7   10.09    8.13
  -8  -4  -7    6.19    6.13
   8   4  -7   -3.78    4.53
   8   4  -7    7.45    5.94
  -8  -4  -7    8.43    8.40
   8   6   7   13.19    9.73
  -8   6  -7   32.96   11.15
  -8   6  -7   12.26    8.10
  -8  -6   7   20.81   11.72
   8  -6  -7   18.52   11.53
   8  -6   7    6.90    8.54
  -8   6   7    9.45    9.44
  -8  -6  -7   35.88   12.49
   8   6  -7   15.34    8.07
   8   6  -7   22.68   10.53
  -9  -1   7  129.38   22.95
   9  -1  -7  140.71   22.54
  -9   1  -7  199.89   25.89
  -9  -1   7  161.86   21.44
   9   1   7  160.37   23.72
  -9   1  -7  191.03   25.34
  -9  -1  -7  142.46   23.06
   9   1  -7  150.83   25.43
  -9   1   7  124.72   22.43
  -9   1   7  171.40   23.31
   9  -1   7  154.75   23.42
  -9  -1  -7  137.98   21.42
   9   3   7  158.52   26.12
  -9  -3   7  191.37   30.17
   9  -3  -7  189.94   26.50
  -9   3  -7  209.48   28.24
  -9   3  -7  167.66   24.64
   9  -3   7  205.98   27.60
  -9  -3  -7  200.75   25.99
  -9   3   7  199.81   29.39
  -9  -3  -7  143.20   26.07
   9   3  -7  238.06   29.47
  -9   3   7  169.73   27.00
  -9  -5   7  160.84   26.84
   9  -5  -7  153.93   30.10
  -9   5  -7  138.70   22.79
   9   5   7  159.28   24.80
  -9   5  -7  160.88   23.96
  -9   5  -7  164.94   24.38
   9  -5  -7  139.23   25.45
  -9   5   7  124.64   23.69
   9   5  -7  138.82   21.53
  -9  -5  -7  143.17   26.32
   9   5  -7  103.32   21.30
 -10   0  -7   -7.37    5.21
 -10   0   7    7.37    7.41
 -10   0  -7   -2.88    4.67
  10   0  -7    0.54    6.67
 -10   0   7   -2.75    4.63
  10   0   7   -7.71    4.82
 -10  -2   7   -8.22    3.38
 -10  -2   7   -0.62    7.24
 -10   2  -7   -4.78    5.88
  10  -2  -7   -6.13    4.57
 -10   2  -7   -0.09    6.25
  10   2   7   20.77    9.39
  10  -2   7    6.52    7.80
  10   2  -7    2.22    6.41
 -10   2   7   -2.89    5.87
 -10  -2  -7   -2.75    4.90
 -10   2   7   -4.52    5.31
 -10  -2  -7   -1.71    4.59
  10  -4  -7    2.03    6.34
 -10   4  -7   15.87    8.95
  10  -4  -7    5.49    9.16
 -10  -4   7   -5.03    6.57
  10   4   7    5.23    7.79
 -10   4  -7    9.75    7.91
  10   4  -7   10.19    8.98
 -10   4   7   14.86   10.00
 -10  -4  -7    9.59    9.71
 -10  -4  -7   14.27    7.89
  10  -4   7   -2.18    7.57
 -10   6  -7   26.60   11.80
 -10   6  -7   23.60   10.24
  10  -6  -7   29.95   13.84
 -10  -6   7   20.36   12.40
  10   6   7   16.99   10.99
  10   6  -7   34.18   11.72
  10   6  -7   20.73   11.69
 -10  -6  -7    4.35    9.10
 -10   6   7   16.70   11.56
  11  -1  -7   30.05   12.01
 -11  -1   7   12.15    9.25
 -11   1  -7   20.99   10.40
 -11   1  -7   15.58    7.97
 -11  -1   7   22.95    8.74
  11   1   7   27.64   10.58
 -11   1   7   13.70    8.46
 -11  -1  -7    7.88    7.08
  11   1  -7   16.03    9.17
 -11   1   7   31.52   12.22
 -11  -1  -7   36.40   12.67
  11  -1   7   20.11    9.59
 -11  -3   7   54.92   15.68
  11   3   7   82.51   17.33
 -11   3  -7   46.82   12.64
 -11   3  -7   35.97   11.71
  11  -3  -7   24.40   11.12
  11  -3   7   12.15    8.63
 -11  -3  -7   92.41   17.24
 -11   3   7   40.45   13.00
 -11  -3  -7   21.59   10.19
 -11   3   7   43.26   13.15
  11   3  -7   35.81   12.13
 -11   5  -7   36.80   13.34
  11   5   7   45.53   14.67
  11  -5  -7   33.00   14.75
 -11  -5   7   27.35   13.09
 -11   5  -7   20.96   11.46
 -11   5   7   22.25   11.64
  11  -5   7    4.71    8.78
  11   5  -7   11.07   10.09
 -11  -5  -7   35.78   13.66
  12   0   7    0.67    5.98
 -12   0  -7    0.13    5.98
  12   0  -7   -2.32    5.55
 -12   0  -7   -9.37    5.60
 -12   0   7   -1.30    4.83
 -12   0   7   -0.93    6.60
 -12   2  -7    6.15    7.97
  12   2   7   -3.12    6.60
  12  -2  -7   -1.12    6.07
 -12   2  -7   -4.48    6.51
 -12  -2   7   -2.30    4.64
 -12  -2   7    6.21    8.90
 -12   2   7    1.09    8.86
  12  -2   7   -1.35    7.38
 -12  -2  -7  -13.11    5.97
 -12  -2  -7   -7.66    4.77
  12   2  -7   -5.72    6.39
 -12   2   7    2.54    6.63
 -12   4  -7    5.96    8.83
  12   4   7   -0.70    8.24
  12   4   7    8.44    9.54
 -12   4  -7    6.77    9.22
  12  -4  -7    5.13    7.82
 -12  -4   7   -3.09    8.44
 -12   4   7    8.87    9.14
  12   4  -7   -2.27    7.63
 -12  -4  -7    1.41    8.15
  12  -4   7   -4.89    7.55
 -12   4   7   -2.33    8.19
 -13  -1   7    2.72    6.74
  13   1   7    2.06    7.74
 -13  -1   7   -8.77    7.06
  13  -1  -7    3.50    8.86
 -13   1  -7   -0.32    5.81
 -13   1  -7    4.40    8.21
 -13   1   7   -3.41    6.47
 -13   1   7   -0.68    6.86
 -13  -1  -7   -0.39    7.16
  13   1  -7   -4.41    5.53
  13  -1   7   -0.95    7.14
 -13  -1  -7    4.54    5.97
  13   3   7    5.42    7.67
 -13  -3   7   -4.29    7.71
  13   3   7    0.70    8.05
 -13   3  -7    5.42    8.27
 -13   3  -7   13.83    9.10
  13  -3  -7    1.68    7.29
 -13   3   7    1.35    7.97
 -13  -3  -7    4.19    8.43
  13   3  -7    1.45    7.46
 -13   3   7  -14.43    6.73
  14   0  -7   -1.34    6.14
 -14   0  -7    7.06    7.10
  14   0   7   -6.55    6.10
 -14   0   7   -4.61    7.86
 -14   0   7   -6.35    5.40
 -14   0  -7    3.63    8.92
  14   2   7   -0.07    6.77
  14   2   7   -3.10    7.59
  14  -2  -7   -1.93    7.58
 -14  -2   7    0.15    8.96
 -14   2  -7    6.38    9.56
 -14   2  -7    5.58    8.73
  14   2  -7   -6.71    5.70
 -14   2   7    4.19    8.02
 -14   2   7   -1.14    9.62
 -14  -2  -7    0.30    8.54
   0   0   8  734.39   65.83
   0   0   8  717.89   65.35
   0   0  -8  692.05   65.83
   0   0  -8  706.71   62.99
   0   2   8    2.97    4.12
   0  -2   8    0.73    4.69
   0  -2  -8   -6.16    2.96
   0  -2  -8    6.71    4.84
   0   2   8    3.92    5.17
   0   2  -8   -1.83    3.98
   0   2  -8    4.08    4.92
   0  -4  -8  251.52   27.01
   0  -4  -8  307.54   36.13
   0   4  -8  274.70   31.69
   0   4   8  217.10   29.45
   0   4   8  294.65   31.60
   0  -4   8  259.34   33.15
   0   4  -8  284.39   31.75
   0   6  -8   -7.24    4.94
   0   6   8   13.99    7.51
   0   6   8   -1.37    5.09
   0   6  -8   11.90    7.27
   0  -6   8    0.30    6.54
   0  -6  -8    4.62    8.07
   0  -8  -8  190.97   33.59
   0   8   8  207.76   28.52
   0   8  -8  163.70   27.22
   0   8   8  227.87   30.73
   0  -8   8  192.40   31.44
   1   1   8   -4.38    3.10
   1  -1  -8   -0.59    3.36
  -1  -1   8   -1.45    4.79
   1   1   8    3.06    4.37
  -1   1  -8    1.39    2.50
   1  -1  -8    1.35    3.88
  -1   1  -8   -1.25    4.66
   1  -1   8    4.62    4.98
  -1   1   8   -2.74    3.27
   1   1  -8    5.13    4.30
  -1  -1  -8   -2.09    3.54
   1   1  -8    5.33    5.57
   1   1  -8    0.04    1.65
   1  -1   8   -1.37    3.63
  -1   1   8   -2.78    3.80
  -1  -1  -8    0.97    3.16
  -1   3  -8   36.40    9.47
   1  -3  -8   28.10    9.13
   1   3   8   46.12   10.39
   1  -3  -8   33.61    8.24
  -1  -3   8   44.75   11.31
  -1   3  -8   30.05    8.70
   1   3   8   25.28    7.26
  -1  -3  -8   16.11    7.40
  -1   3   8   14.83    6.70
   1  -3   8   17.44    7.92
  -1  -3  -8   41.48    8.66
   1   3  -8   27.85    8.23
   1   3  -8   28.01    7.45
  -1   3   8   31.96    8.11
  -1  -5   8    4.64    6.13
   1   5   8    0.37    5.71
  -1   5  -8   18.35    7.49
  -1   5  -8   14.45    6.96
   1  -5  -8   26.32   10.90
   1   5   8   14.40    6.98
   1   5  -8    0.30    4.91
  -1  -5  -8    1.83    6.35
  -1   5   8   11.32    7.30
   1  -5   8   12.06    7.93
   1   5  -8   15.96    7.17
  -1   5   8    5.02    6.43
  -1   7  -8    0.17    6.61
   1  -7  -8    4.64    8.54
   1   7   8    3.75    7.15
   1   7   8    7.03    7.19
  -1  -7   8    1.99    7.45
   1  -7   8    5.11    7.57
   1   7  -8   -1.23    6.08
  -1  -7  -8   -5.52    7.24
  -1   7   8   -1.30    6.99
  -1   7   8   -2.11    5.98
  -2   0  -8  139.86   16.29
   2   0   8  135.45   16.98
   2   0  -8  123.22   17.80
   2   0  -8  137.26   15.79
  -2   0   8  140.10   18.15
  -2   0   8  108.09   18.16
  -2   0  -8  107.23   17.16
   2   0   8  124.58   18.79
   2   2   8   37.14    7.79
  -2  -2   8   45.81   11.38
  -2   2  -8   44.06   10.31
   2  -2  -8   30.24    8.59
   2   2   8   42.40   10.43
   2  -2  -8   13.01    6.10
  -2   2  -8   31.85    5.25
  -2   2  -8   26.56    8.33
  -2   2   8   31.30    8.48
  -2   2   8   42.16    8.94
  -2  -2  -8   16.87    6.60
  -2  -2  -8   34.29    8.49
   2   2  -8   32.57    7.84
   2   2  -8   31.02    8.72
   2  -2   8   34.10    9.17
  -2   4  -8  157.51   21.79
   2   4   8  159.66   20.16
  -2  -4   8  156.64   24.89
  -2   4  -8  178.89   21.71
   2   4   8  161.53   22.43
   2  -4  -8  130.53   18.74
   2  -4  -8  161.20   24.02
   2   4  -8  163.56   21.63
  -2  -4  -8  152.04   18.79
  -2   4   8  140.14   19.73
   2   4  -8  120.09   19.65
  -2   4   8  137.22   21.84
  -2  -4  -8  155.28   23.11
   2  -4   8  130.46   21.53
  -2  -6   8   18.38    9.66
  -2   6  -8    6.94    6.94
   2   6   8   14.65    7.66
   2  -6  -8    1.98    7.78
  -2   6  -8    9.46    7.49
   2   6   8    5.41    7.59
  -2  -6  -8   23.17   11.17
   2   6  -8    5.30    6.67
  -2   6   8   20.23    8.63
   2  -6   8    5.18    7.11
   2   6  -8    4.93    6.26
  -2   6   8   11.51    6.81
  -2   8  -8   39.69   11.91
   2  -8  -8   35.51   15.39
   2   8   8   40.05   14.04
  -2  -8   8   52.25   16.43
   2   8   8   46.66   13.04
   2  -8   8   55.02   16.14
  -2   8   8   30.84   11.32
   2   8  -8   29.19   12.06
  -2  -8  -8   43.40   16.57
  -2   8   8   63.27   15.56
   3   1   8    6.76    6.58
  -3  -1   8   19.95    7.15
  -3   1  -8   28.84    6.53
   3  -1  -8   23.58    7.26
  -3   1  -8   32.11    9.12
   3   1   8   19.79    5.26
   3  -1  -8   24.46    6.39
   3  -1   8   15.35    6.22
   3   1  -8   22.56    4.79
   3  -1   8   22.12    8.03
   3   1  -8   22.06    6.28
   3   1  -8    5.36    6.22
  -3  -1  -8   11.11    6.36
  -3   1   8   11.70    6.52
  -3  -1  -8   10.76    5.79
  -3   1   8   16.23    6.15
  -3   3  -8    5.52    5.39
   3   3   8   16.39    5.10
   3  -3  -8   17.35    7.36
   3  -3  -8   14.18    6.01
  -3  -3   8    7.71    6.89
  -3   3  -8   14.51    7.27
   3   3   8    1.89    5.73
   3   3  -8    7.98    5.66
   3   3  -8   16.16    7.13
   3  -3   8   18.14    7.13
  -3  -3  -8    8.60    5.09
  -3  -3  -8   21.81    8.14
  -3   3   8   14.53    7.37
  -3   3   8   14.12    5.86
   3   5   8   27.50    7.75
  -3  -5   8   12.23    8.33
  -3   5  -8   17.98    8.95
   3  -5  -8   24.32   10.50
  -3   5  -8   32.94    9.94
   3   5   8   30.85   10.70
  -3  -5  -8   36.94   11.64
  -3   5   8   18.87    8.59
   3   5  -8   26.51    9.45
   3   5  -8   25.68    8.75
   3  -5   8   20.58    9.16
  -3   5   8   10.56    6.04
  -3   7  -8   12.70    9.19
  -3  -7   8    3.99    8.01
   3   7   8    1.83    7.16
   3  -7  -8   11.80    9.53
   3   7  -8    8.57    8.79
  -3   7   8   26.19   10.68
  -3  -7  -8   13.94   10.66
   3  -7   8    6.95    8.47
   4   0  -8    1.78    4.10
   4   0   8    6.11    3.93
  -4   0   8    1.27    5.21
  -4   0  -8    3.11    4.35
  -4   0  -8    9.18    5.63
   4   0   8   -7.32    4.12
  -4   0   8    2.86    4.16
   4   0  -8    3.38    3.81
   4   2   8  178.23   17.94
  -4   2  -8  164.18   23.20
   4  -2  -8  170.93   22.20
  -4   2  -8  170.80   23.52
  -4  -2   8  187.47   25.79
   4   2   8  216.25   26.61
  -4   2  -8  193.33   20.87
   4  -2  -8  183.79   23.19
  -4   2   8  203.83   21.21
   4  -2   8  208.60   22.74
  -4  -2  -8  158.22   22.12
  -4  -2  -8  196.29   24.98
  -4   2   8  174.14   24.79
   4   2  -8  146.57   22.45
   4   2  -8  188.32   21.66
   4  -4  -8    1.28    5.89
  -4  -4   8   -1.43    6.18
   4  -4  -8    7.32    4.91
  -4   4  -8   17.56    7.52
   4   4   8   -1.32    5.56
  -4   4  -8    2.54    5.70
   4  -4   8   18.29    7.63
  -4   4   8    5.91    4.94
  -4  -4  -8   13.28    5.77
  -4  -4  -8    2.00    6.43
   4   4  -8    6.45    5.60
   4   4  -8    7.62    6.15
  -4   4   8   10.33    6.57
  -4   6  -8  152.99   21.86
   4  -6  -8  137.24   24.28
   4   6   8  184.89   26.76
  -4   6  -8  142.66   22.09
  -4  -6   8   93.57   21.34
  -4   6   8  137.57   23.17
   4   6  -8  124.59   20.92
   4  -6   8  145.88   23.25
  -4  -6  -8  105.44   22.69
   4   6  -8  146.79   21.71
   5   1   8   42.03   11.50
  -5  -1   8   50.35   12.78
  -5   1  -8   97.92   13.24
   5  -1  -8   64.10   11.42
  -5   1  -8   59.63   13.65
  -5  -1   8   74.41   10.31
   5  -1  -8   47.72   11.30
   5  -1   8   70.27   10.51
  -5  -1  -8   62.10   12.57
   5   1  -8   71.47   10.54
  -5   1   8   69.73   10.43
   5  -1   8   83.05   15.77
  -5  -1  -8   57.78   11.63
  -5   1   8   65.22   14.52
   5   1  -8   63.21   12.65
  -5   3  -8   90.35   15.92
  -5  -3   8  122.67   20.67
   5  -3  -8   96.55   15.21
  -5   3  -8   79.22   15.15
   5   3   8   99.78   17.21
   5  -3  -8   68.51   14.33
  -5   3  -8   93.28   13.36
   5  -3   8   74.01   13.97
  -5   3   8   64.07   15.18
  -5  -3  -8   87.91   14.21
   5   3  -8  109.39   16.87
   5   3  -8   81.49   13.27
  -5  -3  -8   89.28   16.49
  -5   5  -8   35.24   11.41
  -5   5  -8   52.89   12.72
   5  -5  -8   46.02   14.19
   5   5   8   48.47   12.92
  -5  -5   8   63.62   15.86
   5  -5   8   38.03   12.30
   5   5  -8   55.29   12.04
  -5   5   8   33.36   11.63
   5   5  -8   49.51   12.59
  -5  -5  -8   56.48   15.28
   5  -7  -8   26.41   13.48
  -5  -7   8   21.58   11.78
  -5   7  -8   36.46   11.53
   5   7   8   13.13    9.50
   5  -7   8   39.12   14.00
   5   7  -8   21.28   10.53
  -5   7   8   28.63   12.38
  -5  -7  -8   23.48   12.35
   6   0  -8   63.95   12.77
  -6   0  -8   58.53   12.29
  -6   0   8   69.08   10.44
   6   0   8  105.89   17.09
  -6   0  -8   65.09   13.11
  -6   0   8   46.47   12.67
  -6   0   8   62.63   10.90
  -6   2  -8  171.49   23.25
   6  -2  -8  162.93   22.32
  -6  -2   8  140.58   23.08
  -6   2  -8  179.01   21.08
   6   2   8  149.82   22.82
   6  -2  -8  157.76   21.91
   6   2  -8  164.73   19.67
   6  -2   8  170.52   19.73
  -6   2   8  136.93   22.88
  -6  -2  -8  172.19   24.15
   6   2  -8  151.20   22.14
   6  -2   8  155.39   24.56
  -6  -2  -8  130.26   20.06
  -6   4  -8   -0.49    5.06
  -6  -4   8   -1.98    6.53
   6  -4  -8    9.17    7.31
   6  -4  -8   18.13    7.16
   6   4   8    5.72    7.57
  -6   4  -8    3.59    5.66
   6   4  -8   18.04    8.59
   6   4  -8   12.14    6.37
  -6  -4  -8    6.84    7.75
  -6   4   8    0.06    5.95
  -6  -4  -8    9.89    5.93
   6  -4   8   -2.35    5.12
   6  -6  -8   61.35   17.96
  -6  -6   8   78.60   19.15
  -6   6  -8   69.39   15.08
  -6   6  -8   68.82   15.75
   6   6   8   75.92   17.29
   6  -6   8   71.41   17.19
   6   6  -8   83.78   17.40
  -6   6   8  113.13   20.93
   6   6  -8   72.19   15.87
  -6  -6  -8   88.61   19.34
  -7  -1   8  116.87   19.86
  -7   1  -8  114.90   18.45
  -7   1  -8   88.29   15.92
   7  -1  -8   81.02   15.96
   7   1   8   90.25   17.10
  -7  -1   8   92.41   13.99
  -7  -1  -8  109.66   17.17
   7  -1   8  109.91   19.17
   7   1  -8   97.64   16.92
   7   1  -8   89.76   12.71
  -7   1   8  127.82   17.42
  -7  -1  -8   77.75   15.79
  -7   1   8  121.78   21.48
  -7   3  -8   19.85    7.40
   7   3   8   23.72   10.50
   7  -3  -8   11.59    6.52
  -7  -3   8   17.05   10.02
  -7   3  -8   37.73   10.81
   7  -3  -8   25.56   10.13
  -7  -3  -8   27.44    8.96
  -7  -3  -8   24.83   10.02
   7   3  -8   14.49    6.55
  -7   3   8   25.45   10.16
   7  -3   8   36.34   11.82
   7  -3   8   23.77    7.96
   7   3  -8    0.31    6.76
   7  -5  -8   21.69   10.59
  -7   5  -8   31.09   11.54
  -7  -5   8   14.49   11.00
  -7   5  -8   22.96    9.22
   7   5   8   45.06   13.11
   7   5  -8   27.91   10.87
  -7   5   8   21.46   11.30
   7   5  -8   29.17    9.83
   7  -5   8   41.49   12.45
  -7  -5  -8   30.63   12.05
  -7  -7   8   67.94   18.92
   7   7   8   37.53   13.56
  -7   7  -8   34.75   12.87
   7  -7  -8   44.56   17.66
  -7   7   8   16.34   10.75
  -7  -7  -8   13.16   10.34
   7   7  -8   41.26   12.99
   7  -7   8   26.59   12.61
   8   0  -8    4.90    6.54
  -8   0   8    8.15    6.52
   8   0   8   12.56    8.72
  -8   0  -8   10.55    7.24
  -8   0   8   16.70    6.43
  -8   0  -8   16.33    6.94
  -8   2  -8    7.42    5.93
   8  -2  -8   16.33    7.58
  -8   2  -8   -1.99    4.48
  -8  -2   8   12.97    8.25
   8   2   8    0.43    6.23
  -8  -2  -8    3.78    6.64
  -8  -2  -8    1.93    5.07
   8   2  -8    9.52    6.70
  -8   2   8   14.46    7.46
   8  -2   8    4.45    6.94
  -8   2   8   -3.98    6.20
  -8  -4   8   -0.60    6.86
   8  -4  -8   -1.02    5.66
   8  -4  -8    1.09    7.64
  -8   4  -8   -6.31    6.02
   8   4   8    2.87    6.58
  -8   4  -8    7.32    6.70
   8   4  -8   -9.25    5.75
   8   4  -8   -5.47    4.56
  -8  -4  -8    2.22    6.33
  -8  -4  -8    0.06    5.57
   8  -4   8    9.22    8.45
  -8   4   8    6.10    7.27
  -8  -6   8   17.77   12.34
   8   6   8    1.93    8.29
  -8   6  -8    6.30    7.22
   8  -6  -8   -2.48    8.10
  -8   6  -8   20.89   10.18
   8  -6   8    4.26    8.19
  -8  -6  -8   32.34   12.90
   8   6  -8    5.54    7.04
   8   6  -8   16.41    9.78
  -8   6   8   23.37   11.18
  -9   1  -8   52.55   13.31
   9  -1  -8   42.08   12.77
  -9   1  -8   61.82   13.92
  -9  -1   8   51.55   14.90
   9   1   8   65.80   14.95
  -9  -1   8   67.24   12.66
  -9   1   8   67.56   14.99
  -9  -1  -8   64.70   13.42
   9  -1   8   70.65   15.46
   9   1  -8   87.47   16.80
  -9  -1  -8   71.60   15.34
  -9   1   8   67.06   14.04
  -9   3  -8   91.50   17.06
   9   3   8   76.62   16.79
   9  -3  -8   75.56   17.42
  -9   3  -8   74.24   15.29
   9  -3  -8   59.48   15.03
  -9  -3   8   70.42   16.87
  -9   3   8   85.47   19.04
   9  -3   8   94.08   19.10
  -9  -3  -8  110.23   17.58
   9   3  -8   94.51   18.26
  -9  -3  -8   79.50   17.81
   9  -5  -8   78.66   18.26
  -9  -5   8   26.63   12.65
  -9   5  -8   51.18   14.01
  -9   5  -8   75.57   16.26
   9   5   8   24.71   11.80
  -9  -5  -8   53.08   16.47
   9   5  -8   59.05   14.57
  -9   5   8   65.57   17.45
   9   5  -8   23.82   10.36
 -10   0  -8   -0.05    5.86
  10   0   8   26.31   10.40
 -10   0   8   10.85    9.98
 -10   0   8    2.05    5.46
 -10   0  -8   -1.88    4.05
  10   0  -8   19.73   11.34
 -10   2  -8   55.74   14.08
 -10  -2   8   65.31   16.72
  10  -2  -8   75.39   16.63
 -10   2  -8   85.70   16.79
  10   2   8   72.52   15.27
 -10   2   8   70.22   15.99
  10  -2   8   17.74    9.75
 -10   2   8   84.68   19.17
 -10  -2  -8   66.71   14.51
 -10  -2  -8   60.88   14.66
  10   2  -8   72.24   17.50
  10  -4  -8    7.23    7.45
  10  -4  -8   17.91   10.63
  10   4   8   -3.38    7.66
 -10   4  -8    3.20    7.38
 -10  -4   8   11.36    9.00
 -10   4  -8   20.50    9.69
 -10  -4  -8   -2.00    7.50
  10   4  -8   -3.14    6.45
  10  -4   8   25.18   10.77
 -10   4   8   27.78   12.35
 -10  -4  -8   13.97    7.48
 -11   1  -8   29.61   11.10
 -11  -1   8   16.92    8.97
  11  -1  -8   25.17   10.46
  11   1   8   30.08   11.28
 -11   1  -8   33.95   11.81
 -11  -1   8   36.33   10.35
 -11   1   8   -0.82    5.77
  11  -1   8   20.08    9.97
  11   1  -8   22.20   10.12
 -11  -1  -8   33.31    9.97
 -11  -1  -8   22.67   10.77
 -11   1   8   26.80   10.30
 -11   3  -8   28.87   11.24
  11  -3  -8   26.95   11.07
  11   3   8   11.07    9.57
 -11  -3   8   54.27   17.12
 -11   3  -8   18.31    9.33
 -11   3   8   18.29    9.72
 -11   3   8   30.39   13.01
 -11  -3  -8   40.71   14.34
 -11  -3  -8   21.81   10.88
  11  -3   8   32.91   11.79
  11   3  -8   34.71   12.37
  11  -5  -8   10.97   10.77
  11   5   8   20.89   12.30
 -11  -5   8   18.84   11.53
 -11   5  -8   19.50   11.31
  11   5  -8   26.70   11.96
  11  -5   8   27.59   12.32
 -11   5   8   40.79   14.75
 -11  -5  -8   29.22   14.20
  12   0   8   -0.72    7.32
 -12   0  -8    1.35    7.06
 -12   0   8   23.75   11.14
 -12   0   8   -1.31    6.07
  12   0  -8    5.53    6.81
 -12   0  -8    5.40    6.49
  12  -2  -8   63.13   17.07
 -12  -2   8   61.62   17.21
 -12   2  -8   86.31   18.76
 -12   2  -8   89.79   18.53
  12   2   8   74.10   18.08
 -12  -2  -8   68.62   16.55
  12  -2   8   81.77   17.68
 -12  -2  -8   63.86   18.02
  12   2  -8   99.99   21.74
 -12   2   8   82.57   18.67
 -12   2   8  109.18   22.01
  12   4   8   -1.77    7.48
  12  -4  -8    8.34    9.25
  12   4   8    2.12    7.86
 -12   4  -8    1.28    7.83
 -12  -4   8    8.24   10.66
  12  -4  -8    3.99    9.33
 -12   4  -8   -9.28    6.67
  12  -4   8   -4.61    8.06
 -12   4   8   -0.16    8.44
 -12  -4  -8   -1.21    8.05
  12   4  -8   -1.40    7.12
 -13   1  -8   11.35    9.03
 -13   1  -8   18.99   11.16
 -13  -1   8    8.17    7.56
 -13  -1   8   10.80    9.95
  13  -1  -8   13.85   10.23
  13   1   8    3.32    7.45
  13  -1   8    7.39    9.32
 -13  -1  -8   10.44   10.19
  13   1  -8   12.04    9.24
 -13   1   8   21.50   10.48
 -13  -1  -8   12.75    9.49
 -13   1   8    4.52    8.88
   0   0  -9   -2.07    3.40
   0   0   9   -1.16    4.62
   0   0  -9    1.02    2.70
   0   0   9   -3.13    4.51
   0   2  -9   -1.15    4.53
   0  -2  -9   -1.44    4.13
   0   2   9   -0.14    4.87
   0   2   9   -4.19    3.34
   0  -2   9   -3.64    5.01
   0  -2  -9   -3.17    3.96
   0   2  -9   -3.64    3.74
   0   4   9    3.22    5.84
   0   4  -9    9.48    7.32
   0   4  -9   14.17    7.31
   0  -4  -9   28.36    8.03
   0   4   9    6.37    6.82
   0  -4  -9   18.83    9.78
   0  -4   9   21.05    9.49
   0  -6  -9   13.47   10.01
   0   6  -9   46.71   12.09
   0   6   9   29.56   10.24
   0  -6   9   35.31   11.97
   0   6   9   53.88   12.97
   0   6  -9   28.37   10.24
  -1   1  -9  186.68   23.56
   1   1   9  207.20   24.26
  -1   1  -9  142.18   15.00
   1  -1  -9  131.58   18.31
   1  -1  -9  168.53   21.73
  -1  -1   9  158.61   21.71
   1   1   9  185.47   20.89
  -1   1   9  163.77   21.03
  -1  -1  -9   97.96   18.17
   1  -1   9  192.23   24.34
   1   1  -9  143.09   21.36
  -1   1   9  130.31   19.58
  -1  -1  -9  122.18   17.70
   1  -1   9  137.12   20.15
   1   1  -9  163.60   20.42
  -1  -3   9  124.52   22.36
   1   3   9  156.89   21.95
   1  -3  -9  192.62   24.92
  -1   3  -9  166.54   23.16
   1  -3  -9  174.70   21.90
   1   3   9  156.38   21.07
  -1   3  -9  130.57   20.58
  -1  -3  -9  173.97   22.40
   1   3  -9  188.31   24.15
  -1   3   9  180.54   22.14
   1   3  -9  159.73   21.55
  -1  -3  -9  178.19   24.10
  -1   3   9  145.20   21.80
   1  -3   9  128.10   22.92
  -1  -5   9   98.95   18.63
  -1   5  -9   72.48   15.25
   1   5   9   80.34   15.22
  -1   5  -9   93.63   16.96
   1   5   9   65.83   14.38
   1  -5  -9   97.24   19.27
   1   5  -9   67.47   15.11
   1  -5   9  113.19   19.46
  -1  -5  -9   98.99   18.80
  -1   5   9  132.74   19.65
  -1   5   9   82.47   15.50
   1   5  -9   85.22   15.83
  -1  -7   9   38.69   13.50
  -1   7  -9   24.42   11.47
   1   7   9   46.05   12.75
   1   7   9   46.94   13.49
   1  -7  -9   24.23   12.07
   1  -7   9   39.96   13.17
  -1   7   9   31.53   12.41
   1   7  -9   69.76   15.36
  -1  -7  -9   43.64   15.41
  -1   7   9   41.47   12.64
  -2   0  -9    2.20    4.49
  -2   0   9    2.65    5.00
   2   0   9    0.80    5.12
   2   0  -9    5.19    4.61
  -2   0   9   -2.37    4.46
   2   0  -9   -1.98    2.46
  -2   0  -9   -4.32    2.81
   2   0   9    1.58    3.92
   2   2   9    9.27    7.04
  -2  -2   9   14.68    7.52
   2  -2  -9    5.68    5.04
   2  -2  -9    1.96    5.31
  -2   2  -9   10.38    6.63
   2   2   9    7.66    4.79
  -2   2  -9    1.88    5.19
  -2  -2  -9    4.34    5.18
   2   2  -9   15.34    6.58
  -2  -2  -9    4.16    4.72
  -2   2   9    4.03    5.02
  -2   2   9    0.13    4.66
   2   2  -9    6.57    5.18
   2  -2   9   -1.38    4.46
   2  -4  -9   22.15    7.30
  -2   4  -9    3.52    5.66
   2   4   9   17.88    8.88
   2  -4  -9   12.34    7.95
   2   4   9    2.50    5.18
  -2   4  -9    2.02    5.53
  -2  -4   9    6.20    7.48
  -2   4   9   19.73    8.66
   2   4  -9   21.28    8.88
   2   4  -9    3.82    5.65
  -2   4   9   13.79    7.07
  -2  -4  -9   -1.88    3.75
   2  -4   9    7.32    6.54
  -2  -4  -9   14.41    8.67
  -2   6  -9   12.76    7.82
   2  -6  -9   19.80   11.47
  -2   6  -9   32.05   10.17
  -2  -6   9   18.64   10.80
   2   6   9   23.34    8.92
   2   6   9   10.45    8.57
   2  -6   9   13.57    9.04
  -2   6   9   25.04   10.71
   2   6  -9   18.22    9.02
   2   6  -9   14.32    8.27
  -2  -6  -9   17.16    9.77
  -2   6   9    7.00    7.33
  -3  -1   9    4.86    5.83
   3  -1  -9    1.51    3.89
   3  -1  -9   -0.91    3.92
   3   1   9    7.64    6.71
  -3   1  -9    8.79    5.68
  -3   1  -9    0.99    3.67
   3   1   9    1.50    3.54
   3   1  -9   -1.80    4.30
  -3  -1  -9   -1.81    3.92
   3   1  -9    1.21    3.92
   3  -1   9   -4.78    4.04
  -3  -1  -9   -3.26    3.55
  -3   1   9   -3.99    4.40
  -3   1   9    1.32    4.45
   3  -1   9    1.34    5.41
   3   3   9    7.58    4.59
   3  -3  -9    1.20    6.21
  -3   3  -9   16.54    8.14
  -3  -3   9    4.23    6.10
  -3   3  -9   12.99    7.05
   3  -3  -9    8.23    5.49
   3   3   9   23.00    8.52
  -3   3   9   14.21    6.37
   3  -3   9   -0.59    4.76
  -3  -3  -9    1.02    5.36
   3   3  -9    8.27    6.72
  -3  -3  -9    8.92    6.24
  -3   3   9    7.60    7.05
   3   3  -9   15.21    6.35
  -3   5  -9   11.46    7.57
   3   5   9    7.16    7.09
  -3  -5   9    5.68    8.28
   3  -5  -9   16.34    8.52
  -3   5  -9   13.51    8.07
  -3   5   9   12.13    8.30
  -3  -5  -9   12.18    9.27
   3  -5   9    7.59    7.49
   3   5  -9   34.90   10.96
  -3   5   9   11.53    6.58
   3   5  -9   -4.06    5.03
  -3  -7   9    3.82    8.22
   3   7   9    5.27    8.97
  -3   7  -9   18.38    9.28
   3  -7  -9   15.22   10.73
  -3   7   9    1.55    7.24
   3   7  -9    0.48    7.34
  -3  -7  -9    6.39   11.38
   3  -7   9   13.03    9.68
  -4   0  -9    6.09    4.70
  -4   0   9   11.97    6.48
  -4   0   9    1.30    4.41
  -4   0  -9   -6.55    3.41
   4   0   9    0.93    5.26
   4   0  -9   -1.67    3.10
   4   0  -9   -2.79    3.46
   4   0   9   -1.69    3.19
  -4   2  -9   29.01    8.78
   4  -2  -9   13.82    7.07
  -4  -2   9    2.22    6.22
   4   2   9    1.93    6.87
   4  -2  -9   12.75    6.45
  -4   2  -9   19.50    5.31
  -4   2   9    6.59    5.09
   4  -2   9    1.74    6.05
   4  -2   9   22.13    7.29
   4   2  -9   -0.79    4.28
   4   2  -9   17.57    7.45
  -4  -2  -9    6.36    5.87
  -4   2   9    5.79    5.87
  -4  -2  -9   13.60    6.14
   4  -4  -9    0.14    6.26
  -4   4  -9   10.26    7.68
   4   4   9   15.23    8.31
  -4   4  -9   -5.93    5.40
  -4  -4   9   10.94    8.24
   4  -4  -9    4.15    5.18
   4   4  -9    3.04    6.07
   4  -4   9   16.85    8.14
  -4   4   9   -1.74    5.69
   4   4  -9    5.94    5.42
  -4  -4  -9    4.64    6.44
  -4  -4  -9    2.70    4.61
  -4   4   9    0.67    5.32
  -4   6  -9    1.55    6.67
   4   6   9    0.48    7.40
  -4  -6   9    0.92    9.05
  -4   6  -9    0.87    6.40
   4  -6  -9   11.40    9.09
  -4  -6  -9   -2.64    7.22
   4  -6   9    5.67    7.83
   4   6  -9   -2.62    6.47
   4   6  -9   11.32    7.59
  -4   6   9   -3.86    7.64
  -5  -1   9   61.63   15.70
   5   1   9  125.18   19.80
   5  -1  -9   99.66   17.20
  -5   1  -9  105.27   18.14
   5  -1  -9  100.72   16.00
  -5   1  -9  130.41   16.83
  -5  -1  -9   97.58   17.28
  -5   1   9  104.25   14.88
   5  -1   9  109.57   14.96
   5  -1   9  149.81   22.22
   5   1  -9   97.85   16.97
  -5  -1  -9  121.08   17.66
   5   1  -9  114.66   15.13
  -5   1   9  102.92   19.89
   5  -3  -9   66.69   14.80
  -5   3  -9   84.95   15.76
  -5   3  -9   88.31   16.22
   5   3   9   82.94   16.54
   5  -3  -9   78.42   14.29
  -5  -3   9   71.92   16.39
  -5  -3  -9   82.33   14.28
   5   3  -9   54.03   11.66
   5   3  -9   76.66   15.21
   5  -3   9   76.78   13.88
  -5  -3  -9   47.78   13.49
  -5   3   9   92.64   17.11
  -5  -5   9   35.11   14.10
  -5   5  -9   83.41   15.78
   5   5   9   53.15   14.34
  -5   5  -9   17.95    8.45
   5  -5  -9   43.79   13.94
   5   5  -9   37.37   10.63
   5  -5   9   23.79   10.07
  -5   5   9   42.48   13.43
  -5  -5  -9   31.73   11.77
   5   5  -9   21.79    9.66
   5  -7  -9   32.41   16.14
   5   7   9   12.99    9.55
  -5   7  -9    7.75    8.83
  -5  -7   9   39.99   15.07
  -5  -7  -9   48.08   16.21
   5   7  -9   28.57   10.99
   5  -7   9   16.83   11.54
  -5   7   9    1.37    8.55
  -6   0  -9    3.63    4.93
  -6   0  -9   -2.84    5.17
  -6   0   9   -5.00    5.21
   6   0  -9    5.60    5.63
   6   0   9    7.84    7.39
  -6   0   9   -5.55    3.64
   6   0  -9    3.86    4.73
   6  -2  -9    2.03    4.85
   6   2   9   -2.09    6.21
  -6   2  -9   -4.83    3.78
  -6   2  -9    1.58    5.26
   6  -2  -9    1.83    6.14
  -6  -2   9    7.23    6.86
  -6  -2  -9   -8.18    3.27
   6   2  -9    4.13    4.14
   6  -2   9   21.34    9.45
  -6   2   9    5.01    6.06
   6   2  -9   -5.57    4.11
  -6  -2  -9   -4.19    4.43
   6   4   9   11.39    8.27
  -6   4  -9    5.60    6.99
   6  -4  -9   17.75    9.00
  -6   4  -9   10.83    8.61
  -6  -4   9    3.61    7.98
   6  -4  -9   10.60    6.07
  -6  -4  -9    9.54    8.44
  -6  -4  -9    9.35    6.07
   6   4  -9   22.81    9.53
   6  -4   9    9.83    7.27
   6   4  -9    6.95    6.26
  -6   4   9   14.28   10.06
   6  -6  -9   23.71   11.91
  -6   6  -9   40.10   12.51
   6   6   9   11.04   10.40
  -6   6  -9    5.83    8.40
  -6  -6   9   16.42   11.65
   6   6  -9   14.93    9.95
  -6   6   9    2.51    7.23
   6  -6   9   -0.06    6.73
  -6  -6  -9   22.59   10.67
   6   6  -9   19.60    9.14
   7   1   9  127.82   22.81
   7  -1  -9  133.34   20.83
  -7   1  -9  164.71   23.40
   7  -1  -9  130.42   19.17
  -7  -1   9  137.15   22.15
  -7   1  -9  192.85   22.93
   7   1  -9  112.58   19.70
  -7  -1  -9  118.79   19.50
  -7   1   9  102.12   21.35
  -7  -1  -9  114.23   19.55
   7  -1   9  122.95   21.37
  -7   3  -9  173.75   24.86
   7  -3  -9  115.21   21.17
   7   3   9  163.51   24.82
  -7  -3   9  100.17   22.38
   7  -3  -9  177.66   23.67
  -7  -3  -9  140.99   23.99
   7  -3   9  146.17   24.32
  -7   3   9  207.14   28.90
  -7  -3  -9  154.48   22.02
   7   3  -9  183.40   25.30
   7   3  -9  155.50   20.13
  -7  -5   9  140.80   25.29
   7  -5  -9   92.43   20.36
  -7   5  -9  104.25   20.71
   7   5   9   83.44   19.34
  -7   5  -9  107.89   19.30
   7   5  -9  118.53   19.34
  -7   5   9   92.57   20.43
  -7  -5  -9  122.13   22.47
   7   5  -9  100.49   19.62
   7  -5   9  136.56   21.16
  -8   0  -9    1.49    6.29
  -8   0   9    0.79    5.93
  -8   0  -9    5.98    6.24
   8   0   9   -1.12    6.36
  -8   0   9    4.20    5.40
   8   0  -9   -5.90    4.91
  -8  -2   9   -4.59    6.93
  -8   2  -9   -0.24    5.15
   8  -2  -9    0.37    5.65
   8  -2  -9    5.95    5.79
   8   2   9   -5.29    5.53
  -8   2  -9    0.88    5.12
  -8   2   9    6.86    7.08
  -8  -2  -9    1.59    4.91
   8  -2   9    7.09    8.02
   8   2  -9    4.01    5.98
  -8  -2  -9   -4.26    5.46
   8   4   9   20.03    9.73
   8  -4  -9   15.76    7.98
   8  -4  -9   -8.83    5.12
  -8   4  -9   12.54    8.55
  -8  -4   9   11.79    9.37
   8   4  -9    1.15    6.97
   8  -4   9    4.36    7.65
   8   4  -9    3.62    5.12
  -8  -4  -9    2.26    6.17
  -8   4   9   -2.54    6.55
  -8  -4  -9    7.81    8.59
  -8  -6   9    8.72   10.89
  -8   6  -9   16.95   10.79
   8   6   9   29.73   12.63
  -8   6  -9    9.68    8.92
   8  -6  -9   17.55   11.54
   8   6  -9   25.49   12.30
  -8   6   9   28.05   12.25
   8   6  -9    5.88    7.55
  -8  -6  -9   27.76   13.14
  -9   1  -9   -4.18    5.46
   9   1   9    8.10    8.18
  -9  -1   9    3.13    7.93
   9  -1  -9    0.52    5.88
  -9   1  -9   -3.41    5.88
  -9   1   9    3.22    5.78
  -9  -1  -9    2.92    7.11
  -9   1   9   -1.22    6.85
  -9  -1  -9    6.83    6.69
   9  -1   9   13.60    8.83
   9   1  -9   -1.37    6.04
  -9   3  -9    4.47    6.79
  -9   3  -9    4.05    6.93
   9  -3  -9    6.38    7.49
  -9  -3   9    6.82    8.48
   9   3   9   -8.90    6.05
   9  -3  -9    0.52    6.11
  -9   3   9   -4.86    6.57
  -9  -3  -9    3.03    6.07
  -9  -3  -9    3.88    7.54
   9  -3   9   19.87    9.87
   9   3  -9   10.09    8.43
   9  -5  -9   15.94   11.05
  -9  -5   9    5.27    9.62
   9   5   9    8.90    9.36
  -9   5  -9   -2.65    6.74
   9   5  -9    1.54    9.49
  -9   5   9   11.15    9.57
   9  -5   9    5.77    9.06
  -9  -5  -9   -0.43    6.93
   9   5  -9   -3.73    6.90
 -10   0   9    1.44    6.96
  10   0  -9    5.44    7.61
 -10   0   9    3.87    5.76
 -10   0  -9   -4.52    5.16
 -10   0  -9   -3.61    6.25
  10   0   9   -0.23    7.31
  10   2   9    2.68    7.51
  10  -2  -9    4.03    7.42
 -10   2  -9   15.98    9.63
 -10   2  -9    8.39    7.96
 -10  -2   9   12.30    9.45
 -10   2   9   -2.36    5.20
  10   2  -9   10.77    9.61
 -10  -2  -9    7.97    6.70
  10  -2   9    2.07    7.48
 -10  -2  -9    0.27    5.63
 -10   2   9    7.78    9.91
  10  -4  -9   -2.23    5.53
 -10  -4   9   16.92   10.62
  10  -4  -9    9.79    9.32
 -10   4  -9   12.70    8.38
  10   4   9   10.48    9.87
 -10  -4  -9   13.46   10.62
 -10   4   9    6.77    9.06
  10   4  -9   10.24    9.11
  10  -4   9    6.39    7.75
 -10  -4  -9   -5.93    6.98
 -11   1  -9   19.42   10.08
 -11   1  -9    7.74    7.90
  11  -1  -9   22.29   10.82
 -11  -1   9   30.84   12.02
  11   1   9   12.98   10.43
 -11   1   9   23.07   10.18
 -11  -1  -9   41.79   13.49
 -11   1   9   29.53   11.09
  11  -1   9   48.26   13.85
 -11  -1  -9   19.40    9.93
  11   1  -9   20.82   10.72
 -11   3  -9    9.39    9.24
 -11  -3   9    9.28    9.91
 -11   3  -9   11.11    8.52
  11  -3  -9   10.94    8.74
  11   3   9   29.75   12.69
  11  -3  -9   11.32    9.66
 -11   3   9    9.57   10.45
  11   3  -9   11.02    9.62
 -11  -3  -9    7.89    9.43
 -11  -3  -9    7.79    7.14
  11  -3   9   10.86    9.80
  12   0   9   -0.83    7.76
 -12   0  -9   -6.15    6.40
  12   0  -9    6.13    7.22
 -12   0  -9    1.69    6.83
 -12   0   9   -7.56    7.72
 -12   0   9    0.98    6.89
 -12   2  -9   -1.54    7.75
  12   2   9   10.43    9.07
  12  -2  -9    2.42    7.61
 -12  -2   9    6.35    9.31
 -12   2  -9    3.18    7.12
 -12   2   9    1.94    7.61
  12   2  -9   -9.11    5.13
 -12   2   9    5.19    9.92
 -12  -2  -9   -4.30    6.54
  12  -2   9    0.41    8.91
 -12  -2  -9   13.10    9.91
 -13   1  -9  117.82   22.64
  13  -1  -9   78.90   20.57
  13   1   9   89.51   19.44
 -13   1  -9   86.84   20.52
 -13  -1   9   86.74   21.02
 -13  -1  -9  110.34   21.81
 -13   1   9  106.44   22.61
  13  -1   9  127.98   22.89
  13   1  -9   79.54   21.68
 -13   1   9   96.00   21.05
 -13  -1  -9  101.12   22.52
   0   0  10   56.43   13.26
   0   0  10   66.52   12.77
   0   0 -10   42.19   10.95
   0   0 -10   71.72   10.36
   0   2  10   75.24   14.10
   0  -2 -10   76.24   13.90
   0  -2  10  120.93   19.31
   0   2 -10   70.75   13.79
   0  -2 -10   85.29   14.84
   0   2 -10   74.73   14.57
   0   2  10   89.26   15.83
   0  -4  10   37.47   12.47
   0   4  10   65.68   13.65
   0  -4 -10   50.04   11.59
   0   4 -10   69.15   14.38
   0   4  10   62.38   13.45
   0  -4 -10   35.91   12.03
   0   4 -10   50.69   12.23
   0   6 -10   72.97   16.14
   0   6  10   82.66   17.08
   0  -6 -10  106.13   21.60
   0  -6  10   68.98   18.32
   0   6  10   83.20   16.97
   0   6 -10   92.12   18.25
   1  -1 -10    4.20    5.80
  -1  -1  10   -2.17    4.41
   1  -1 -10   -1.35    3.12
   1   1  10    0.86    5.79
  -1   1 -10    2.65    5.61
   1   1  10   -6.67    3.31
  -1  -1  10    9.12    6.46
   1  -1  10    6.40    6.73
   1   1 -10   -0.32    5.45
   1  -1  10    1.71    4.53
  -1   1  10   -3.85    4.55
  -1  -1 -10    3.82    3.70
  -1   1  10   -2.02    4.56
  -1  -1 -10   -3.55    3.62
   1  -3 -10    5.67    6.68
  -1   3 -10   39.77   11.04
   1  -3 -10   21.53    7.71
   1   3  10   20.34    7.29
  -1  -3  10    9.41    7.77
  -1   3 -10   17.10    7.84
   1   3  10    8.00    6.86
  -1  -3 -10   26.91    8.76
  -1   3  10   10.09    6.86
   1   3 -10   13.05    7.55
   1  -3  10   23.01    8.67
  -1   3  10   21.58    8.79
   1   3 -10    1.78    5.70
  -1  -3 -10    4.10    5.92
  -1   5 -10   23.50    9.05
  -1  -5  10   25.71   11.21
  -1   5 -10   21.14    8.91
   1   5  10    9.10    7.91
   1   5  10   15.69    7.55
   1  -5 -10   16.49   10.30
   1   5 -10   13.91    8.05
   1  -5  10   15.34    9.09
  -1  -5 -10    8.94    9.52
  -1   5  10   13.28    8.59
   1   5 -10   10.31    7.89
  -1   5  10   34.19   10.56
   1   7  10    3.02    9.71
   1   7  10   19.26    9.94
   1  -7 -10   11.16   11.86
  -1  -7  10   21.63   12.03
  -1   7 -10    9.55    8.20
  -1  -7 -10   17.76   13.06
  -1   7  10   22.89   11.16
   1   7 -10   12.60    9.17
  -1   7  10   24.74   10.92
   1  -7  10   42.28   14.43
   2   0 -10   16.91    7.35
  -2   0 -10    5.95    6.38
  -2   0 -10   17.49    5.57
  -2   0  10   20.71    8.34
   2   0  10   27.99    7.86
  -2   0  10   21.80    8.15
   2   0  10   32.18   10.36
   2   0 -10   14.25    5.40
   2   2  10  424.88   41.47
   2   2  10  411.81   43.95
   2  -2 -10  431.23   42.97
  -2  -2  10  427.65   44.95
   2  -2 -10  436.14   42.88
  -2   2 -10  431.04   44.03
  -2   2 -10  429.03   43.30
  -2   2  10  420.90   43.27
  -2  -2 -10  465.34   42.88
  -2   2  10  399.02   42.17
   2  -2  10  400.29   42.95
   2   2 -10  420.73   43.37
   2   2 -10  437.22   42.13
  -2  -2 -10  456.91   43.37
   2  -4 -10    2.57    5.01
   2   4  10   -1.30    4.33
   2   4  10   -2.57    5.50
  -2   4 -10    8.66    6.23
  -2  -4  10   -9.10    5.75
  -2   4 -10   -4.09    5.80
   2  -4 -10   -2.36    5.77
  -2   4  10    9.76    6.65
   2  -4  10    1.36    5.87
  -2   4  10    2.58    5.91
   2   4 -10    0.01    6.05
  -2  -4 -10   -8.14    5.09
   2   4 -10   -3.84    4.60
  -2  -4 -10    7.07    5.12
  -2  -6  10  134.48   26.66
   2  -6 -10  170.91   29.06
  -2   6 -10  208.85   27.55
   2   6  10  118.50   23.42
  -2   6 -10  139.10   24.39
   2   6 -10  204.42   26.22
  -2   6  10  183.47   24.79
   2  -6  10  184.20   28.94
  -2   6  10  213.34   29.68
  -2  -6 -10  202.27   31.42
   2   6 -10  192.43   27.09
   3  -1 -10   80.59   13.35
   3   1  10   64.46   14.95
  -3   1 -10   70.00   14.64
   3   1  10   63.02   11.55
  -3  -1  10   73.60   15.38
   3  -1 -10   73.62   14.70
  -3  -1 -10   85.16   14.04
   3  -1  10   89.09   14.04
   3  -1  10   70.68   15.72
  -3   1  10   62.95   14.42
  -3  -1 -10   72.16   14.87
  -3   1  10  118.41   15.72
   3   1 -10   88.61   14.18
   3   1 -10   93.20   16.67
  -3   3 -10   -3.80    5.09
   3  -3 -10    9.21    6.14
  -3  -3  10   -1.93    6.28
   3   3  10   -7.59    5.13
   3  -3 -10   -1.76    5.23
  -3   3 -10    8.32    6.63
  -3   3  10   -3.87    4.94
   3   3 -10   -2.58    4.86
  -3  -3 -10   -2.05    4.96
   3   3 -10   -4.70    3.85
  -3  -3 -10   -5.54    4.22
  -3   3  10    0.49    5.79
   3  -3  10    2.67    6.47
   3  -5 -10   61.46   15.78
  -3  -5  10   58.90   16.91
   3   5  10   39.06   13.23
  -3   5 -10   72.13   16.01
  -3   5 -10   52.44   14.13
  -3  -5 -10   71.36   16.38
   3   5 -10   54.14   13.60
   3  -5  10   77.78   16.53
   3   5 -10   58.47   15.19
  -3   5  10   80.29   16.64
  -3   5  10   85.09   15.26
   3  -7 -10  -12.07    8.07
  -3  -7  10   -3.19    8.34
  -3   7 -10   -3.38    7.42
   3   7  10   -3.49    7.30
   3  -7  10   -2.15    7.85
  -3   7  10   -2.66    7.42
   3   7 -10   -2.07    5.44
  -3  -7 -10   -2.27    8.53
  -4   0  10  507.26   51.80
   4   0 -10  529.49   47.91
   4   0 -10  443.40   49.84
  -4   0 -10  513.89   49.03
   4   0  10  536.70   51.73
  -4   0  10  544.46   49.30
  -4   0 -10  510.58   50.94
   4   2  10   34.48   12.04
  -4   2 -10   71.93   15.34
   4  -2 -10   34.58   10.40
  -4  -2  10   73.41   16.09
   4  -2 -10   55.99   12.08
   4  -2  10   55.12   11.67
  -4  -2 -10   70.71   13.73
   4   2 -10   51.70   12.62
  -4   2  10   57.01   10.83
   4  -2  10   61.38   15.37
  -4   2  10   29.67   11.06
   4   2 -10   48.60   10.61
  -4  -2 -10   52.09   11.60
  -4   4 -10  173.16   25.99
   4   4  10  221.09   28.69
   4  -4 -10  134.21   25.75
  -4   4 -10  228.20   29.53
   4  -4 -10  190.38   24.83
  -4  -4  10  172.68   29.19
  -4  -4 -10  209.29   25.19
   4  -4  10  203.77   27.29
   4   4 -10  219.07   28.30
  -4   4  10  170.88   26.24
   4   4 -10  162.60   24.34
  -4  -4 -10  216.89   28.76
  -4   6 -10   15.28    9.25
  -4   6 -10   31.77   11.34
  -4  -6  10    7.07    9.79
   4   6  10    5.21    9.28
   4  -6 -10   22.87   12.48
   4   6 -10    8.86    7.68
   4  -6  10   30.98   12.50
  -4   6  10   22.97   10.58
   4   6 -10   23.05   10.82
  -4  -6 -10    2.61    8.20
   5  -1 -10    8.96    6.32
  -5   1 -10   17.03    6.55
  -5   1 -10   23.54    9.14
   5  -1 -10    1.74    4.62
   5   1  10   11.67    8.60
  -5  -1  10    9.77    8.29
  -5  -1 -10   26.67    8.87
   5  -1  10   21.89    9.43
   5   1 -10   21.64    6.79
  -5   1  10   22.79   10.48
  -5   1  10   11.24    6.20
  -5  -1 -10   13.88    7.20
   5   1 -10   13.88    7.39
  -5   3 -10   81.71   17.73
  -5  -3  10   53.56   15.42
   5   3  10  112.89   20.03
   5  -3 -10   97.60   17.61
   5  -3 -10  103.23   17.52
  -5   3  10  115.55   20.77
   5   3 -10   94.99   18.35
  -5  -3 -10  126.91   18.23
  -5  -3 -10  113.14   18.68
   5   3 -10   82.53   14.98
   5  -3  10   97.14   16.76
   5  -3  10  111.09   20.64
  -5   5 -10    2.61    7.09
  -5   5 -10    4.41    7.27
  -5  -5  10    2.93    8.61
   5   5  10   22.20   11.19
   5  -5 -10   -1.64    7.67
  -5   5  10   14.15    9.05
  -5  -5 -10   12.50    9.62
   5   5 -10   -4.99    6.72
   5  -5  10   19.70    9.42
   5   5 -10    1.09    6.48
   6   0  10   26.61   10.68
  -6   0 -10   20.53    8.65
  -6   0  10   16.89    8.93
  -6   0 -10   24.49    8.34
   6   0 -10   16.69    8.62
   6  -2 -10   20.28    7.69
  -6   2 -10   10.93    8.38
   6  -2 -10   19.31    8.26
   6   2  10   11.37    8.25
  -6  -2  10    7.61    7.80
   6   2 -10   13.26    8.56
  -6   2  10   12.16    7.87
  -6  -2 -10   22.17    8.24
   6   2 -10   20.35    7.03
  -6  -2 -10   20.47    8.48
   6  -2  10   37.93   11.98
  -6  -4  10    7.14    9.81
   6  -4 -10   17.70    9.66
   6  -4 -10   21.86    8.64
   6   4  10   27.88   11.64
  -6   4 -10   21.72    8.75
  -6   4 -10   52.47   13.78
   6   4 -10   30.34   11.16
   6  -4  10   17.06    9.22
  -6   4  10   19.63   10.00
  -6  -4 -10   27.84   11.49
  -6  -4 -10   37.85    9.76
   6   4 -10   29.61    9.88
  -6  -6  10   -5.63    7.97
  -6   6 -10    6.85    7.35
   6  -6 -10   -5.21    7.08
   6   6  10    2.06    7.93
  -6   6 -10   -2.40    6.54
   6   6 -10   -6.98    4.48
  -6   6  10   -1.85    8.65
  -6  -6 -10   -4.46    7.70
   6   6 -10    7.43    9.10
   6  -6  10    8.43    9.27
   7  -1 -10   96.16   18.53
  -7   1 -10   87.66   18.66
   7   1  10   95.66   19.07
   7  -1 -10  100.44   16.51
  -7  -1  10   90.63   18.50
  -7   1 -10  107.95   17.55
  -7  -1 -10   95.48   17.87
  -7  -1 -10   87.18   16.87
   7  -1  10   87.08   18.46
   7   1 -10   83.26   16.90
  -7   1  10   97.76   19.37
   7  -3 -10    5.33    6.95
   7  -3 -10   50.53   12.17
  -7   3 -10   42.94   13.30
   7   3  10   46.71   13.53
  -7  -3  10   28.02   11.76
   7   3 -10   19.32    7.47
  -7  -3 -10   17.61    9.74
   7  -3  10   22.40   11.44
  -7   3  10   10.22    9.57
  -7  -3 -10   29.17    9.19
   7   3 -10   62.15   15.21
   7   5  10   93.00   21.12
  -7   5 -10  150.54   23.53
  -7   5 -10  116.58   22.06
   7  -5 -10  121.82   24.33
  -7  -5  10   98.63   22.85
  -7   5  10  162.02   26.54
   7   5 -10  136.68   23.70
  -7  -5 -10  156.99   25.68
   7   5 -10  111.18   19.15
  -8   0 -10   73.34   14.25
  -8   0  10   65.57   15.57
   8   0 -10   45.10   13.36
  -8   0 -10   60.65   14.08
   8   0  10   29.83   11.83
   8  -2 -10   31.54   11.53
   8  -2 -10   57.33   13.60
  -8   2 -10   24.06    9.29
   8   2  10   39.50   13.09
  -8  -2  10   26.82   12.50
  -8  -2 -10   59.21   14.98
  -8  -2 -10   44.86   11.55
  -8   2  10   46.81   14.43
   8  -2  10   53.99   15.60
   8   2 -10   34.71   11.36
   8  -4 -10   41.54   11.03
   8   4  10   33.57   13.34
  -8   4 -10   52.23   14.21
   8  -4 -10   59.49   14.94
  -8  -4  10   47.76   15.99
  -8   4  10   48.74   15.67
   8  -4  10   39.35   15.40
  -8  -4 -10   51.77   12.57
   8   4 -10   53.05   15.36
   8   4 -10   37.21   13.17
  -8  -4 -10   38.95   13.23
   9  -1 -10   48.62   12.69
  -9  -1  10    8.08    8.65
   9  -1 -10   14.29    8.10
  -9   1 -10   28.52   10.41
   9   1  10   28.02   11.57
  -9   1 -10   12.86    8.63
   9  -1  10   42.26   13.53
  -9  -1 -10   21.53   10.29
  -9  -1 -10   40.60   11.67
   9   1 -10   38.12   12.28
  -9   1  10   25.49   10.80
   9   3  10  115.67   22.16
   9  -3 -10   96.08   19.43
  -9  -3  10  106.34   21.60
   9  -3 -10   97.76   18.36
  -9   3 -10  108.98   20.40
   9  -3  10   66.16   17.45
  -9  -3 -10   76.97   18.94
  -9  -3 -10   86.26   17.43
  -9   3  10   37.86   16.03
   9   3 -10   92.64   20.06
  -9  -5  10    3.98   11.79
   9   5  10    0.17    8.93
  -9   5 -10    4.39    8.08
   9  -5 -10    0.00    7.87
  -9  -5 -10   11.89    9.35
   9  -5  10   -5.84    7.85
  -9   5  10    0.89    9.60
   9   5 -10    0.76    9.03
 -10   0  10  166.58   30.12
 -10   0 -10  282.05   34.85
 -10   0 -10  216.18   30.81
  10   0 -10  245.85   33.53
  10   0  10  166.50   29.99
  10  -2 -10   86.59   18.79
  10  -2 -10   62.93   16.34
  10   2  10  102.74   20.72
 -10   2 -10  118.56   20.06
 -10   2 -10  120.49   21.42
 -10  -2  10  119.73   23.64
 -10   2  10   92.15   20.92
  10   2 -10  130.72   23.30
 -10  -2 -10  119.10   21.90
 -10  -2 -10   91.71   18.62
  10  -2  10  115.10   22.37
 -10  -4  10   55.66   17.40
 -10   4 -10   85.31   19.47
  10  -4 -10   87.42   19.67
  10  -4 -10   84.99   17.80
  10   4  10   96.15   21.04
 -10   4  10   87.05   20.92
 -10  -4 -10   85.71   17.10
 -10  -4 -10   99.96   21.81
  10   4 -10   96.08   20.47
  10  -4  10  107.52   21.89
 -11   1 -10   95.26   18.77
  11  -1 -10   68.29   16.07
 -11  -1  10   54.77   15.38
 -11   1 -10   64.73   17.39
  11   1  10   62.85   17.18
 -11   1  10   77.22   17.06
 -11  -1 -10   60.55   16.46
  11  -1  10   56.42   16.82
 -11   1  10   54.53   16.35
  11   1 -10   84.13   19.13
 -11  -1 -10   68.18   16.90
 -11   3 -10    8.85   10.18
  11   3  10   43.38   15.44
  11  -3 -10   -5.33    5.30
  11  -3 -10   13.18   10.13
 -11  -3  10    0.09    7.82
 -11  -3 -10   11.51    9.55
 -11   3  10   -1.69    8.09
  11   3 -10   13.61    9.78
  11  -3  10    2.24    8.68
 -11  -3 -10    5.28    8.35
  12   0  10   18.56   10.62
 -12   0 -10    1.52    7.83
  12   0 -10    5.37    6.90
 -12   0 -10   17.04   11.20
 -12   0  10    0.32    8.97
  12   2  10   14.54   10.57
 -12   2 -10   23.55   12.42
  12  -2 -10   -7.05    5.69
 -12   2 -10   15.73   10.98
 -12  -2  10   23.78   11.48
 -12   2  10   17.70   10.48
 -12   2  10   13.74   11.08
  12   2 -10   12.66   11.07
 -12  -2 -10   25.44   10.50
 -12  -2 -10    8.18   10.05
  12  -2  10   29.94   12.99
   0   0  11   -1.91    5.45
   0   0 -11   -4.29    3.83
   0   0  11   -2.75    5.47
   0  -2 -11    5.05    4.91
   0   2 -11   19.72    7.83
   0  -2  11    2.77    7.03
   0   2  11    4.35    5.69
   0   2  11   -1.76    5.93
   0   2 -11   -5.24    4.63
   0  -2 -11    6.92    6.58
   0  -4 -11   -2.79    4.90
   0   4 -11   10.19    7.68
   0  -4 -11    7.91    7.48
   0   4  11   -3.89    5.17
   0  -4  11   -0.37    6.82
   0   4  11    7.06    6.91
   0   4 -11   -3.79    4.57
   0  -6  11    4.51    9.25
   0   6  11   16.63    9.77
   0  -6 -11   10.91    9.82
   0   6  11   15.01    9.82
   0   6 -11   11.22    9.25
   0   6 -11    9.12    9.73
  -1   1 -11   50.52   12.93
   1   1  11   11.83    8.25
  -1  -1  11   45.71   11.62
  -1  -1  11   12.26    7.21
   1  -1 -11   39.49   10.76
   1  -1 -11   14.08    6.17
   1   1  11   33.31    9.29
   1  -1  11   14.57    9.11
   1  -1  11   15.10    7.80
  -1   1  11   33.84   10.16
  -1   1  11   16.10    8.10
  -1  -1 -11   13.82    8.06
   1   1 -11   26.74    9.76
  -1  -1 -11   17.47    6.14
   1  -3 -11   59.12   12.35
  -1  -3  11   31.64   12.01
   1   3  11   70.74   13.37
   1   3  11   63.19   13.76
  -1   3 -11   58.16   12.92
   1  -3 -11   44.67   12.83
  -1   3 -11   45.99   13.55
  -1   3  11   45.22   11.61
   1  -3  11   61.12   14.14
  -1  -3 -11   59.14   12.30
   1   3 -11   52.66   13.13
  -1   3  11   51.97   12.87
   1   3 -11   42.95   11.47
  -1  -3 -11   37.79   11.54
   1   5  11   41.52   13.11
   1  -5 -11   60.93   16.09
  -1  -5  11   54.15   15.67
  -1   5 -11   94.29   18.31
  -1   5 -11   40.15   12.43
   1   5  11   40.59   11.56
  -1   5  11   40.31   11.97
   1  -5  11   54.87   16.35
   1   5 -11   25.78   10.78
  -1  -5 -11   22.77   12.14
  -1   5  11   54.00   12.78
   1   5 -11   71.55   15.01
   2   0  11    1.04    6.60
   2   0 -11    0.60    5.48
  -2   0  11    4.52    6.40
  -2   0  11   -6.87    4.27
   2   0  11    0.40    5.02
  -2   0 -11    3.30    6.31
  -2  -2  11   -1.95    6.53
  -2   2 -11   -2.29    4.81
   2  -2 -11   -0.32    4.59
   2   2  11   -0.53    6.52
   2  -2 -11   -1.31    4.81
   2   2  11   -1.95    4.90
  -2   2  11    3.21    6.46
  -2  -2 -11    6.17    5.76
  -2  -2 -11    7.31    5.48
   2   2 -11    2.70    5.96
   2  -2  11    3.09    7.52
   2   2 -11   13.50    7.34
   2  -2  11    7.91    7.99
  -2   2  11    3.82    6.87
   2   4  11    2.09    7.16
   2  -4 -11    1.49    6.56
   2  -4 -11    1.44    5.12
  -2   4 -11   12.15    7.71
  -2   4 -11   -3.16    7.08
  -2  -4  11   -6.77    5.61
   2   4 -11    1.51    6.57
   2  -4  11   13.82    8.31
  -2  -4 -11    6.54    7.03
  -2  -4 -11   -4.16    5.06
  -2   4  11   11.78    7.78
  -2   4  11   10.17    7.65
   2   4 -11   -9.47    4.63
  -2  -6  11    9.96   10.66
   2   6  11   -6.35    6.36
  -2   6 -11    9.49    8.77
  -2   6 -11   -3.45    6.34
   2  -6 -11    5.93    9.17
   2   6 -11   -0.26    6.86
  -2   6  11   -4.79    6.47
   2   6 -11    0.96    7.10
  -2  -6 -11    3.06    8.04
   2  -6  11   -2.28    7.52
  -3  -1  11   44.60   12.20
   3   1  11   25.10   11.01
  -3  -1  11   21.55    9.02
  -3   1 -11   28.39   10.21
   3  -1 -11   67.60   11.64
   3  -1 -11   58.37   13.04
  -3  -1 -11   26.95   10.04
  -3   1  11   20.24    8.56
   3   1 -11   24.11    9.51
  -3   1  11   22.60    9.42
   3  -1  11   47.33   10.44
   3  -1  11   56.65   15.07
  -3  -1 -11   28.66    8.42
   3  -3 -11   15.01    8.21
  -3  -3  11   40.22   12.75
  -3   3 -11   37.65   11.42
   3  -3 -11   43.20   11.31
  -3   3 -11   46.63   12.03
   3   3  11   44.83   13.00
  -3   3  11   28.67    9.32
   3  -3  11   29.51   10.56
   3   3 -11   31.44    9.26
  -3   3  11   26.19   10.57
   3   3 -11   35.65   10.83
  -3  -3 -11   39.38   11.57
  -3  -3 -11   26.51    9.76
  -3  -5  11   19.40   11.27
  -3   5 -11   30.99   10.87
   3  -5 -11   11.76    9.69
   3   5  11   25.76   10.59
  -3   5 -11   11.82    9.11
   3   5 -11   42.67   11.54
  -3   5  11   29.92   12.39
   3   5 -11   28.22   11.14
  -3  -5 -11   30.02   12.48
   3  -5  11   13.32   10.09
   4   0  11    4.41    7.40
  -4   0  11   -1.42    4.95
  -4   0  11    0.08    6.31
  -4   0 -11   -5.18    4.33
  -4   0 -11   -1.20    4.81
   4   0 -11   -4.01    3.78
   4  -2 -11   -5.85    4.56
   4   2  11    0.98    7.26
  -4   2 -11   -1.75    5.26
   4  -2 -11    7.17    5.98
  -4  -2  11   -0.08    5.50
  -4  -2 -11   -1.86    4.33
  -4   2  11    2.81    6.68
   4   2 -11    0.06    5.24
  -4   2  11   -0.67    5.71
   4  -2  11    4.33    7.91
  -4  -2 -11   -1.33    5.15
   4  -2  11    6.26    7.23
   4   2 -11    7.47    6.32
  -4  -4  11   -5.56    6.58
   4  -4 -11   -2.28    7.35
  -4   4 -11   -2.63    6.58
  -4   4 -11    5.82    7.69
   4   4  11   -3.19    7.53
   4  -4 -11    3.46    6.36
   4   4 -11   -3.41    4.58
  -4  -4 -11    0.03    5.60
   4  -4  11    0.31    7.53
   4   4 -11   -5.50    5.77
  -4   4  11    0.80    6.25
  -4  -4 -11   -0.70    6.26
  -4  -6  11   -2.39    8.55
   4   6  11  -10.20    6.11
  -4   6 -11   -1.07    7.11
   4  -6 -11   -9.87    6.36
  -4   6 -11   -1.97    7.08
   4  -6  11   11.10   10.45
   4   6 -11   -1.64    7.03
   4   6 -11   -4.78    5.56
  -4   6  11   -5.68    6.43
  -4  -6 -11    3.64    9.59
   5   1  11   15.92    8.80
  -5   1 -11   11.59    7.48
   5  -1 -11   13.48    7.98
  -5  -1  11   24.87   10.17
   5  -1 -11   17.12    7.18
  -5  -1  11   19.73    7.59
   5  -1  11   13.34    9.45
  -5   1  11    2.25    6.59
  -5  -1 -11   18.62    8.49
  -5  -1 -11    0.04    6.38
   5   1 -11   14.24    7.71
  -5   3 -11   21.71   10.33
   5  -3 -11   19.67    8.82
  -5  -3  11   27.60   11.27
   5   3  11    8.72    7.82
   5  -3 -11   21.01    9.50
   5   3 -11    5.54    8.63
  -5   3  11    9.51    8.19
  -5  -3 -11   21.88    8.01
   5   3 -11   13.11    7.14
  -5  -3 -11   11.84    7.88
   5  -3  11   17.86    9.65
  -5   5 -11    6.09    9.04
  -5   5 -11    1.82    7.78
   5  -5 -11    5.12    8.81
  -5  -5  11   -0.45    9.42
   5   5  11   14.30   10.94
   5   5 -11   13.59    8.38
   5   5 -11   -0.60    8.48
  -5  -5 -11   24.14   10.98
   5  -5  11    9.20    8.83
  -5   5  11   27.93   12.44
   6   0  11   -4.59    5.42
   6   0 -11   -5.35    5.04
  -6   0 -11   -3.06    4.94
  -6   0 -11    2.13    6.16
  -6   0  11   -0.61    5.84
   6   2  11    0.71    7.04
  -6   2 -11    4.88    7.67
   6  -2 -11    4.67    6.22
  -6  -2  11   -0.06    6.13
   6  -2 -11    4.35    6.16
  -6  -2 -11    4.63    5.79
  -6  -2 -11    4.77    6.22
   6   2 -11   -8.79    4.44
   6  -2  11    0.52    7.81
   6   2 -11   10.18    8.14
  -6   2  11   12.34    9.20
   6  -4 -11    9.08    8.13
  -6   4 -11    6.57    7.29
  -6  -4  11    7.38    9.19
   6   4  11    2.01    7.90
   6  -4 -11    4.96    7.10
  -6  -4 -11    3.39    6.55
  -6  -4 -11   -1.12    7.06
  -6   4  11   -4.31    5.01
   6   4 -11   -3.72    7.48
   6   4 -11    5.18    6.22
   6  -4  11   -2.91    7.44
   7   1  11   30.98   12.98
   7  -1 -11   16.49    9.49
  -7  -1  11   23.71   10.85
  -7   1 -11   34.38   11.87
   7   1 -11   30.38   10.36
  -7   1  11   26.92   10.97
  -7  -1 -11   14.18    7.86
   7  -1  11   30.97   11.34
  -7  -1 -11   27.18   10.18
   7  -3 -11   82.12   15.84
   7   3  11   47.93   15.02
  -7  -3  11   52.19   15.82
   7  -3 -11   59.24   14.84
  -7   3 -11   77.43   15.95
  -7  -3 -11   56.56   15.68
  -7  -3 -11   47.12   12.27
   7  -3  11   46.59   14.41
  -7   3  11   52.74   15.95
   7   3 -11   55.64   14.72
   7  -5 -11   44.16   15.78
  -7  -5  11   50.33   16.57
  -7   5 -11   66.97   17.21
  -7   5 -11   67.32   16.05
   7   5  11   85.78   19.46
  -7  -5 -11   70.41   17.90
  -7   5  11   48.23   16.35
   7   5 -11   68.34   15.38
   7   5 -11   62.62   17.43
   8   0 -11    0.04    5.91
   8   0  11   12.46    9.89
  -8   0  11   -3.91    5.24
  -8   0 -11    4.22    7.44
  -8   0 -11   -0.75    5.03
   8  -2 -11   10.36    8.14
  -8   2 -11   -1.24    5.32
   8   2  11   -2.36    7.23
  -8  -2  11   -5.96    5.96
   8  -2 -11    3.06    6.99
   8   2 -11   -0.10    6.05
  -8   2  11   -3.79    6.19
  -8  -2 -11   -4.69    4.80
  -8  -2 -11   -2.92    7.09
   8  -2  11    3.06    8.14
  -8   4 -11    4.32    6.74
  -8  -4  11   -2.77    8.61
   8  -4 -11   -5.10    7.02
   8  -4 -11    5.29    6.89
   8   4  11    6.41    9.07
  -8  -4 -11    2.15    6.63
   8  -4  11   -0.25    8.21
  -8  -4 -11    6.03    8.03
   8   4 -11   -4.51    7.56
  -8   4  11    5.74    8.56
  -9   1 -11   28.57   14.19
   9   1  11   20.05   12.54
  -9  -1  11    4.06    7.96
   9  -1 -11   21.89    9.76
  -9   1 -11   42.27   13.59
  -9   1  11   15.39    9.80
  -9  -1 -11   42.50   12.53
   9   1 -11   32.01   12.49
  -9  -1 -11   25.11   10.62
   9  -1  11   21.47   11.15
   9  -3 -11   10.60    8.05
   9  -3 -11   12.03    9.46
  -9  -3  11   19.97   11.34
  -9   3 -11   17.44    8.84
   9   3  11    8.68    9.99
  -9  -3 -11    8.17    8.33
   9  -3  11   11.70   10.86
  -9  -3 -11   -6.43    6.83
  -9   3  11  -12.98    6.77
   9   3 -11   27.55   12.16
 -10   0 -11    4.49    8.24
  10   0  11    6.12    8.45
  10   0 -11   -0.31    7.28
 -10   0 -11   -2.52    6.21
 -10   0  11    5.62    8.43
  10  -2 -11    5.35    7.22
  10   2  11   -6.72    7.30
 -10  -2  11    5.89    8.37
 -10   2 -11   -1.79    7.27
  10  -2 -11    2.22    7.57
 -10   2  11   -7.71    6.71
 -10  -2 -11   -3.15    7.36
 -10  -2 -11   -2.72    6.88
  10  -2  11    7.24    9.68
  10   2 -11    4.52    8.75
 -11  -1  11    8.95    9.69
 -11   1 -11    4.23    6.52
  11   1  11   19.54   11.92
  11  -1 -11    9.92    7.69
 -11   1 -11    9.01    9.45
  11   1 -11    3.99    7.26
 -11   1  11    1.01    8.85
 -11  -1 -11   -6.23    7.49
  11  -1  11   -3.72    7.17
 -11  -1 -11   -4.95    6.23
   0   0  12  493.94   50.85
   0   0  12  511.38   50.62
   0   0 -12  508.90   50.98
   0   2 -12   13.74    7.72
   0  -2  12    1.92    7.72
   0   2  12   16.12    7.90
   0  -2 -12   19.53    8.03
   0  -2  12    5.25    8.02
   0   2  12   26.68   10.07
   0  -2 -12    6.82    5.80
   0  -4  12  347.98   44.70
   0   4  12  388.74   43.12
   0   4  12  355.98   41.67
   0  -4 -12  285.15   40.56
   0  -4 -12  334.39   39.77
   0   4 -12  401.53   44.07
   0   4 -12  348.87   41.89
   0   6 -12    5.37    7.61
   0   6  12   23.13   11.43
   0   6 -12   11.62    8.89
   0  -6 -12    2.80    8.99
   0  -6  12   18.44   12.55
  -1  -1  12   -8.15    5.20
   1   1  12    0.34    6.38
   1  -1 -12    6.44    6.32
  -1   1 -12    6.85    7.39
   1   1  12    0.73    5.66
  -1  -1  12   12.18    8.14
  -1   1  12   -1.17    6.30
  -1  -1 -12   -1.24    5.31
   1   1 -12    2.01    5.96
   1  -1  12   -7.30    6.25
   1  -1  12    1.25    5.60
  -1   1  12    6.65    6.28
  -1   3 -12   13.36    9.46
   1  -3 -12    4.59    6.01
   1   3  12   14.76    8.58
   1  -3 -12    8.90    6.88
  -1  -3  12   -4.42    6.89
   1   3  12   11.93    7.37
  -1   3 -12    9.04    8.60
  -1  -3 -12   17.35    7.98
  -1   3  12   10.83    7.53
  -1  -3 -12   24.40    9.17
  -1   3  12    1.72    6.55
   1   3 -12    5.75    7.07
   1   3 -12   22.02    9.69
   1  -3  12   17.57    7.85
   1  -5 -12    1.25    7.76
  -1  -5  12    1.94    8.80
  -1   5 -12   17.96    8.95
  -1   5 -12    2.29    6.60
   1   5  12    9.53    8.66
  -1   5  12   -5.88    6.97
   1   5 -12   13.43    9.23
  -1   5  12    0.48    7.48
  -1  -5 -12    3.78    7.88
   1  -5  12    1.58    8.15
   1   5 -12   -0.73    7.14
   2   0  12   40.49   10.90
  -2   0 -12   28.41   10.67
  -2   0  12   41.13   12.37
   2   0  12   45.06   13.16
  -2   0  12   48.56   12.31
   2   0 -12   43.33   12.30
   2  -2 -12   82.77   15.84
  -2  -2  12   41.50   13.67
   2  -2 -12   49.38   12.42
   2   2  12   76.08   15.89
  -2   2 -12   73.07   16.18
  -2   2  12   32.57   11.69
   2  -2  12   60.93   14.12
  -2  -2 -12   80.58   14.08
   2  -2  12   69.74   17.29
  -2   2  12   94.99   16.72
  -2  -2 -12   74.48   15.06
   2   2 -12   49.62   12.85
   2   2 -12   82.42   14.99
   2  -4 -12    3.89    6.91
  -2  -4  12   29.11   13.03
   2   4  12   14.75    8.79
  -2   4 -12   17.41    9.37
  -2   4 -12   17.45   10.31
   2  -4 -12   28.66    9.69
   2   4 -12   24.59    9.96
   2   4 -12    4.68    6.26
  -2   4  12   30.70   10.23
  -2  -4 -12   18.77    8.99
  -2   4  12   17.18    9.12
   2  -4  12    2.24    7.28
  -2  -4 -12   20.98    9.32
  -2   6 -12   16.39   10.34
   2  -6 -12   35.98   15.86
   2   6  12   41.36   13.89
  -2  -6  12   47.65   16.51
  -2   6 -12   26.36   11.91
  -2  -6 -12    8.36   10.00
   2   6 -12   34.30   12.58
  -2   6  12   15.44   11.09
   2  -6  12   27.23   13.01
   2   6 -12   23.96   11.06
  -3  -1  12    6.11    6.92
  -3  -1  12    6.02    6.68
   3  -1 -12    3.72    6.14
  -3   1 -12   11.65    7.66
   3   1  12   -2.15    6.42
  -3   1  12    5.76    7.94
   3  -1  12   -3.04    5.18
  -3  -1 -12    7.37    5.74
  -3  -1 -12   13.19    8.68
  -3   1  12    6.27    6.35
   3  -1  12    0.72    7.30
   3   1 -12    5.44    6.14
  -3   3 -12    6.56    7.46
   3  -3 -12   20.18    8.72
  -3  -3  12   20.19   11.36
   3  -3 -12   10.86    7.33
   3   3  12   11.62    9.02
   3   3 -12    9.31    7.39
  -3   3  12    4.59    6.53
   3   3 -12    7.87    8.46
   3  -3  12   -3.91    7.15
  -3   3  12   -0.65    7.02
  -3  -3 -12   -1.59    4.97
  -3  -3 -12   13.15    7.60
   3  -3  12   -4.49    6.64
   3  -5 -12   35.10   13.08
  -3  -5  12   30.47   14.11
  -3   5 -12    6.03    7.48
  -3   5 -12   38.84   12.39
   3   5  12   12.42   10.26
  -3  -5 -12   26.23   11.87
   3  -5  12   34.25   13.75
   3   5 -12   65.30   15.40
  -3   5  12   41.81   13.32
   3   5 -12   31.09   10.40
  -4   0  12   19.16    8.15
  -4   0  12   15.05    8.56
  -4   0 -12   12.71    7.59
   4   0  12   10.31    9.12
   4   0 -12    8.85    7.25
  -4   2 -12   34.48   11.52
   4   2  12   37.86   12.66
   4  -2 -12   38.25   11.01
  -4  -2  12   58.90   15.74
   4  -2 -12   24.52   10.26
  -4   2  12   61.87   15.07
  -4  -2 -12   52.74   12.37
   4  -2  12   27.91   12.55
   4   2 -12   40.73   11.97
  -4  -2 -12   64.74   14.14
   4   2 -12   43.30   11.87
  -4  -4  12   34.26   13.32
   4  -4 -12   36.44   12.44
  -4   4 -12   23.30   10.76
   4  -4 -12   35.55   10.83
  -4   4 -12   34.79   11.58
   4   4  12   29.85   12.09
   4   4 -12   51.01   13.23
  -4  -4 -12   34.63   11.76
  -4  -4 -12   54.75   14.13
  -4   4  12   32.98   13.18
   4  -4  12   39.76   12.82
   4   4 -12   38.85   12.15
  -5   1 -12   53.26   13.99
   5  -1 -12   42.25   12.72
  -5  -1  12   58.09   15.66
   5   1  12   43.63   13.65
  -5  -1  12   52.65   12.86
   5   1 -12   50.22   13.97
  -5   1  12   52.72   14.14
  -5  -1 -12   48.72   13.65
   5  -1  12   52.40   14.54
  -5  -1 -12   40.05   11.82
  -5   3 -12   39.51   12.80
   5  -3 -12   51.41   13.33
   5  -3 -12   64.90   15.46
   5   3  12   45.00   13.56
  -5  -3  12    3.75    9.75
  -5  -3 -12   84.59   15.69
  -5  -3 -12   28.18   10.93
   5   3 -12   54.69   12.25
  -5   3  12   66.53   17.13
   5  -3  12   53.52   16.56
   5   3 -12   28.76   10.91
  -5   5 -12   21.40   10.63
  -5   5 -12   -4.54    7.98
   5  -5 -12   21.08   11.58
  -5  -5  12   10.50   10.41
   5   5  12   16.72   10.68
   5   5 -12    6.37    7.37
  -5  -5 -12    7.94    8.18
   5   5 -12    6.93    9.79
  -5   5  12   18.93   12.18
   6   0 -12   60.44   14.84
  -6   0  12  105.77   19.69
  -6   0 -12   57.25   15.05
   6   0  12   23.22   12.48
   6  -2 -12  203.74   28.09
  -6  -2  12  146.66   28.35
  -6   2 -12  182.77   27.36
   6  -2 -12  189.13   32.09
   6   2  12  158.51   27.23
  -6  -2 -12  180.30   26.44
   6  -2  12  183.74   29.90
  -6  -2 -12  179.15   26.14
  -6   2  12  191.04   29.26
   6   2 -12  157.54   27.72
   6  -4 -12   62.49   14.45
   6   4  12   42.08   13.62
   6  -4 -12   48.31   14.55
  -6  -4  12   37.99   13.80
  -6   4 -12   62.23   16.68
  -6  -4 -12   11.77    9.22
   6   4 -12   69.98   16.40
   6   4 -12   57.63   12.87
  -6   4  12   32.85   13.83
  -6  -4 -12   48.18   12.70
   6  -4  12   48.97   15.99
  -7   1 -12   41.66   12.66
   7  -1 -12   61.95   14.60
   7   1  12   58.44   15.64
  -7  -1  12   64.30   16.38
   7  -1  12   23.63   11.85
  -7  -1 -12   28.61   11.51
  -7  -1 -12   48.07   12.49
   7   1 -12   68.58   15.72
  -7   1  12   63.11   16.98
  -7   3 -12   17.35   10.37
  -7  -3  12    5.93    8.06
   7   3  12   30.47   13.29
   7  -3 -12   13.30    9.65
   7  -3 -12   10.07    7.96
   7   3 -12   20.42   10.59
  -7   3  12   13.73   10.09
  -7  -3 -12   25.68   10.61
   7  -3  12    6.37    9.81
  -7  -3 -12   28.82   10.89
  -8   0 -12   30.02   11.96
   8   0 -12   23.14   11.21
  -8   0  12   25.68   12.79
   8   0  12   13.53    9.97
  -8   2 -12   11.89    9.91
  -8  -2  12    1.55    8.00
   8   2  12    2.90    8.41
   8  -2 -12    3.81    7.37
   8   2 -12   10.15    9.85
  -8  -2 -12    5.15    6.85
   8  -2  12    1.83    8.73
  -8   2  12    6.00    9.23
  -8  -2 -12    4.42    7.70
   8   4  12   20.22   11.95
   8  -4 -12   15.11    9.54
  -8  -4  12   -3.09    8.85
   8  -4 -12    6.57    9.12
  -8   4 -12   32.74   14.57
   8  -4  12    6.38    9.60
  -8   4  12   33.06   14.32
  -8  -4 -12    7.47    7.43
  -8  -4 -12   21.29   11.57
   8   4 -12    2.49   10.06
  -9  -1  12   31.11   13.46
   9  -1 -12   88.35   18.65
   9   1  12   50.25   16.18
  -9   1 -12   37.05   12.79
  -9  -1 -12   47.71   14.89
  -9  -1 -12   32.92   12.33
   9   1 -12   49.64   14.39
  -9   1  12   41.84   15.69
   9  -1  12   26.85   12.63
  -9  -3  12   43.25   16.59
   9  -3 -12   39.88   13.13
  -9   3 -12   37.26   13.95
   9  -3 -12   38.30   12.98
   9   3  12   40.10   14.84
  -9  -3 -12   50.25   14.62
  -9  -3 -12   56.94   15.41
  -9   3  12   18.44   11.10
   9   3 -12   51.12   15.46
   9  -3  12   52.22   16.23
  10   0 -12   -2.68    6.35
 -10   0 -12   -7.69    6.29
  10   0  12    1.07    9.57
 -10   0  12    8.29    9.01
  10  -2 -12    8.29    8.27
 -10   2 -12   21.45   11.49
  10   2  12    3.74    9.50
 -10  -2  12    4.33    9.81
 -10  -2 -12   11.31    9.71
  10   2 -12    9.45   11.21
 -10   2  12   12.04   10.25
  10  -2  12    6.29   10.19
 -10  -2 -12    6.43    9.24
   0   0  13    0.58    6.94
   0   0  13    3.08    7.45
   0   0 -13   -7.57    5.35
   0  -2  13    6.07    8.00
   0   2  13    4.74    7.33
   0   2  13   -1.90    7.14
   0  -2  13   -2.25    7.10
   0   2 -13    2.00    6.96
   0  -2 -13   10.04    6.68
   0  -4  13   29.10   12.97
   0  -4 -13    8.45    7.68
   0   4  13   25.32   10.72
   0   4 -13    4.04    8.07
   0   4  13   -0.41    7.16
   0  -4 -13   -2.56    5.60
   0   4 -13    8.18    8.35
  -1   1 -13   26.08   11.22
  -1  -1  13   23.27   10.14
  -1  -1  13   14.23    9.80
   1  -1 -13   -0.73    5.83
   1   1  13   10.24    7.94
   1   1  13   10.58    7.49
  -1  -1 -13    9.77    8.55
  -1   1  13    6.39    7.88
  -1   1  13   21.68    9.75
   1  -1  13   11.01    8.03
   1  -1  13   12.96    9.65
   1   1 -13   15.88    8.84
   1  -3 -13   13.29    7.92
  -1   3 -13    6.27    8.11
  -1  -3  13   -0.51    6.92
   1   3  13    7.71    7.92
  -1   3 -13    1.17    7.02
   1  -3 -13    4.97    7.32
  -1  -3 -13    2.27    6.45
   1   3 -13    7.28    7.93
  -1   3  13    4.15    7.70
  -1  -3 -13   -0.40    6.00
   1  -3  13   -1.04    8.48
  -1   3  13    1.00    6.64
   1   3 -13   -1.44    6.29
  -1  -5  13   -0.30    9.87
   1  -5 -13   -6.44    5.41
  -1   5 -13   -0.16    6.01
   1   5  13   -0.24    8.23
  -1   5 -13    2.92    7.39
  -1   5  13   -2.56    7.25
   1   5 -13   -7.11    6.81
   1   5 -13   10.42    7.96
   1  -5  13    7.17   10.50
  -1  -5 -13    3.80    8.08
  -1   5  13    5.92    8.53
  -2   0  13   -4.44    5.46
   2   0  13   -0.10    7.88
  -2   0  13   -2.00    7.38
  -2   0 -13   -3.67    5.39
   2   0 -13    0.78    5.88
  -2  -2  13   -1.91    7.29
  -2  -2  13    2.14    7.45
   2   2  13   -1.90    7.00
  -2   2 -13   11.17    8.28
   2  -2 -13    1.81    6.06
   2  -2  13   -2.67    6.66
   2  -2  13   -3.30    6.68
  -2   2  13   -2.06    6.40
  -2  -2 -13   -0.04    6.06
  -2  -2 -13   -4.84    6.37
  -2   2  13   -4.20    5.77
   2   2 -13   -7.44    5.46
  -2  -4  13    7.08    9.92
   2  -4 -13   13.59    8.24
  -2   4 -13   22.12   10.36
   2   4  13   10.09    9.53
  -2   4 -13  -11.98    5.32
   2  -4 -13    5.72    7.91
   2   4 -13    4.01    8.05
   2   4 -13   13.69    8.79
   2  -4  13    2.14    7.88
  -2  -4 -13   33.24   12.19
  -2   4  13   10.22    9.14
  -2  -4 -13   16.22   10.31
  -2   4  13   10.38    9.26
  -3  -1  13  173.55   26.53
  -3  -1  13  190.99   26.01
  -3   1 -13  184.29   27.23
   3  -1 -13  184.87   27.52
   3   1  13  181.88   27.66
   3  -1  13  137.02   25.63
  -3   1  13  176.49   27.55
   3   1 -13  151.54   26.27
  -3  -1 -13  172.60   26.60
  -3   1  13  191.64   25.32
   3  -3 -13  177.41   26.62
  -3   3 -13  130.47   24.96
   3   3  13  174.44   28.47
   3  -3 -13  171.38   26.32
  -3  -3  13  188.47   29.84
   3   3 -13  199.30   28.87
  -3  -3 -13  140.32   24.30
  -3   3  13  223.37   29.84
   3  -3  13  204.03   30.89
   3   3 -13  231.70   28.40
   3  -3  13  146.20   25.95
  -3  -3 -13  178.90   25.98
   3   5  13  131.66   24.06
  -3   5 -13  140.96   25.36
  -3   5 -13  156.65   25.52
  -3  -5  13   98.38   25.16
   3  -5 -13  141.15   25.24
   3   5 -13  202.09   28.10
   3   5 -13  171.57   26.06
  -3  -5 -13  113.73   23.14
  -3   5  13  129.06   24.84
   3  -5  13  142.99   25.92
  -4   0  13    2.15    7.12
   4   0 -13    3.99    5.69
   4   0  13   -3.17    7.10
  -4   0  13    0.78    6.16
  -4   0 -13   -1.83    5.62
   4   2  13   -3.52    7.87
  -4   2 -13  -10.12    4.61
  -4  -2  13    1.29    7.37
   4  -2 -13    5.93    6.91
  -4  -2  13    8.38    7.95
  -4   2  13  -10.47    5.69
  -4  -2 -13   -4.34    7.66
   4  -2  13   10.81    8.98
  -4  -2 -13   -3.52    5.52
   4   2 -13    3.04    6.53
  -4  -4  13    7.87   10.11
  -4   4 -13   11.74    8.91
   4   4  13   18.34   10.75
   4  -4 -13    5.78    7.58
   4  -4 -13   16.53    9.64
   4  -4  13   -1.26    8.44
   4   4 -13   -3.87    7.40
   4   4 -13    3.57    6.45
  -4  -4 -13   -3.40    7.81
  -4   4  13    3.87    9.28
  -4  -4 -13   -6.01    6.02
  -5  -1  13   10.18    9.21
  -5   1 -13   33.66   10.71
   5  -1 -13   14.64    9.12
   5   1  13   24.99   10.80
  -5   1  13   36.59   13.02
  -5  -1 -13   22.42   10.67
   5  -1  13   18.70   10.05
   5   1 -13    5.40    7.71
   5  -3 -13   10.59    7.71
   5   3  13   15.55    9.91
  -5  -3  13   12.81   10.03
  -5   3 -13   24.57   11.34
   5  -3 -13   38.95   13.52
   5   3 -13   32.80   11.91
   5   3 -13   38.60   11.64
  -5   3  13    4.80    9.15
   5  -3  13   13.59   10.64
  -5  -3 -13    7.67    7.49
  -5  -3 -13   48.40   13.08
   6   0  13   -8.93    7.38
  -6   0  13   -3.11    6.17
   6   0 -13    1.48    7.14
  -6   0 -13    1.70    7.33
   6   2  13   -2.27    8.45
   6  -2 -13   -2.40    5.12
  -6   2 -13   -0.16    7.22
  -6  -2  13    6.75    9.94
  -6  -2 -13    2.68    6.47
  -6  -2 -13   -0.27    7.32
   6   2 -13    1.62    6.68
   6  -2  13   -7.35    7.45
  -6   2  13    0.00    7.97
  -6  -4  13   20.68   11.77
  -6   4 -13   12.44    9.80
   6  -4 -13    5.94    8.86
   6  -4 -13   13.00    9.40
   6   4  13   -9.18    6.67
   6   4 -13   14.31   10.43
   6   4 -13    9.84    7.81
  -6  -4 -13   12.70    8.90
   6  -4  13    5.59   10.24
  -6   4  13    5.42    8.79
  -6  -4 -13   -1.69    7.00
   7  -1 -13   -9.10    4.10
   7   1  13   -8.20    7.27
  -7   1 -13   11.19    8.69
  -7  -1  13    8.21    8.78
   7   1 -13    0.64    6.88
  -7  -1 -13   -0.28    6.12
  -7   1  13    2.90    9.11
   7  -1  13    7.70    8.69
  -7   3 -13    6.34    9.38
   7  -3 -13   -2.43    6.75
  -7  -3  13    2.14    7.94
   7   3  13   -6.49    6.83
  -7   3  13    7.96   11.02
  -7  -3 -13   -5.43    6.48
   7  -3  13   11.48   10.82
   7   3 -13   -5.26    6.85
  -7  -3 -13   -0.48    6.54
   8   0 -13    4.89    8.09
  -8   0 -13   -3.62    6.34
  -8   0  13   -4.88    7.30
   8   0  13    1.77    7.90
   8   2  13    4.51    8.54
  -8   2 -13    2.82    7.89
  -8  -2  13   -0.12    7.91
   8  -2 -13    1.54    7.22
   8   2 -13    8.76    8.99
  -8   2  13   -1.41    7.09
   8  -2  13   -2.75    6.40
  -8  -2 -13   14.85    9.86
  -8  -2 -13   13.52    8.48
  -9   1 -13   85.25   19.85
   9  -1 -13  125.66   24.40
   9   1  13  126.04   25.77
  -9  -1  13  101.99   21.60
   9   1 -13  109.18   23.24
  -9   1  13   70.28   20.30
   9  -1  13  104.31   24.00
  -9  -1 -13   85.33   19.02
   0   0  14   40.92   12.61
   0   0  14   41.51   13.05
   0   0 -14   27.85   11.72
   0  -2  14  302.12   38.39
   0   2  14  279.10   36.62
   0  -2  14  279.44   38.43
   0   2  14  286.31   35.72
   0   2 -14  246.58   35.27
   0  -2 -14  262.92   34.91
   0  -4 -14   -4.88    6.04
   0  -4  14   -6.67    9.31
   0   4 -14    3.36    8.24
   0   4  14   -2.49    7.29
   0  -4 -14   -3.78    6.62
   0   4 -14   -7.04    7.08
   1  -1 -14    0.04    6.43
  -1   1 -14   -9.36    6.74
  -1  -1  14   -8.59    6.83
  -1  -1  14   11.94    9.09
   1   1  14    9.24    8.52
   1   1 -14    9.10    9.32
  -1   1  14   14.65    8.78
  -1   1  14   17.61   10.39
   1  -1  14   14.55   10.83
   1  -1  14    8.09    7.80
  -1  -1 -14    1.20    8.00
  -1  -3  14    8.44    9.24
  -1   3 -14   -3.23    6.77
  -1  -3  14    0.81    7.77
   1  -3 -14    4.71    7.26
   1   3  14   -1.35    7.92
   1   3 -14   12.51    8.24
  -1   3  14   11.89    9.54
  -1  -3 -14    0.21    7.09
   1  -3  14    9.83   10.84
  -1   3  14   -3.63    6.97
   1  -3  14   -4.34    7.32
   1   3 -14    4.52    7.71
  -2   0  14   95.10   18.26
   2   0 -14   59.76   15.90
   2   0  14   97.37   20.55
  -2   0  14   90.06   16.73
  -2   0 -14   69.11   16.55
  -2  -2  14   46.50   13.89
  -2  -2  14   56.01   14.76
   2  -2 -14   14.18    9.51
   2   2  14   49.47   14.53
  -2   2 -14   29.39   12.41
  -2   2  14   38.80   12.82
   2  -2  14   52.76   14.94
  -2   2  14   35.40   12.22
   2  -2  14   39.80   13.82
  -2  -2 -14   41.68   12.98
   2   2 -14   47.48   13.52
   2  -4 -14   33.26   11.81
   2  -4 -14   52.28   13.27
  -2  -4  14   19.68   12.17
  -2   4 -14   20.86   11.07
   2   4  14   15.01   10.04
  -2   4 -14   37.23   13.77
  -2  -4 -14   28.02   10.80
   2   4 -14   41.67   14.51
  -2   4  14   27.86   11.77
   2   4 -14   47.18   13.68
   2  -4  14   31.23   14.78
  -2  -4 -14   17.81   10.40
  -3  -1  14   11.17    9.31
  -3   1 -14    6.54    9.13
   3  -1 -14   20.67    9.99
   3   1  14    7.79    8.21
  -3  -1  14   17.30   10.24
  -3  -1 -14    6.73    8.01
  -3   1  14   16.50    9.37
  -3   1  14   25.25   11.51
   3  -1  14    2.82    9.02
   3   1 -14    5.36    7.35
  -3  -3  14    5.72    8.53
  -3   3 -14   14.60   10.69
   3  -3 -14   45.98   12.70
   3   3  14   21.11   11.42
   3   3 -14   30.58   11.73
   3  -3  14   23.05   12.86
  -3  -3 -14    3.45    9.73
   3   3 -14   58.09   14.67
  -3   3  14   29.57   12.96
  -3  -3 -14   48.60   14.34
  -4   0  14   49.30   14.25
   4   0 -14   26.69   11.08
   4   0  14   24.67   11.76
  -4   0 -14   18.84   10.69
  -4  -2  14   14.84   10.95
  -4  -2  14   13.45   10.24
  -4   2 -14   13.70    9.52
   4   2  14    1.23    8.42
   4  -2 -14   16.84    9.38
   4   2 -14   37.78   13.53
  -4  -2 -14    0.93    7.25
   4  -2  14   12.54   10.18
  -4   2  14   12.67   10.10
   4  -4 -14   28.11   15.75
  -4  -4  14   15.69   10.48
   4  -4 -14   15.59    8.92
   4   4  14   26.93   13.45
  -4   4 -14   51.06   15.53
   4  -4  14   11.04   11.06
  -4   4  14   33.22   12.75
   4   4 -14   54.95   14.05
  -4  -4 -14   19.67   10.90
  -4  -4 -14   25.28   18.83
   4   4 -14   27.40   12.39
  -5  -1  14    1.86    9.52
  -5   1 -14   27.03   11.04
   5   1  14   40.69   14.53
   5  -1 -14   28.95   11.21
  -5  -1 -14   33.61   12.53
   5   1 -14   24.85    9.78
   5  -1  14   40.31   14.38
  -5   1  14   30.07   12.80
   5  -3 -14    9.82    8.14
  -5  -3  14   -0.10    8.26
   5   3  14    9.78    9.30
  -5   3 -14    7.11    9.68
   5  -3  14   -3.94    7.87
  -5  -3 -14   12.16   10.82
  -5  -3 -14    7.38    7.55
   5   3 -14    9.31    8.62
   5   3 -14   14.49   10.85
  -5   3  14    4.95   10.21
  -6   0 -14  240.05   33.58
   6   0  14  198.35   33.25
   6   0 -14  226.04   33.48
  -6   0  14  173.94   30.18
  -6   2 -14    9.52    9.66
   6  -2 -14   15.50    9.09
  -6  -2  14   15.71   10.23
   6   2  14   51.60   16.35
   6   2 -14   48.40   14.70
  -6   2  14    5.39    8.81
  -6  -2 -14   34.22   12.21
   6  -2  14   27.25   12.61
  -7   1 -14   29.86   12.07
  -7  -1  14    3.27    9.34
   7  -1 -14   -3.73    6.33
   7   1  14   29.29   14.20
  -7   1  14    7.99    9.68
   7   1 -14   21.92   10.19
  -7  -1 -14   13.40   10.10
   7  -1  14   17.27   11.92
   0   0 -15   -3.47    8.10
   0   0  15    5.33    8.47
   0   0  15   -7.00    7.09
   0  -2  15    1.33    8.48
   0   2 -15   19.26   10.79
   0  -2  15  -13.50    5.48
   0   2  15    8.72    9.63
   0  -2 -15   -1.70    7.24
   1   1  15   63.52   15.89
   1  -1 -15   51.94   14.54
  -1  -1  15   59.96   15.81
  -1  -1  15   67.86   17.03
  -1   1 -15   14.73   11.66
  -1  -1 -15   45.50   15.20
   1   1 -15   42.76   13.88
   1  -1  15   27.63   11.96
  -1   1  15   61.12   14.99
  -1   1  15   65.71   15.47
  -1  -3  15   33.80   14.45
   1   3  15   30.27   12.52
  -1   3 -15   18.06    9.89
   1  -3 -15   64.35   15.56
  -1  -3  15   15.32   11.30
  -1  -3 -15   38.83   12.52
  -1   3  15   31.83   12.31
   1  -3  15   59.01   16.26
   1   3 -15   37.38   13.22
   1  -3  15   60.70   17.98
   2   0 -15   -0.01    7.24
  -2   0  15   -3.06    6.88
  -2   0  15    4.00    8.51
  -2   0 -15   -2.80    6.22
   2   0  15   -4.04    7.37
  -2   2 -15   -5.65    7.06
   2   2  15  -10.76    7.16
  -2  -2  15   -1.15    8.34
  -2  -2  15   14.88   10.11
   2  -2 -15   -8.50    5.38
   2  -2  15    2.09    8.78
  -2  -2 -15    0.93    7.62
  -2   2  15    5.78    8.77
  -2   2  15   10.66    9.44
   2   2 -15    0.69    7.81
   3   1  15    5.31    8.32
  -3  -1  15    5.89    8.43
   3  -1 -15    2.32    7.60
  -3  -1  15    9.37   10.36
  -3   1 -15    3.38    8.89
   3   1 -15   -2.65    7.30
  -3  -1 -15    1.35    7.76
   3  -1  15   -0.35   10.04
  -3   1  15   15.39   10.72
   3   3  15    4.59    9.41
  -3   3 -15   32.89   14.28
  -3  -3  15   16.49   11.23
   3  -3 -15    6.81    8.91
  -3  -3  15   33.00   14.15
  -3   3  15   16.34   11.08
   3   3 -15   29.29   12.68
  -3  -3 -15    6.28    8.09
   3  -3  15    7.50   10.21
   4   0  15   -8.49    7.62
  -4   0 -15   14.09   11.67
   4   0 -15    4.69    8.37
  -4   0  15    5.70    9.34
  -4   2 -15   -6.44    6.57
  -4  -2  15    8.40    9.86
  -4  -2  15   10.10   10.40
   4  -2 -15   15.32    9.80
   4   2  15    3.29    8.92
   4  -2  15   14.81   11.26
  -4   2  15    9.46    9.89
  -4  -2 -15    3.23    8.83
   4   2 -15    7.90    9.32
   5  -1 -15   44.70   14.33
  -5   1 -15   39.38   13.40
  -5  -1  15   10.11   11.53
   5   1  15   34.23   14.86
  -5   1  15   12.99   10.45
   5  -1  15   14.40   12.71
   5   1 -15   25.19   11.79
  -5  -1 -15   24.03   11.06
   0   0 -16   18.42   11.42
   0   0  16   43.30   14.22
   1   1  16   -4.79    8.04
  -1  -1  16    3.00    8.80
   1  -1 -16   -0.91    6.33
  -1   1 -16   -6.11    6.16
  -1  -1  16   -0.51    8.49
  -1   1  16   -7.45    7.15
  -1  -1 -16    6.59    7.34
   1   1 -16    6.78    9.04
   1  -1  16   -2.01    7.59
   2   0  16  192.26   31.91
   2   0 -16  205.78   32.20
  -2   0  16  219.08   32.76
  -2   0  16  234.65   32.71
  -2   0 -16  182.42   30.68
   0   0   0    0.00    0.00
;
_shelx_hkl_checksum              23218
loop_
_space_group_symop_operation_xyz
'x, y, z'
'-x, -y, z+1/2'
'-x, y, -z+1/2'
'x, -y, -z'
'x+1/2, y+1/2, z'
'-x+1/2, -y+1/2, z+1/2'
'-x+1/2, y+1/2, -z+1/2'
'x+1/2, -y+1/2, -z'
'-x, -y, -z'
'x, y, -z-1/2'
'x, -y, z-1/2'
'-x, y, z'
'-x+1/2, -y+1/2, -z'
'x+1/2, y+1/2, -z-1/2'
'x+1/2, -y+1/2, z-1/2'
'-x+1/2, y+1/2, z'
loop_
_atom_site_label
_atom_site_type_symbol
_atom_site_fract_x
_atom_site_fract_y
_atom_site_fract_z
_atom_site_U_iso_or_equiv
_atom_site_adp_type
_atom_site_occupancy
_atom_site_site_symmetry_order
_atom_site_calc_flag
_atom_site_refinement_flags_posn
_atom_site_refinement_flags_adp
_atom_site_refinement_flags_occupancy
Cs1 Cs 0.22069(9) 0.0000 0.0000 0.0107(3) Uani 1 2 d S T P
Mg1 Mg 0.1395(5) 0.3760(8) 0.2500 0.0104(15) Uani 1 2 d S T P
Mg2 Mg 0.0000 0.6445(9) 0.1117(5) 0.0111(15) Uani 1 2 d S T P
Mg3 Mg 0.0000 0.0056(13) 0.2500 0.013(2) Uani 1 4 d S T P
Sb1 Sb 0.34128(10) 0.24896(16) 0.2500 0.0079(4) Uani 1 2 d S T P
Sb2 Sb 0.0000 0.26990(16) 0.09478(10) 0.0085(4) Uani 1 2 d S T P
loop_
_atom_site_aniso_label
_atom_site_aniso_U_11
_atom_site_aniso_U_22
_atom_site_aniso_U_33
_atom_site_aniso_U_23
_atom_site_aniso_U_13
_atom_site_aniso_U_12
Cs1 0.0125(6) 0.0093(6) 0.0105(6) 0.0002(5) 0.000 0.000
Mg1 0.012(4) 0.008(3) 0.011(4) 0.000 0.000 -0.002(3)
Mg2 0.013(4) 0.015(4) 0.005(3) -0.002(3) 0.000 0.000
Mg3 0.014(5) 0.010(5) 0.014(5) 0.000 0.000 0.000
Sb1 0.0086(7) 0.0085(7) 0.0066(7) 0.000 0.000 0.0002(5)
Sb2 0.0097(7) 0.0081(7) 0.0076(7) 0.0008(6) 0.000 0.000
loop_
_atom_type_symbol
_atom_type_description
_atom_type_scat_dispersion_real
_atom_type_scat_dispersion_imag
_atom_type_scat_source
Mg Mg 0.0486 0.0363 'International Tables Vol C Tables 4.2.6.8 and 6.1.1.4'
Sb Sb -0.5866 1.5461 'International Tables Vol C Tables 4.2.6.8 and 6.1.1.4'
Cs Cs -0.3680 2.1192 'International Tables Vol C Tables 4.2.6.8 and 6.1.1.4'
loop_
_geom_angle_atom_site_label_1
_geom_angle_atom_site_label_2
_geom_angle_atom_site_label_3
_geom_angle
_geom_angle_site_symmetry_1
_geom_angle_site_symmetry_3
Sb2 Cs1 Sb2 80.58(4) 9 .
Sb2 Cs1 Mg1 120.01(10) 9 7_545
Sb2 Cs1 Mg1 102.50(9) . 7_545
Sb2 Cs1 Mg1 102.50(9) 9 13
Sb2 Cs1 Mg1 120.01(10) . 13
Mg1 Cs1 Mg1 123.96(19) 7_545 13
Sb2 Cs1 Sb1 80.90(3) 9 13
Sb2 Cs1 Sb1 80.95(3) . 13
Mg1 Cs1 Sb1 159.05(11) 7_545 13
Mg1 Cs1 Sb1 42.30(10) 13 13
Sb2 Cs1 Sb1 80.95(3) 9 7_545
Sb2 Cs1 Sb1 80.90(3) . 7_545
Mg1 Cs1 Sb1 42.30(10) 7_545 7_545
Mg1 Cs1 Sb1 159.05(11) 13 7_545
Sb1 Cs1 Sb1 156.13(5) 13 7_545
Sb2 Cs1 Cs1 133.84(4) 9 13
Sb2 Cs1 Cs1 66.53(3) . 13
Mg1 Cs1 Cs1 98.80(10) 7_545 13
Mg1 Cs1 Cs1 70.47(9) 13 13
Sb1 Cs1 Cs1 63.256(19) 13 13
Sb1 Cs1 Cs1 121.995(18) 7_545 13
Sb2 Cs1 Cs1 66.53(3) 9 13_545
Sb2 Cs1 Cs1 133.85(4) . 13_545
Mg1 Cs1 Cs1 70.47(9) 7_545 13_545
Mg1 Cs1 Cs1 98.80(10) 13 13_545
Sb1 Cs1 Cs1 121.995(18) 13 13_545
Sb1 Cs1 Cs1 63.256(19) 7_545 13_545
Cs1 Cs1 Cs1 157.74(7) 13 13_545
Sb2 Cs1 Mg2 162.14(10) 9 5_545
Sb2 Cs1 Mg2 114.10(9) . 5_545
Mg1 Cs1 Mg2 49.06(14) 7_545 5_545
Mg1 Cs1 Mg2 79.49(13) 13 5_545
Sb1 Cs1 Mg2 110.47(10) 13 5_545
Sb1 Cs1 Mg2 91.09(10) 7_545 5_545
Cs1 Cs1 Mg2 63.77(10) 13 5_545
Cs1 Cs1 Mg2 95.61(10) 13_545 5_545
Sb2 Cs1 Mg2 114.10(9) 9 13
Sb2 Cs1 Mg2 162.14(10) . 13
Mg1 Cs1 Mg2 79.49(13) 7_545 13
Mg1 Cs1 Mg2 49.06(14) 13 13
Sb1 Cs1 Mg2 91.09(10) 13 13
Sb1 Cs1 Mg2 110.47(10) 7_545 13
Cs1 Cs1 Mg2 95.61(10) 13 13
Cs1 Cs1 Mg2 63.77(10) 13_545 13
Mg2 Cs1 Mg2 53.84(17) 5_545 13
Sb2 Cs1 Sb1 144.55(3) 9 .
Sb2 Cs1 Sb1 76.51(3) . .
Mg1 Cs1 Sb1 42.47(10) 7_545 .
Mg1 Cs1 Sb1 112.30(9) 13 .
Sb1 Cs1 Sb1 121.003(16) 13 .
Sb1 Cs1 Sb1 69.06(2) 7_545 .
Cs1 Cs1 Sb1 57.75(2) 13 .
Cs1 Cs1 Sb1 112.74(3) 13_545 .
Mg2 Cs1 Sb1 40.94(9) 5_545 .
Mg2 Cs1 Sb1 94.34(9) 13 .
Sb2 Cs1 Sb1 76.51(3) 9 11
Sb2 Cs1 Sb1 144.55(3) . 11
Mg1 Cs1 Sb1 112.31(9) 7_545 11
Mg1 Cs1 Sb1 42.47(10) 13 11
Sb1 Cs1 Sb1 69.06(2) 13 11
Sb1 Cs1 Sb1 121.002(16) 7_545 11
Cs1 Cs1 Sb1 112.74(3) 13 11
Cs1 Cs1 Sb1 57.75(2) 13_545 11
Mg2 Cs1 Sb1 94.34(9) 5_545 11
Mg2 Cs1 Sb1 40.94(9) 13 11
Sb1 Cs1 Sb1 135.20(5) . 11
Sb1 Mg1 Sb2 119.67(17) . .
Sb1 Mg1 Sb2 119.67(17) . 10_556
Sb2 Mg1 Sb2 91.2(2) . 10_556
Sb1 Mg1 Sb1 105.6(2) . 7
Sb2 Mg1 Sb1 110.03(18) . 7
Sb2 Mg1 Sb1 110.03(18) 10_556 7
Sb1 Mg1 Mg2 137.36(17) . 10_556
Sb2 Mg1 Mg2 103.0(2) . 10_556
Sb2 Mg1 Mg2 55.92(14) 10_556 10_556
Sb1 Mg1 Mg2 54.52(15) 7 10_556
Sb1 Mg1 Mg2 137.36(17) . .
Sb2 Mg1 Mg2 55.92(14) . .
Sb2 Mg1 Mg2 103.0(2) 10_556 .
Sb1 Mg1 Mg2 54.52(15) 7 .
Mg2 Mg1 Mg2 66.6(3) 10_556 .
Sb1 Mg1 Mg3 101.7(2) . .
Sb2 Mg1 Mg3 54.24(12) . .
Sb2 Mg1 Mg3 54.24(12) 10_556 .
Sb1 Mg1 Mg3 152.7(3) 7 .
Mg2 Mg1 Mg3 103.8(2) 10_556 .
Mg2 Mg1 Mg3 103.8(2) . .
Sb1 Mg1 Mg1 159.43(14) . 3
Sb2 Mg1 Mg1 50.43(12) . 3
Sb2 Mg1 Mg1 50.43(12) 10_556 3
Sb1 Mg1 Mg1 94.94(14) 7 3
Mg2 Mg1 Mg1 56.69(13) 10_556 3
Mg2 Mg1 Mg1 56.69(13) . 3
Mg3 Mg1 Mg1 57.71(15) . 3
Sb1 Mg1 Cs1 69.35(11) . 6
Sb2 Mg1 Cs1 167.54(19) . 6
Sb2 Mg1 Cs1 76.44(3) 10_556 6
Sb1 Mg1 Cs1 73.27(11) 7 6
Mg2 Mg1 Cs1 68.69(10) 10_556 6
Mg2 Mg1 Cs1 124.5(2) . 6
Mg3 Mg1 Cs1 117.44(10) . 6
Mg1 Mg1 Cs1 118.02(9) 3 6
Sb1 Mg1 Cs1 69.35(11) . 13
Sb2 Mg1 Cs1 76.44(3) . 13
Sb2 Mg1 Cs1 167.54(19) 10_556 13
Sb1 Mg1 Cs1 73.27(11) 7 13
Mg2 Mg1 Cs1 124.5(2) 10_556 13
Mg2 Mg1 Cs1 68.69(10) . 13
Mg3 Mg1 Cs1 117.44(10) . 13
Mg1 Mg1 Cs1 118.02(9) 3 13
Cs1 Mg1 Cs1 115.80(17) 6 13
Sb1 Mg1 Cs1 63.51(10) . 10_556
Sb2 Mg1 Cs1 118.81(19) . 10_556
Sb2 Mg1 Cs1 56.16(8) 10_556 10_556
Sb1 Mg1 Cs1 128.56(10) 7 10_556
Mg2 Mg1 Cs1 97.85(12) 10_556 10_556
Mg2 Mg1 Cs1 159.13(19) . 10_556
Mg3 Mg1 Cs1 65.10(10) . 10_556
Mg1 Mg1 Cs1 103.53(9) 3 10_556
Cs1 Mg1 Cs1 55.59(5) 6 10_556
Cs1 Mg1 Cs1 131.76(17) 13 10_556
Sb1 Mg1 Cs1 63.51(10) . .
Sb2 Mg1 Cs1 56.16(8) . .
Sb2 Mg1 Cs1 118.81(19) 10_556 .
Sb1 Mg1 Cs1 128.56(10) 7 .
Mg2 Mg1 Cs1 159.13(19) 10_556 .
Mg2 Mg1 Cs1 97.85(12) . .
Mg3 Mg1 Cs1 65.10(10) . .
Mg1 Mg1 Cs1 103.53(9) 3 .
Cs1 Mg1 Cs1 131.76(17) 6 .
Cs1 Mg1 Cs1 55.59(5) 13 .
Cs1 Mg1 Cs1 93.22(12) 10_556 .
Sb2 Mg2 Sb1 123.21(16) 9_565 7
Sb2 Mg2 Sb1 123.21(16) 9_565 5_455
Sb1 Mg2 Sb1 92.2(2) 7 5_455
Sb2 Mg2 Sb2 99.4(2) 9_565 .
Sb1 Mg2 Sb2 109.27(18) 7 .
Sb1 Mg2 Sb2 109.27(18) 5_455 .
Sb2 Mg2 Mg1 133.08(18) 9_565 .
Sb1 Mg2 Mg1 55.58(14) 7 .
Sb1 Mg2 Mg1 103.1(2) 5_455 .
Sb2 Mg2 Mg1 54.10(15) . .
Sb2 Mg2 Mg1 133.08(18) 9_565 3
Sb1 Mg2 Mg1 103.1(2) 7 3
Sb1 Mg2 Mg1 55.58(14) 5_455 3
Sb2 Mg2 Mg1 54.10(15) . 3
Mg1 Mg2 Mg1 66.6(3) . 3
Sb2 Mg2 Mg3 109.2(2) 9_565 1_565
Sb1 Mg2 Mg3 54.45(12) 7 1_565
Sb1 Mg2 Mg3 54.45(12) 5_455 1_565
Sb2 Mg2 Mg3 151.4(3) . 1_565
Mg1 Mg2 Mg3 103.3(2) . 1_565
Mg1 Mg2 Mg3 103.3(2) 3 1_565
Sb2 Mg2 Mg2 166.24(14) 9_565 10_556
Sb1 Mg2 Mg2 50.72(11) 7 10_556
Sb1 Mg2 Mg2 50.72(11) 5_455 10_556
Sb2 Mg2 Mg2 94.38(14) . 10_556
Mg1 Mg2 Mg2 56.70(13) . 10_556
Mg1 Mg2 Mg2 56.70(13) 3 10_556
Mg3 Mg2 Mg2 57.06(15) 1_565 10_556
Sb2 Mg2 Cs1 73.50(10) 9_565 5_455
Sb1 Mg2 Cs1 161.44(19) 7 5_455
Sb1 Mg2 Cs1 70.30(3) 5_455 5_455
Sb2 Mg2 Cs1 72.44(10) . 5_455
Mg1 Mg2 Cs1 120.9(2) . 5_455
Mg1 Mg2 Cs1 62.26(10) 3 5_455
Mg3 Mg2 Cs1 115.24(9) 1_565 5_455
Mg2 Mg2 Cs1 111.08(9) 10_556 5_455
Sb2 Mg2 Cs1 73.50(10) 9_565 13
Sb1 Mg2 Cs1 70.30(3) 7 13
Sb1 Mg2 Cs1 161.44(19) 5_455 13
Sb2 Mg2 Cs1 72.44(10) . 13
Mg1 Mg2 Cs1 62.26(10) . 13
Mg1 Mg2 Cs1 120.9(2) 3 13
Mg3 Mg2 Cs1 115.24(9) 1_565 13
Mg2 Mg2 Cs1 111.08(9) 10_556 13
Cs1 Mg2 Cs1 126.16(17) 5_455 13
Sb2 Mg2 Cs1 60.64(10) 9_565 1_565
Sb1 Mg2 Cs1 63.08(8) 7 1_565
Sb1 Mg2 Cs1 121.5(2) 5_455 1_565
Sb2 Mg2 Cs1 128.43(12) . 1_565
Mg1 Mg2 Cs1 103.14(12) . 1_565
Mg1 Mg2 Cs1 166.16(19) 3 1_565
Mg3 Mg2 Cs1 69.06(12) 1_565 1_565
Mg2 Mg2 Cs1 110.22(9) 10_556 1_565
Cs1 Mg2 Cs1 131.14(17) 5_455 1_565
Cs1 Mg2 Cs1 56.69(4) 13 1_565
Sb2 Mg2 Cs1 60.64(10) 9_565 9_565
Sb1 Mg2 Cs1 121.5(2) 7 9_565
Sb1 Mg2 Cs1 63.08(8) 5_455 9_565
Sb2 Mg2 Cs1 128.43(12) . 9_565
Mg1 Mg2 Cs1 166.16(19) . 9_565
Mg1 Mg2 Cs1 103.14(12) 3 9_565
Mg3 Mg2 Cs1 69.06(12) 1_565 9_565
Mg2 Mg2 Cs1 110.22(9) 10_556 9_565
Cs1 Mg2 Cs1 56.69(4) 5_455 9_565
Cs1 Mg2 Cs1 131.14(17) 13 9_565
Cs1 Mg2 Cs1 85.21(13) 1_565 9_565
Sb1 Mg3 Sb1 92.1(3) 5_445 7_545
Sb1 Mg3 Sb2 119.48(2) 5_445 10_556
Sb1 Mg3 Sb2 119.48(2) 7_545 10_556
Sb1 Mg3 Sb2 119.48(2) 5_445 .
Sb1 Mg3 Sb2 119.48(2) 7_545 .
Sb2 Mg3 Sb2 89.6(3) 10_556 .
Sb1 Mg3 Mg2 54.39(16) 5_445 1_545
Sb1 Mg3 Mg2 54.39(16) 7_545 1_545
Sb2 Mg3 Mg2 168.1(3) 10_556 1_545
Sb2 Mg3 Mg2 102.24(13) . 1_545
Sb1 Mg3 Mg2 54.39(16) 5_445 10_546
Sb1 Mg3 Mg2 54.39(16) 7_545 10_546
Sb2 Mg3 Mg2 102.24(13) 10_556 10_546
Sb2 Mg3 Mg2 168.1(3) . 10_546
Mg2 Mg3 Mg2 65.9(3) 1_545 10_546
Sb1 Mg3 Mg1 166.2(3) 5_445 .
Sb1 Mg3 Mg1 101.65(13) 7_545 .
Sb2 Mg3 Mg1 53.16(16) 10_556 .
Sb2 Mg3 Mg1 53.16(16) . .
Mg2 Mg3 Mg1 135.19(11) 1_545 .
Mg2 Mg3 Mg1 135.19(11) 10_546 .
Sb1 Mg3 Mg1 101.65(13) 5_445 3
Sb1 Mg3 Mg1 166.2(3) 7_545 3
Sb2 Mg3 Mg1 53.16(16) 10_556 3
Sb2 Mg3 Mg1 53.16(16) . 3
Mg2 Mg3 Mg1 135.19(11) 1_545 3
Mg2 Mg3 Mg1 135.19(11) 10_546 3
Mg1 Mg3 Mg1 64.6(3) . 3
Sb1 Mg3 Cs1 61.24(3) 5_445 9
Sb1 Mg3 Cs1 117.86(18) 7_545 9
Sb2 Mg3 Cs1 122.5(2) 10_556 9
Sb2 Mg3 Cs1 58.45(3) . 9
Mg2 Mg3 Cs1 65.32(10) 1_545 9
Mg2 Mg3 Cs1 113.6(2) 10_546 9
Mg1 Mg3 Cs1 111.12(18) . 9
Mg1 Mg3 Cs1 69.91(10) 3 9
Sb1 Mg3 Cs1 117.86(18) 5_445 10_556
Sb1 Mg3 Cs1 61.24(3) 7_545 10_556
Sb2 Mg3 Cs1 58.45(3) 10_556 10_556
Sb2 Mg3 Cs1 122.5(2) . 10_556
Mg2 Mg3 Cs1 113.6(2) 1_545 10_556
Mg2 Mg3 Cs1 65.32(10) 10_546 10_556
Mg1 Mg3 Cs1 69.91(10) . 10_556
Mg1 Mg3 Cs1 111.12(18) 3 10_556
Cs1 Mg3 Cs1 178.9(3) 9 10_556
Sb1 Mg3 Cs1 61.24(3) 5_445 2
Sb1 Mg3 Cs1 117.86(18) 7_545 2
Sb2 Mg3 Cs1 58.45(3) 10_556 2
Sb2 Mg3 Cs1 122.5(2) . 2
Mg2 Mg3 Cs1 113.6(2) 1_545 2
Mg2 Mg3 Cs1 65.32(10) 10_546 2
Mg1 Mg3 Cs1 111.12(18) . 2
Mg1 Mg3 Cs1 69.91(10) 3 2
Cs1 Mg3 Cs1 97.60(3) 9 2
Cs1 Mg3 Cs1 82.39(3) 10_556 2
Sb1 Mg3 Cs1 117.86(18) 5_445 .
Sb1 Mg3 Cs1 61.24(3) 7_545 .
Sb2 Mg3 Cs1 122.5(2) 10_556 .
Sb2 Mg3 Cs1 58.45(3) . .
Mg2 Mg3 Cs1 65.32(10) 1_545 .
Mg2 Mg3 Cs1 113.6(2) 10_546 .
Mg1 Mg3 Cs1 69.91(10) . .
Mg1 Mg3 Cs1 111.12(18) 3 .
Cs1 Mg3 Cs1 82.39(3) 9 .
Cs1 Mg3 Cs1 97.60(3) 10_556 .
Cs1 Mg3 Cs1 178.9(3) 2 .
Mg1 Sb1 Mg2 140.71(11) . 14_546
Mg1 Sb1 Mg2 140.71(11) . 5_545
Mg2 Sb1 Mg2 78.6(2) 14_546 5_545
Mg1 Sb1 Mg3 115.5(2) . 5
Mg2 Sb1 Mg3 71.16(16) 14_546 5
Mg2 Sb1 Mg3 71.16(16) 5_545 5
Mg1 Sb1 Mg1 115.51(17) . 7_545
Mg2 Sb1 Mg1 69.90(17) 14_546 7_545
Mg2 Sb1 Mg1 69.90(17) 5_545 7_545
Mg3 Sb1 Mg1 129.0(2) 5 7_545
Mg1 Sb1 Cs1 68.34(6) . 6
Mg2 Sb1 Cs1 75.96(13) 14_546 6
Mg2 Sb1 Cs1 145.36(11) 5_545 6
Mg3 Sb1 Cs1 78.61(8) 5 6
Mg1 Sb1 Cs1 121.02(3) 7_545 6
Mg1 Sb1 Cs1 68.34(6) . 13
Mg2 Sb1 Cs1 145.36(11) 14_546 13
Mg2 Sb1 Cs1 75.96(13) 5_545 13
Mg3 Sb1 Cs1 78.61(8) 5 13
Mg1 Sb1 Cs1 121.02(3) 7_545 13
Cs1 Sb1 Cs1 114.57(4) 6 13
Mg1 Sb1 Cs1 78.93(8) . .
Mg2 Sb1 Cs1 130.28(14) 14_546 .
Mg2 Sb1 Cs1 68.76(10) 5_545 .
Mg3 Sb1 Cs1 126.86(2) 5 .
Mg1 Sb1 Cs1 64.26(7) 7_545 .
Cs1 Sb1 Cs1 145.66(4) 6 .
Cs1 Sb1 Cs1 58.998(15) 13 .
Mg1 Sb1 Cs1 78.93(8) . 10_556
Mg2 Sb1 Cs1 68.76(10) 14_546 10_556
Mg2 Sb1 Cs1 130.28(14) 5_545 10_556
Mg3 Sb1 Cs1 126.86(2) 5 10_556
Mg1 Sb1 Cs1 64.26(7) 7_545 10_556
Cs1 Sb1 Cs1 58.998(16) 6 10_556
Cs1 Sb1 Cs1 145.66(4) 13 10_556
Cs1 Sb1 Cs1 105.65(4) . 10_556
Mg2 Sb2 Mg1 128.72(13) 9_565 .
Mg2 Sb2 Mg1 128.72(13) 9_565 3
Mg1 Sb2 Mg1 79.1(2) . 3
Mg2 Sb2 Mg3 148.6(2) 9_565 .
Mg1 Sb2 Mg3 72.60(16) . .
Mg1 Sb2 Mg3 72.60(16) 3 .
Mg2 Sb2 Mg2 80.6(2) 9_565 .
Mg1 Sb2 Mg2 69.97(17) . .
Mg1 Sb2 Mg2 69.97(17) 3 .
Mg3 Sb2 Mg2 130.8(2) . .
Mg2 Sb2 Cs1 79.13(9) 9_565 9
Mg1 Sb2 Cs1 151.95(11) . 9
Mg1 Sb2 Cs1 84.88(13) 3 9
Mg3 Sb2 Cs1 80.71(9) . 9
Mg2 Sb2 Cs1 125.42(5) . 9
Mg2 Sb2 Cs1 79.13(9) 9_565 .
Mg1 Sb2 Cs1 84.88(13) . .
Mg1 Sb2 Cs1 151.95(11) 3 .
Mg3 Sb2 Cs1 80.71(9) . .
Mg2 Sb2 Cs1 125.42(5) . .
Cs1 Sb2 Cs1 99.41(4) 9 .
Mg2 Sb2 Cs1 67.33(6) 9_565 13
Mg1 Sb2 Cs1 62.72(10) . 13
Mg1 Sb2 Cs1 129.41(14) 3 13
Mg3 Sb2 Cs1 120.39(2) . 13
Mg2 Sb2 Cs1 66.57(5) . 13
Cs1 Sb2 Cs1 142.34(4) 9 13
Cs1 Sb2 Cs1 58.849(16) . 13
Mg2 Sb2 Cs1 67.33(6) 9_565 5_455
Mg1 Sb2 Cs1 129.41(14) . 5_455
Mg1 Sb2 Cs1 62.72(10) 3 5_455
Mg3 Sb2 Cs1 120.39(2) . 5_455
Mg2 Sb2 Cs1 66.57(5) . 5_455
Cs1 Sb2 Cs1 58.849(15) 9 5_455
Cs1 Sb2 Cs1 142.35(4) . 5_455
Cs1 Sb2 Cs1 118.20(4) 13 5_455
loop_
_geom_bond_atom_site_label_1
_geom_bond_atom_site_label_2
_geom_bond_distance
_geom_bond_site_symmetry_2
Cs1 Sb2 3.7973(13) 9
Cs1 Sb2 3.7973(13) .
Cs1 Mg1 3.906(4) 7_545
Cs1 Mg1 3.906(4) 13
Cs1 Sb1 3.9326(10) 13
Cs1 Sb1 3.9326(10) 7_545
Cs1 Cs1 3.9858(9) 13
Cs1 Cs1 3.9858(9) 13_545
Cs1 Mg2 4.111(3) 5_545
Cs1 Mg2 4.111(3) 13
Cs1 Sb1 4.1526(11) .
Cs1 Sb1 4.1526(11) 11
Mg1 Sb1 2.828(7) .
Mg1 Sb2 2.874(5) .
Mg1 Sb2 2.874(5) 10_556
Mg1 Sb1 2.928(7) 7
Mg1 Mg2 3.333(8) 10_556
Mg1 Mg2 3.333(8) .
Mg1 Mg3 3.427(11) .
Mg1 Mg1 3.662(14) 3
Mg1 Cs1 3.906(4) 6
Mg1 Cs1 3.906(4) 13
Mg1 Cs1 4.553(5) 10_556
Mg2 Sb2 2.814(7) 9_565
Mg2 Sb1 2.891(5) 7
Mg2 Sb1 2.891(5) 5_455
Mg2 Sb2 2.939(7) .
Mg2 Mg1 3.334(8) 3
Mg2 Mg3 3.365(11) 1_565
Mg2 Mg2 3.660(14) 10_556
Mg2 Cs1 4.111(3) 5_455
Mg2 Cs1 4.111(3) 13
Mg2 Cs1 4.279(5) 1_565
Mg2 Cs1 4.279(5) 9_565
Mg3 Sb1 2.893(7) 5_445
Mg3 Sb1 2.893(7) 7_545
Mg3 Sb2 2.914(7) 10_556
Mg3 Sb2 2.914(7) .
Mg3 Mg2 3.365(11) 1_545
Mg3 Mg2 3.365(11) 10_546
Mg3 Mg1 3.427(11) 3
Mg3 Cs1 4.3976(10) 9
Mg3 Cs1 4.3976(10) 10_556
Mg3 Cs1 4.3976(10) 2
Sb1 Mg2 2.891(5) 14_546
Sb1 Mg2 2.891(5) 5_545
Sb1 Mg3 2.893(7) 5
Sb1 Mg1 2.928(7) 7_545
Sb1 Cs1 3.9326(10) 6
Sb1 Cs1 3.9326(10) 13
Sb1 Cs1 4.1526(11) 10_556
Sb2 Mg2 2.814(7) 9_565
Sb2 Mg1 2.874(5) 3
Sb2 Cs1 3.7973(13) 9
Sb2 Cs1 4.2720(14) 13
Sb2 Cs1 4.2720(14) 5_455
