#------------------------------------------------------------------------------
#$Date: 2019-11-24 10:19:34 +0200 (Sun, 24 Nov 2019) $
#$Revision: 237614 $
#$URL: file:///home/coder/svn-repositories/cod/cif/7/23/73/7237339.cif $
#------------------------------------------------------------------------------
#
# This file is available in the Crystallography Open Database (COD),
# http://www.crystallography.net/
#
# All data on this site have been placed in the public domain by the
# contributors.
#
data_7237339
loop_
_publ_author_name
'Genevaz, Nicolas'
'Ch\'avez, Patricia'
'Untilova, Viktoriia'
'Boeglin, Alex'
'Bailly, Corinne'
'Karmazin, Lydia'
'Biniek, Laure'
_publ_section_title
;
 Tuning crystallochromism in
 diketopyrrolopyrrole-co-thieno[3,2-b]thiophene derivatives by the
 architecture of their alkyl side chains
;
_journal_issue                   34
_journal_name_full               'Journal of Materials Chemistry C'
_journal_page_first              9140
_journal_paper_doi               10.1039/C8TC02022A
_journal_volume                  6
_journal_year                    2018
_chemical_formula_moiety         'C30 H32 N2 O2 S4'
_chemical_formula_sum            'C30 H32 N2 O2 S4'
_chemical_formula_weight         580.81
_space_group_crystal_system      triclinic
_space_group_IT_number           2
_space_group_name_Hall           '-P 1'
_space_group_name_H-M_alt        'P -1'
_atom_sites_solution_hydrogens   geom
_audit_creation_method           SHELXL-2013
_audit_update_record
;
2018-04-26 deposited with the CCDC.
2018-07-31 downloaded from the CCDC.
;
_cell_angle_alpha                106.954(5)
_cell_angle_beta                 94.112(4)
_cell_angle_gamma                97.995(5)
_cell_formula_units_Z            1
_cell_length_a                   4.8832(3)
_cell_length_b                   10.2613(6)
_cell_length_c                   14.1880(9)
_cell_measurement_reflns_used    1798
_cell_measurement_temperature    173(2)
_cell_measurement_theta_max      66.55
_cell_measurement_theta_min      4.57
_cell_volume                     668.68(7)
_computing_cell_refinement       'Bruker SAINT'
_computing_data_collection       'Bruker APEX2'
_computing_data_reduction        'Bruker SAINT'
_computing_molecular_graphics    'Mercury (Macrae et al., 2008)'
_computing_publication_material  'SHELXL-2013 (Sheldrick, 2013)'
_computing_structure_refinement  'SHELXL-2013 (Sheldrick, 2013)'
_computing_structure_solution    'SHELXS-2013 (Sheldrick, 2013)'
_diffrn_ambient_temperature      173(2)
_diffrn_measured_fraction_theta_full 0.968
_diffrn_measured_fraction_theta_max 0.979
_diffrn_measurement_device_type  'Bruker APEX-II CCD'
_diffrn_measurement_method       '\f and \w scans'
_diffrn_radiation_monochromator  mirror
_diffrn_radiation_type           CuK\a
_diffrn_radiation_wavelength     1.54178
_diffrn_reflns_av_R_equivalents  0.0806
_diffrn_reflns_av_unetI/netI     0.0771
_diffrn_reflns_Laue_measured_fraction_full 0.968
_diffrn_reflns_Laue_measured_fraction_max 0.979
_diffrn_reflns_limit_h_max       5
_diffrn_reflns_limit_h_min       -5
_diffrn_reflns_limit_k_max       12
_diffrn_reflns_limit_k_min       -12
_diffrn_reflns_limit_l_max       16
_diffrn_reflns_limit_l_min       -16
_diffrn_reflns_number            8272
_diffrn_reflns_point_group_measured_fraction_full 0.968
_diffrn_reflns_point_group_measured_fraction_max 0.979
_diffrn_reflns_theta_full        67.679
_diffrn_reflns_theta_max         66.896
_diffrn_reflns_theta_min         3.279
_diffrn_source                   'Cu-ImuS microfocus tube'
_exptl_absorpt_coefficient_mu    3.522
_exptl_absorpt_correction_T_max  0.7528
_exptl_absorpt_correction_T_min  0.5499
_exptl_absorpt_correction_type   multi-scan
_exptl_absorpt_process_details   sadabs
_exptl_crystal_colour            red
_exptl_crystal_density_diffrn    1.442
_exptl_crystal_description       plate
_exptl_crystal_F_000             306
_exptl_crystal_size_max          0.240
_exptl_crystal_size_mid          0.100
_exptl_crystal_size_min          0.060
_refine_diff_density_max         0.349
_refine_diff_density_min         -0.335
_refine_diff_density_rms         0.074
_refine_ls_extinction_method     none
_refine_ls_goodness_of_fit_ref   1.059
_refine_ls_hydrogen_treatment    constr
_refine_ls_matrix_type           full
_refine_ls_number_parameters     173
_refine_ls_number_reflns         2326
_refine_ls_number_restraints     0
_refine_ls_restrained_S_all      1.059
_refine_ls_R_factor_all          0.0825
_refine_ls_R_factor_gt           0.0533
_refine_ls_shift/su_max          0.000
_refine_ls_shift/su_mean         0.000
_refine_ls_structure_factor_coef Fsqd
_refine_ls_weighting_details
'w=1/[\s^2^(Fo^2^)+(0.0662P)^2^] where P=(Fo^2^+2Fc^2^)/3'
_refine_ls_weighting_scheme      calc
_refine_ls_wR_factor_gt          0.1245
_refine_ls_wR_factor_ref         0.1382
_reflns_Friedel_coverage         0.000
_reflns_number_gt                1616
_reflns_number_total             2326
_reflns_threshold_expression     'I > 2\s(I)'
_cod_data_source_file            c8tc02022a2.cif
_cod_data_source_block           cgng160906
_cod_database_code               7237339
_shelx_space_group_comment
;
The symmetry employed for this shelxl refinement is uniquely defined
by the following loop, which should always be used as a source of
symmetry information in preference to the above space-group names.
They are only intended as comments.
;
_shelx_estimated_absorpt_t_min   0.485
_shelx_estimated_absorpt_t_max   0.816
_shelxl_version_number           2013-4
_shelx_res_file
;
TITL cu_cgng160906_0m in P-1
CELL  1.54178   4.8832  10.2613  14.1880  106.954   94.112   97.995
ZERR     1.00   0.0003   0.0006   0.0009    0.005    0.004    0.005
LATT   1
SFAC  C    H    N    O    S
UNIT  30   32   2    2    4
MERG   2
FMAP   2
PLAN   10
SIZE     0.060   0.100   0.240
ACTA
BOND   $H
CONF
L.S.   8
TEMP  -100.00
WGHT    0.066200
FVAR       0.18731
C1    1    0.526295    0.621512    0.930766    11.00000    0.02172    0.03196 =
         0.02695    0.00793   -0.00184    0.00362
C2    1    0.560552    0.439672    0.994111    11.00000    0.02378    0.02315 =
         0.02933    0.00596   -0.00256    0.00301
C3    1    0.719847    0.422764    0.915819    11.00000    0.02016    0.02965 =
         0.02612    0.00845   -0.00392   -0.00081
C4    1    0.875976    0.312816    0.879572    11.00000    0.02504    0.02867 =
         0.02802    0.00736   -0.00102    0.00553
C5    1    0.903458    0.213630    0.925921    11.00000    0.02493    0.03496 =
         0.02995    0.00872    0.00456    0.00670
AFIX  43
H5    2    0.823067    0.211111    0.984519    11.00000   -1.20000
AFIX   0
C6    1    1.063245    0.116864    0.876974    11.00000    0.02796    0.03095 =
         0.03219    0.01092    0.00012    0.00459
C7    1    1.159653    0.139868    0.791871    11.00000    0.02678    0.03314 =
         0.03005    0.00896    0.00046    0.00636
C8    1    1.324309    0.042438    0.744446    11.00000    0.03158    0.04486 =
         0.03586    0.00951    0.00943    0.01289
AFIX  43
H8    2    1.405616    0.042320    0.685572    11.00000   -1.20000
AFIX   0
C9    1    1.350500   -0.050285    0.793953    11.00000    0.03403    0.03718 =
         0.04261    0.00652    0.00211    0.01274
AFIX  43
H9    2    1.453859   -0.123392    0.773050    11.00000   -1.20000
AFIX   0
C10   1    0.835123    0.567881    0.797952    11.00000    0.02880    0.03177 =
         0.03540    0.01728    0.00423    0.00613
AFIX  23
H10A  2    1.019441    0.538030    0.795539    11.00000   -1.20000
H10B  2    0.866085    0.669492    0.812073    11.00000   -1.20000
AFIX   0
C11   1    0.663578    0.501063    0.696785    11.00000    0.02976    0.03895 =
         0.03237    0.01244   -0.00090    0.00878
AFIX  23
H11A  2    0.472038    0.521890    0.700910    11.00000   -1.20000
H11B  2    0.651878    0.399517    0.678576    11.00000   -1.20000
AFIX   0
C12   1    0.789905    0.552551    0.616159    11.00000    0.03361    0.04204 =
         0.03434    0.01462    0.00354    0.00956
AFIX  23
H12A  2    0.994393    0.557558    0.625506    11.00000   -1.20000
H12B  2    0.718432    0.484464    0.550682    11.00000   -1.20000
AFIX   0
C13   1    0.727010    0.693272    0.615503    11.00000    0.03039    0.04550 =
         0.03534    0.01773    0.00483    0.00847
AFIX  23
H13A  2    0.811324    0.762725    0.679018    11.00000   -1.20000
H13B  2    0.522897    0.690347    0.611415    11.00000   -1.20000
AFIX   0
C14   1    0.834484    0.739654    0.530253    11.00000    0.03267    0.04985 =
         0.04085    0.02327    0.00630    0.00682
AFIX  23
H14A  2    1.040566    0.759024    0.540920    11.00000   -1.20000
H14B  2    0.777712    0.663260    0.467559    11.00000   -1.20000
AFIX   0
C15   1    0.728316    0.867010    0.519789    11.00000    0.05248    0.05814 =
         0.05624    0.03323    0.00830    0.00917
AFIX 137
H15A  2    0.524286    0.848809    0.509360    11.00000   -1.50000
H15B  2    0.800166    0.890233    0.462919    11.00000   -1.50000
H15C  2    0.791728    0.944477    0.580310    11.00000   -1.50000
AFIX   0
N1    3    0.703383    0.533205    0.878816    11.00000    0.02598    0.03174 =
         0.02691    0.01148    0.00269    0.00581
O1    4    0.475544    0.722227    0.907039    11.00000    0.03355    0.03286 =
         0.03607    0.01739    0.00340    0.01096
S1    5    1.048432    0.283193    0.772407    11.00000    0.03437    0.03946 =
         0.03408    0.01493    0.00814    0.01419
S2    5    1.180450   -0.024259    0.897960    11.00000    0.04103    0.03659 =
         0.04491    0.01610    0.00917    0.01588
HKLF    4  1.0  1.00  0.00  0.00  0.00  1.00  0.00  0.00  0.00  1.00

REM  cu_cgng160906_0m in P-1
REM R1 =  0.0533 for    1616 Fo > 4sig(Fo)  and  0.0825 for all    2326 data
REM    173 parameters refined using      0 restraints

END

WGHT      0.0662      0.0000

REM Highest difference peak  0.349,  deepest hole -0.335,  1-sigma level  0.074
Q1    1   0.9159  0.2912  0.7249  11.00000  0.05    0.35
Q2    1   1.2223  0.2701  0.8230  11.00000  0.05    0.32
Q3    1   1.5003 -0.1677  0.7375  11.00000  0.05    0.32
Q4    1   1.0026 -0.0180  0.8440  11.00000  0.05    0.31
Q5    1   1.1506  0.1523  0.8474  11.00000  0.05    0.30
Q6    1   0.9503 -0.0841  0.8831  11.00000  0.05    0.29
Q7    1   1.3508 -0.0291  0.9497  11.00000  0.05    0.27
Q8    1   1.0679  0.0921  0.8213  11.00000  0.05    0.26
Q9    1   1.2646  0.3580  0.7788  11.00000  0.05    0.25
Q10   1   0.3535  0.5498  0.7761  11.00000  0.05    0.25
;
_shelx_res_checksum              97738
_shelx_hkl_file
;
  -1   0   0   16.70    1.19
  -1   0   0   18.83    1.18
  -1   0   0   18.42    1.18
  -2   0   0    7.34    0.58
  -2   0   0    7.41    0.87
  -2   0   0    7.09    0.63
  -3   0   0    6.48    1.02
  -3   0   0    5.65    0.51
  -3   0   0    5.38    0.63
  -4   0   0    0.48    0.49
  -4   0   0    0.73    1.04
  -4   0   0    0.62    0.76
  -4   0   0    1.20    0.60
  -4   0   0    0.98    0.64
  -4   0   0    0.28    0.42
  -5   0   0    0.36    0.47
  -5   0   0    0.32    0.36
  -5   0   0    0.78    0.14
  -5   0   0    0.82    0.14
  -5   1   0    7.39    0.76
  -5   1   0    8.27    0.96
  -5   1   0    7.46    0.58
  -5   1   0    6.51    0.58
  -4   1   0    0.41    0.52
  -4   1   0   -0.16    1.03
  -4   1   0    0.21    0.65
  -4   1   0    0.36    0.42
  -4   1   0    0.56    0.65
  -3   1   0    3.78    0.77
  -3   1   0    3.27    0.38
  -3   1   0    4.03    0.49
  -2   1   0    1.51    0.28
  -2   1   0    1.88    0.43
  -2   1   0    1.78    0.26
  -1   1   0   95.79    6.10
  -1   1   0   96.64    6.11
  -1   1   0   96.03    6.10
  -1   1   0   90.24    6.13
  -1   1   0   96.93    6.12
   0  -1   0    9.96    0.65
  -1  -1   0    1.37    0.17
  -1  -1   0    1.56    0.18
  -2  -1   0   17.61    1.20
  -2  -1   0   17.39    1.41
  -3  -1   0    1.04    0.42
  -3  -1   0    1.05    0.21
  -3  -1   0    1.08    0.27
  -3  -1   0    2.05    0.76
  -4  -1   0   10.56    1.09
  -4  -1   0    9.42    1.28
  -4  -1   0   10.51    0.93
  -4  -1   0   10.42    1.38
  -5  -1   0   -0.78    0.95
  -5  -1   0   -0.35    0.40
  -5  -1   0    0.13    0.30
  -5   2   0    0.83    0.49
  -5   2   0    1.74    0.66
  -5   2   0    1.35    0.32
  -5   2   0    1.60    0.33
  -4   2   0    0.43    0.20
  -4   2   0    0.10    0.73
  -4   2   0   -0.15    0.96
  -4   2   0    1.19    0.57
  -4   2   0   -0.23    0.38
  -4   2   0    0.22    0.22
  -3   2   0    0.70    0.64
  -3   2   0    0.38    0.23
  -3   2   0    0.43    0.28
  -2   2   0   93.72    6.68
  -2   2   0  105.16    6.51
  -2   2   0  104.47    6.58
  -2   2   0   99.89    6.55
  -2   2   0  104.86    6.51
   1  -2   0   38.97    2.53
  -1   2   0   36.73    2.55
  -1   2   0   40.50    2.54
  -1   2   0   40.11    2.53
   0  -2   0   13.86    0.90
   0  -2   0   12.04    0.86
   0   2   0   12.20    0.86
  -1  -2   0   29.21    1.90
  -2  -2   0   41.76    2.73
  -3  -2   0   -0.15    0.38
  -3  -2   0    0.38    0.45
  -3  -2   0    0.05    0.62
  -3  -2   0   -0.03    0.54
  -3  -2   0    0.13    0.26
  -4  -2   0    1.49    0.63
  -4  -2   0    0.63    0.84
  -4  -2   0    1.65    0.43
  -4  -2   0    1.62    0.34
  -5  -2   0    1.11    0.28
  -5  -2   0    1.05    0.31
  -5  -2   0    0.73    0.86
  -5  -2   0    0.63    0.36
  -5   3   0   -0.29    0.52
  -5   3   0    0.19    0.70
  -5   3   0   -0.30    0.32
  -4   3   0    1.09    0.62
  -4   3   0   -0.06    0.31
  -4   3   0    0.15    0.39
  -4   3   0    0.10    0.38
  -4   3   0   -0.21    1.00
  -4   3   0   -0.50    0.77
  -3   3   0    6.44    0.65
  -3   3   0    6.32    0.95
  -3   3   0    6.26    0.57
  -2   3   0    3.14    0.69
  -2   3   0    4.26    0.47
  -2   3   0    4.22    0.39
  -2   3   0    3.15    0.41
  -2   3   0    3.96    0.45
   1  -3   0    2.61    0.31
  -1   3   0    2.58    0.36
  -1   3   0    2.78    0.30
  -1   3   0    2.82    0.35
   0  -3   0   14.30    0.98
   0  -3   0   13.93    0.93
   0   3   0   12.55    0.93
  -1  -3   0    0.75    0.18
  -2  -3   0    1.11    0.25
  -2  -3   0    0.89    0.23
  -3  -3   0    1.79    0.57
  -3  -3   0    1.63    0.48
  -3  -3   0    0.54    0.70
  -3  -3   0    2.22    0.37
  -3  -3   0    1.59    0.41
  -4  -3   0    0.18    0.39
  -4  -3   0    0.55    0.34
  -4  -3   0    0.39    0.29
  -4  -3   0    1.00    0.60
  -4  -3   0    0.15    0.93
  -5  -3   0    0.90    0.22
  -5  -3   0    0.88    0.26
  -5  -3   0    0.69    0.23
  -5  -3   0    1.03    0.22
  -5  -3   0    0.53    0.80
  -5   4   0   10.49    1.45
  -5   4   0   11.92    0.91
  -4   4   0   10.77    1.47
  -4   4   0   11.11    1.15
  -4   4   0   11.64    1.57
  -4   4   0   10.41    1.00
  -3   4   0    3.89    0.51
  -3   4   0    3.25    0.81
  -3   4   0    2.72    0.45
  -3   4   0    1.92    0.34
  -2   4   0    5.67    0.82
  -2   4   0    5.80    0.63
  -2   4   0    5.93    0.53
  -2   4   0    5.98    0.57
   1  -4   0   -0.03    0.24
  -1   4   0   -0.09    0.22
  -1   4   0    0.39    0.23
  -1   4   0   -0.34    0.30
   0  -4   0   59.17    3.77
   0  -4   0   58.85    3.80
   0  -4   0   55.93    3.81
  -1  -4   0    8.28    0.65
  -2  -4   0    0.67    0.27
  -2  -4   0    0.31    0.22
  -3  -4   0    1.43    0.44
  -3  -4   0    1.81    0.55
  -3  -4   0    1.54    0.83
  -3  -4   0    1.41    0.62
  -4  -4   0    6.81    0.56
  -4  -4   0    6.44    0.65
  -4  -4   0    8.91    1.18
  -4  -4   0    4.77    0.84
  -4  -4   0    7.38    0.59
  -5  -4   0    1.22    0.65
  -5   5   0    1.35    0.43
  -5   5   0    1.69    0.53
  -5   5   0    1.36    0.79
  -4   5   0    2.03    0.66
  -4   5   0    1.22    0.93
   3  -5   0   13.81    1.24
  -3   5   0   12.40    1.19
  -3   5   0   13.79    1.53
  -3   5   0   14.14    1.15
  -3   5   0   14.07    1.07
  -2   5   0    4.64    0.55
  -2   5   0    5.21    0.52
  -2   5   0    4.88    0.80
  -1   5   0    7.69    0.71
   0  -5   0   12.45    1.05
   0  -5   0   13.66    0.98
  -1  -5   0    0.21    0.33
  -1  -5   0    0.09    0.26
  -2  -5   0    4.83    0.49
  -2  -5   0    4.48    0.60
  -2  -5   0    6.47    0.58
  -2  -5   0    5.39    0.62
  -2  -5   0    6.64    0.93
  -3  -5   0    3.30    1.05
  -3  -5   0    4.85    0.59
  -3  -5   0    3.13    1.07
  -3  -5   0    4.50    0.70
  -4  -5   0    2.83    0.27
  -4  -5   0    2.42    0.41
  -4  -5   0    2.07    0.82
  -5   6   0   -0.75    0.62
   4  -6   0    4.48    0.82
  -4   6   0    6.11    1.20
  -4   6   0    5.28    0.94
   3  -6   0    0.38    0.54
  -3   6   0   -0.67    0.65
  -3   6   0   -0.08    0.36
  -3   6   0    0.02    0.90
   2  -6   0   50.81    3.74
   2  -6   0   49.48    3.55
  -2   6   0   52.45    3.62
  -2   6   0   53.51    3.75
  -2   6   0   57.07    3.50
   1  -6   0   34.00    2.36
   0  -6   0    0.53    0.29
   0  -6   0    0.89    0.35
   0  -6   0   -0.05    0.37
   0  -6   0    0.44    0.44
  -1  -6   0   26.57    1.81
  -1  -6   0   26.38    1.83
  -1  -6   0   25.81    1.78
  -2  -6   0    4.10    0.95
  -2  -6   0    4.14    0.59
  -2  -6   0    3.82    0.52
  -2  -6   0    2.90    0.57
  -2  -6   0    3.19    0.44
  -3  -6   0   -0.57    0.85
  -3  -6   0    0.62    0.44
  -3  -6   0   -0.08    0.48
  -4  -6   0   -0.35    0.59
  -4  -6   0    0.20    0.26
   5  -7   0    1.43    0.43
   4  -7   0    9.87    1.11
   3  -7   0    9.93    1.17
  -3   7   0   13.61    1.62
  -3   7   0    9.33    1.17
   2  -7   0    5.88    0.82
   2  -7   0    4.34    0.66
  -2   7   0    3.80    0.88
  -2   7   0    5.02    0.92
  -2   7   0    5.82    0.98
  -2   7   0    4.61    0.58
   1  -7   0    1.93    0.55
   1  -7   0    0.53    0.43
   1  -7   0    2.00    0.51
  -1   7   0    1.40    0.66
  -1   7   0    1.30    0.64
   0  -7   0   35.61    2.34
   0  -7   0   37.94    2.32
   0  -7   0   30.95    2.35
   0  -7   0   28.35    2.25
   0   7   0   36.12    2.51
  -1  -7   0   10.06    0.91
  -1  -7   0    9.39    0.83
  -1  -7   0    8.71    0.84
  -2  -7   0    5.63    0.63
  -2  -7   0    5.39    0.59
  -2  -7   0    4.39    0.93
  -2  -7   0    5.20    0.94
  -3  -7   0   -0.10    0.79
  -3  -7   0    0.35    0.42
  -3  -7   0    0.55    0.46
  -4  -7   0   -0.05    0.71
  -4  -7   0    0.10    0.19
   4  -8   0    6.37    0.84
   3  -8   0    1.17    0.56
   3  -8   0    1.40    0.65
  -3   8   0    3.19    0.95
  -3   8   0    1.56    0.76
   2  -8   0    1.32    0.56
   2  -8   0    1.34    0.68
  -2   8   0    1.17    0.79
  -2   8   0    3.05    0.92
  -2   8   0    1.70    0.70
  -2   8   0    1.85    0.44
   1  -8   0    0.62    0.42
   1  -8   0    1.67    0.56
   1  -8   0    1.89    0.62
   1  -8   0    1.01    0.61
  -1   8   0    1.19    0.72
  -1   8   0    1.52    0.77
   0  -8   0   -0.05    0.58
   0  -8   0   -0.08    0.45
   0   8   0    0.32    0.74
  -1  -8   0    1.31    0.47
   1   8   0    1.63    0.82
  -2  -8   0    0.94    0.70
  -3  -8   0    2.36    0.39
  -3  -8   0    2.18    0.64
  -3  -8   0    2.86    0.38
   4  -9   0    0.36    0.40
   4  -9   0   -0.07    0.38
  -4   9   0    0.07    0.48
   3  -9   0    1.83    0.55
   3  -9   0    1.32    0.63
  -3   9   0    1.47    0.64
   2  -9   0   10.51    1.09
   2  -9   0    9.27    0.97
  -2   9   0    7.78    1.08
  -2   9   0    7.89    1.13
   1  -9   0    0.71    0.59
   1  -9   0    0.24    0.53
  -1   9   0    0.88    0.85
  -1   9   0    1.11    0.81
   0  -9   0    0.37    0.56
   0  -9   0    0.64    0.43
   0   9   0    0.68    0.79
  -1  -9   0    0.67    0.47
   1   9   0    0.47    0.78
   3 -10   0    0.04    0.48
   3 -10   0    0.12    0.37
  -3  10   0    0.05    0.38
   2 -10   0   -0.03    0.53
   2 -10   0    0.24    0.47
  -2  10   0   -0.03    0.52
  -2  10   0    0.90    0.68
   1 -10   0    0.50    0.46
  -1  10   0    0.32    0.74
  -1  10   0    0.61    0.74
   0  10   0    0.76    1.02
   0  10   0    0.54    0.72
  -1 -10   0    5.99    0.65
  -1 -10   0    6.33    0.63
   2 -11   0    0.10    0.31
  -2  11   0    0.44    0.45
  -2  11   0   -0.31    0.46
   1 -11   0    0.90    0.38
  -1  11   0    0.62    0.54
  -1  11   0   -0.15    0.44
   0 -11   0   -0.28    0.46
   0  11   0   -0.37    0.47
   0  11   0    0.06    0.47
   1  11   0   -0.13    0.50
   1  11  -1    2.24    0.51
   0  11  -1    0.44    0.50
   0  11  -1   -0.16    0.51
  -1  11  -1    8.78    0.91
   1 -11   1    6.56    0.69
  -2  11  -1    1.68    0.50
   2 -11   1    0.81    0.35
   2 -11   1    1.19    0.38
   3 -11   1    0.24    0.31
   2  10  -1   -0.18    0.42
   1  10  -1   14.44    1.47
  -1 -10   1   18.47    1.25
   0  10  -1    1.64    0.80
   0  10  -1    1.82    0.78
   0 -10   1    1.25    0.41
  -1  10  -1   -0.20    0.71
  -1  10  -1    0.25    0.71
   1 -10   1   -0.26    0.47
   1 -10   1    0.32    0.50
  -2  10  -1    0.27    0.55
  -2  10  -1    0.80    0.68
   2 -10   1    0.39    0.53
   2 -10   1   -0.03    0.53
  -3  10  -1   -0.39    0.49
   3 -10   1   -0.02    0.47
   3 -10   1    0.13    0.36
  -3  -9   1    0.15    0.20
   2   9  -1    0.62    0.74
  -2  -9   1    1.65    1.11
   1   9  -1    6.78    1.07
  -1  -9   1    8.26    0.87
   0   9  -1    5.76    0.98
   0   9  -1    4.88    0.99
   0  -9   1    6.75    0.81
   0  -9   1    4.82    0.67
  -1   9  -1   -0.53    0.75
  -1   9  -1   -0.48    0.68
   1  -9   1   -0.71    0.54
   1  -9   1    0.38    0.63
   1  -9   1   -0.23    0.59
  -2   9  -1    7.82    1.01
  -2   9  -1    9.37    1.16
   2  -9   1    7.12    0.98
   2  -9   1    6.72    0.88
  -3   9  -1   -0.08    0.57
   3  -9   1    0.87    0.60
   3  -9   1    0.35    0.50
  -4   9  -1    0.07    0.32
  -4   9  -1   -0.14    0.44
   4  -9   1    0.42    0.43
  -3  -8   1    4.72    0.61
  -3  -8   1    5.37    0.60
  -3  -8   1    7.46    0.95
  -2  -8   1    4.08    0.48
  -2  -8   1    4.17    0.54
  -2  -8   1    5.34    0.94
   1   8  -1    0.11    0.74
  -1  -8   1    0.24    0.47
  -1  -8   1    0.34    0.43
   0   8  -1    2.51    0.88
   0   8  -1    3.11    0.85
   0  -8   1    1.87    0.35
   0  -8   1    2.97    0.62
   0  -8   1    2.19    0.62
   0  -8   1    1.55    0.52
  -1   8  -1    7.67    1.03
  -1   8  -1    8.25    1.08
   1  -8   1    4.15    0.67
   1  -8   1    5.91    0.85
   1  -8   1    5.84    0.73
  -2   8  -1    1.95    0.34
  -2   8  -1    1.19    0.81
  -2   8  -1    1.61    0.47
  -2   8  -1    2.64    0.99
  -2   8  -1    0.31    0.89
   2  -8   1    1.73    0.62
   2  -8   1    1.84    0.69
  -3   8  -1    6.95    0.96
  -3   8  -1    9.11    1.34
   3  -8   1    5.86    0.95
  -4   8  -1    0.17    0.55
   4  -8   1   -0.05    0.52
  -4  -7   1    0.50    0.23
  -4  -7   1    0.53    0.51
  -3  -7   1    1.50    0.49
  -3  -7   1    1.09    0.82
  -3  -7   1    1.80    0.64
  -2  -7   1    0.97    0.35
  -2  -7   1    0.84    0.87
  -2  -7   1    1.40    0.43
   1   7  -1    2.29    0.80
  -1  -7   1    1.34    0.41
  -1  -7   1    1.73    0.43
  -1  -7   1    1.38    0.48
   0   7  -1   17.60    1.49
   0  -7   1   17.40    1.36
   0  -7   1   16.21    1.37
   0  -7   1   17.41    1.29
   0  -7   1   15.47    1.27
  -1   7  -1   -0.67    0.62
  -1   7  -1    0.18    0.64
   1  -7   1    0.23    0.42
   1  -7   1   -0.12    0.42
  -2   7  -1    0.02    0.24
  -2   7  -1   -0.56    0.76
  -2   7  -1    0.12    0.73
  -2   7  -1   -0.32    0.77
  -2   7  -1   -0.08    0.38
   2  -7   1    0.34    0.51
   2  -7   1    0.24    0.43
  -3   7  -1    1.01    0.71
  -3   7  -1    0.07    0.91
   3  -7   1   -0.13    0.56
  -4   7  -1    9.48    0.91
   4  -7   1    6.55    0.97
  -5   7  -1    3.60    0.65
  -4  -6   1    0.34    0.31
  -4  -6   1    0.88    0.23
  -4  -6   1    1.08    0.68
  -4  -6   1    0.90    0.20
  -3  -6   1   -0.68    0.87
  -3  -6   1    0.07    0.46
  -2  -6   1    1.95    0.39
  -2  -6   1    1.62    0.46
  -2  -6   1    2.77    0.43
  -1  -6   1   33.67    2.20
  -1  -6   1   32.58    2.20
  -1  -6   1   30.70    2.21
   0  -6   1    3.66    0.52
   0  -6   1    4.20    0.54
   0  -6   1    4.49    0.48
  -1   6  -1   41.21    2.77
  -2   6  -1    0.33    0.70
  -2   6  -1    0.07    0.22
  -2   6  -1    0.18    0.61
  -2   6  -1   -0.28    0.37
  -3   6  -1    6.83    1.16
  -3   6  -1    8.37    0.81
  -3   6  -1    5.81    0.72
  -3   6  -1    7.23    0.89
   3  -6   1    6.91    0.94
  -4   6  -1   20.89    2.20
  -4   6  -1   19.75    1.59
  -4   6  -1   23.05    1.72
  -5   6  -1    4.89    0.48
  -5   6  -1    3.26    0.73
  -4  -5   1    2.11    0.39
  -4  -5   1    1.49    0.32
  -4  -5   1    1.21    0.39
  -4  -5   1    1.21    0.89
  -3  -5   1   -0.83    0.92
  -3  -5   1    0.45    0.48
  -3  -5   1   -0.04    0.18
  -2  -5   1    2.45    0.38
  -2  -5   1    3.36    0.43
  -1  -5   1    2.52    0.45
  -1  -5   1    2.63    0.33
  -1  -5   1    2.20    0.37
  -1  -5   1    2.58    0.28
   0  -5   1   46.33    2.91
   0  -5   1   41.72    2.96
  -1   5  -1    1.38    0.31
  -1   5  -1    2.10    0.31
  -2   5  -1   82.59    5.53
  -2   5  -1   79.80    5.29
  -2   5  -1   82.14    5.27
  -2   5  -1   80.98    5.34
  -3   5  -1   63.65    4.30
  -3   5  -1   62.94    4.00
  -3   5  -1   53.20    3.94
  -4   5  -1    0.33    0.87
  -4   5  -1   -0.20    0.45
  -4   5  -1    0.08    1.00
  -4   5  -1    0.15    0.36
  -5   5  -1   -0.22    0.68
  -5   5  -1    0.19    0.43
  -5   5  -1    0.57    0.29
  -5  -4   1    2.22    0.30
  -5  -4   1    1.49    0.24
  -5  -4   1    1.62    0.74
  -5  -4   1    1.84    0.24
  -4  -4   1    0.57    0.92
  -4  -4   1    0.09    0.50
  -4  -4   1   -0.17    0.41
  -4  -4   1   -0.32    0.41
  -3  -4   1    7.71    0.69
  -3  -4   1    8.69    1.10
  -3  -4   1    7.36    0.64
  -3  -4   1    6.56    0.97
  -3  -4   1    7.14    0.77
  -2  -4   1    5.24    0.56
  -1  -4   1    4.02    0.43
  -1  -4   1    3.59    0.41
  -1  -4   1    3.68    0.44
   0   4  -1   -0.23    0.21
   0  -4   1    0.08    0.21
   0  -4   1    0.35    0.27
  -1   4  -1   34.73    2.17
  -1   4  -1   29.84    2.26
  -1   4  -1   33.61    2.18
  -2   4  -1   11.88    0.93
  -2   4  -1   11.58    0.88
  -2   4  -1   11.54    0.86
  -2   4  -1   10.01    1.23
  -2   4  -1   12.37    0.83
  -3   4  -1    0.73    0.33
  -3   4  -1    0.09    0.25
  -3   4  -1   -0.27    0.69
  -4   4  -1    0.67    0.58
  -4   4  -1    0.48    0.34
  -4   4  -1   -0.21    0.80
  -4   4  -1    1.58    1.06
  -4   4  -1    0.45    0.29
  -5   4  -1    6.59    0.61
  -5   4  -1    5.66    0.64
  -5   4  -1    9.43    0.99
  -5   4  -1    7.59    0.79
  -5  -3   1    2.16    0.83
  -5  -3   1    1.44    0.30
  -5  -3   1    1.98    0.41
  -5  -3   1    1.42    0.37
  -4  -3   1    1.88    0.46
  -4  -3   1    1.47    0.49
  -4  -3   1    2.29    0.91
  -3  -3   1    8.27    1.11
  -3  -3   1    9.39    1.17
  -3  -3   1    9.66    0.77
  -3  -3   1   10.87    0.82
  -3  -3   1    9.31    0.87
  -3  -3   1    9.99    0.78
  -2  -3   1    0.08    0.26
  -2  -3   1   -0.05    0.28
  -1  -3   1    0.02    0.19
  -1  -3   1    0.15    0.13
  -1  -3   1    0.14    0.17
   0   3  -1   70.98    4.91
   0  -3   1   80.84    4.92
   0  -3   1   76.42    4.90
  -1   3  -1   73.76    4.58
  -1   3  -1   74.19    4.59
  -1   3  -1   65.16    4.63
   1  -3   1   71.04    4.58
  -2   3  -1    1.00    0.31
  -2   3  -1    1.27    0.42
  -2   3  -1    1.51    0.27
  -2   3  -1    0.30    0.59
  -3   3  -1    0.55    0.23
  -3   3  -1    0.63    0.35
  -3   3  -1    0.54    0.69
  -4   3  -1    2.49    0.61
  -4   3  -1    2.31    0.83
  -4   3  -1    2.14    1.07
  -4   3  -1    1.94    0.52
  -4   3  -1    2.20    0.60
  -5   3  -1    1.67    0.30
  -5   3  -1    2.90    0.68
  -5   3  -1    1.92    0.32
  -5   3  -1    2.32    0.52
  -5  -2   1    4.50    0.58
  -5  -2   1    3.23    0.97
  -5  -2   1    4.62    0.51
  -4  -2   1    2.22    0.74
  -4  -2   1    3.24    0.98
  -4  -2   1    2.39    0.51
  -4  -2   1    2.22    0.51
  -3  -2   1    2.18    0.32
  -3  -2   1    1.78    0.34
  -3  -2   1    1.74    0.34
  -3  -2   1    2.22    0.22
  -3  -2   1    1.68    0.54
  -2  -2   1   14.89    1.27
  -2  -2   1   13.28    1.00
  -1  -2   1   -0.10    0.15
  -1  -2   1    0.05    0.16
  -1  -2   1    0.06    0.11
   0   2  -1    0.98    0.16
   0  -2   1    1.45    0.23
   0  -2   1    1.03    0.17
  -1   2  -1    1.05    0.16
  -1   2  -1    0.85    0.26
  -1   2  -1    1.60    0.18
  -1   2  -1    1.06    0.14
  -1   2  -1    1.23    0.21
  -2   2  -1   11.74    1.06
  -2   2  -1   13.09    0.88
  -2   2  -1   11.88    1.19
  -2   2  -1   12.68    0.97
  -3   2  -1    0.07    0.19
  -3   2  -1    0.00    0.31
  -3   2  -1    0.02    0.67
  -4   2  -1    3.20    1.11
  -4   2  -1    2.96    0.59
  -4   2  -1    3.18    0.77
  -4   2  -1    3.77    0.73
  -4   2  -1    3.58    0.49
  -4   2  -1    3.28    0.60
  -5   2  -1    0.19    0.19
  -5   2  -1    0.79    0.43
  -5   2  -1    0.67    0.53
  -5   2  -1   -0.76    0.42
  -5   2  -1    0.22    0.18
  -5  -1   1    9.31    0.78
  -5  -1   1    8.84    0.66
  -5  -1   1    8.99    0.66
  -4  -1   1    0.54    0.51
  -4  -1   1    1.75    0.62
  -4  -1   1    0.14    0.65
  -4  -1   1    1.29    0.84
  -3  -1   1    7.99    0.67
  -3  -1   1    7.39    0.61
  -3  -1   1    9.36    1.26
  -2  -1   1   11.71    0.86
  -2  -1   1   10.82    0.83
  -2  -1   1   10.89    1.08
  -1  -1   1   76.02    5.05
  -1  -1   1   81.85    5.05
  -1  -1   1   76.62    5.05
  -1  -1   1   80.50    5.06
   0   1  -1   13.23    0.84
   0  -1   1   12.61    0.84
  -1   1  -1   10.03    0.65
  -1   1  -1    9.28    0.75
  -1   1  -1    9.48    0.65
  -1   1  -1    9.79    0.70
  -2   1  -1   40.34    2.59
  -2   1  -1   41.36    2.65
  -2   1  -1   37.75    2.77
  -3   1  -1   16.76    1.20
  -3   1  -1   17.37    1.59
  -3   1  -1   18.56    1.30
  -4   1  -1   -0.81    1.06
  -4   1  -1    0.14    0.36
  -4   1  -1   -0.15    0.61
  -4   1  -1   -0.14    0.88
  -4   1  -1   -0.28    0.47
  -4   1  -1    0.79    0.58
  -5   1  -1   -0.31    0.72
  -5   1  -1    0.18    0.34
  -5   1  -1    1.27    0.43
  -5   1  -1   -0.77    0.39
  -5   0   1    2.10    0.34
  -5   0   1    2.32    0.36
  -5   0   1    2.33    0.47
  -5   0   1    3.60    0.62
  -4   0   1    1.61    0.58
  -4   0   1    1.96    1.01
  -4   0   1    1.55    0.70
  -4   0   1    2.75    0.75
  -3   0   1   37.45    2.70
  -3   0   1   43.92    2.99
  -3   0   1   41.73    2.75
  -2   0   1    3.66    0.61
  -2   0   1    4.22    0.41
  -2   0   1    3.50    0.41
  -1   0   1    0.00    0.13
  -1   0   1    0.04    0.13
  -1   0   1    0.22    0.18
   0   0  -1  133.80    8.54
  -1   0  -1    0.73    0.30
  -1   0  -1    1.07    0.20
  -1   0  -1    0.93    0.11
  -1   0  -1    1.29    0.13
  -2   0  -1   36.81    2.34
  -2   0  -1   33.10    2.49
  -2   0  -1   34.78    2.28
  -3   0  -1    0.45    0.67
  -3   0  -1    0.39    0.20
  -4   0  -1   -0.15    0.27
  -4   0  -1    1.29    0.50
  -4   0  -1   -0.41    0.31
  -4   0  -1    0.41    1.06
  -4   0  -1    0.23    0.59
  -4   0  -1   -0.14    0.79
  -4   0  -1   -0.06    0.43
  -5   0  -1   -0.13    0.32
  -5   0  -1   -0.10    0.28
  -5   0  -1   -0.67    0.34
  -5   0  -1   -0.46    0.58
  -5   1   1    9.90    0.84
  -5   1   1   11.47    1.20
  -5   1   1   10.15    0.98
  -4   1   1    0.48    0.97
  -4   1   1    0.00    0.27
  -4   1   1   -0.53    0.71
  -4   1   1    0.43    0.29
  -4   1   1    0.15    0.55
  -3   1   1    5.63    0.54
  -3   1   1    7.13    1.02
  -3   1   1    6.31    0.65
  -2   1   1   -0.02    0.11
  -2   1   1   -0.28    0.41
  -2   1   1   -0.02    0.11
  -2   1   1   -0.05    0.22
  -2   1   1   -0.10    0.19
   1  -1  -1   32.70    2.14
  -1   1   1   33.00    2.14
  -1   1   1   33.03    2.15
   0  -1  -1   11.87    0.78
  -1  -1  -1  962.27   62.66
  -1  -1  -1 1000.00   62.66
  -2  -1  -1    3.57    0.34
  -2  -1  -1    3.15    0.61
  -3  -1  -1    1.19    0.24
  -3  -1  -1    0.75    0.62
  -3  -1  -1    0.57    0.34
  -4  -1  -1    8.44    0.87
  -4  -1  -1    7.11    0.69
  -4  -1  -1    6.77    0.58
  -4  -1  -1    3.89    0.97
  -4  -1  -1    6.39    0.59
  -4  -1  -1    8.90    0.86
  -5  -1  -1    0.47    0.26
  -5  -1  -1   -0.74    0.55
  -5  -1  -1   -0.06    0.24
  -5  -1  -1    0.03    0.29
  -5  -1  -1   -0.03    0.91
  -5  -1  -1    0.28    0.23
  -5   2   1   11.55    0.88
  -5   2   1   10.21    1.32
  -5   2   1    9.32    1.02
  -4   2   1    6.41    1.22
  -4   2   1    6.38    0.66
  -4   2   1    7.50    1.06
  -4   2   1    7.45    0.82
  -4   2   1    6.29    0.62
  -4   2   1    6.06    0.76
  -3   2   1    0.70    0.61
  -3   2   1    0.83    0.33
  -3   2   1    0.68    0.25
  -2   2   1   27.98    1.82
  -2   2   1   29.14    1.82
  -2   2   1   24.87    2.01
  -2   2   1   27.50    1.88
  -2   2   1   27.18    1.84
   1  -2  -1    0.95    0.24
   1  -2  -1    0.94    0.18
  -1   2   1    1.12    0.21
  -1   2   1    1.39    0.22
   0  -2  -1   48.74    3.19
   0  -2  -1   49.85    3.18
  -1  -2  -1   -0.21    0.13
  -1  -2  -1    0.12    0.12
  -1  -2  -1    0.15    0.36
  -3  -2  -1   10.81    0.80
  -3  -2  -1    8.97    1.11
  -3  -2  -1   11.05    0.83
  -3  -2  -1   10.45    1.00
  -3  -2  -1   11.12    0.84
  -3  -2  -1    9.70    0.89
  -4  -2  -1    2.81    0.34
  -4  -2  -1    2.89    0.32
  -4  -2  -1    3.84    0.45
  -4  -2  -1    2.71    0.64
  -4  -2  -1    2.34    0.91
  -5  -2  -1    1.23    0.25
  -5  -2  -1    1.56    0.20
  -5  -2  -1    1.60    0.22
  -5  -2  -1    1.17    0.89
  -5  -2  -1    0.70    0.52
  -5  -2  -1    1.50    0.21
  -5   3   1   -0.90    0.70
  -5   3   1    0.11    0.51
  -5   3   1   -0.15    0.38
  -4   3   1    0.36    0.39
  -4   3   1    0.80    0.53
  -4   3   1    0.42    0.87
  -3   3   1    1.31    0.68
  -3   3   1    1.32    0.30
  -3   3   1    1.31    0.34
  -3   3   1    1.69    0.41
  -2   3   1    1.41    0.32
  -2   3   1    0.87    0.24
  -2   3   1    1.07    0.54
   1  -3  -1  105.43    6.65
  -1   3   1  105.19    6.65
  -1   3   1   99.50    6.67
   0  -3  -1    1.01    0.19
   0  -3  -1    1.37    0.22
   0  -3  -1    2.03    0.27
  -1  -3  -1    0.10    0.49
  -1  -3  -1    0.21    0.19
  -2  -3  -1    9.21    0.71
  -3  -3  -1    8.55    0.82
  -3  -3  -1    9.27    0.75
  -3  -3  -1    9.14    1.17
  -3  -3  -1   10.09    0.79
  -3  -3  -1    9.10    1.04
  -4  -3  -1    0.07    0.94
  -4  -3  -1    0.84    0.35
  -4  -3  -1    1.05    0.57
  -4  -3  -1    0.61    0.19
  -5  -3  -1   -0.12    0.16
  -5  -3  -1   -0.66    0.40
  -5  -3  -1   -0.73    0.68
  -5  -3  -1    0.05    0.14
  -5   4   1    0.20    0.58
  -5   4   1   -0.38    0.79
  -4   4   1    2.02    1.03
  -4   4   1    2.53    0.76
  -3   4   1    0.63    0.56
  -3   4   1   -0.21    0.27
  -3   4   1    0.10    0.65
  -3   4   1    0.48    0.38
  -2   4   1    1.43    0.29
  -2   4   1    1.28    0.33
  -2   4   1    1.14    0.60
   1  -4  -1    1.73    0.30
  -1   4   1    1.94    0.33
  -1   4   1    1.60    0.29
   0  -4  -1   19.90    1.30
   0  -4  -1   19.73    1.34
   0  -4  -1   17.33    1.37
  -1  -4  -1   21.20    1.30
  -1  -4  -1   15.66    1.44
  -2  -4  -1    2.87    0.37
  -2  -4  -1    2.25    0.29
  -2  -4  -1    2.32    0.46
  -3  -4  -1   -0.01    0.44
  -3  -4  -1    0.98    0.56
  -3  -4  -1    0.55    0.39
  -3  -4  -1   -0.70    0.89
  -4  -4  -1    0.02    0.43
  -4  -4  -1    0.13    0.85
  -4  -4  -1    0.33    0.31
  -4  -4  -1    0.24    0.53
  -5   5   1    1.36    0.94
   4  -5  -1   20.35    1.74
  -4   5   1   22.91    2.12
   3  -5  -1   10.50    1.08
  -3   5   1   11.06    0.69
  -3   5   1   10.43    1.12
  -3   5   1   10.19    0.93
  -3   5   1   10.92    1.43
  -3   5   1    8.27    0.69
  -3   5   1    9.89    1.10
  -2   5   1   -0.50    0.56
  -2   5   1   -0.16    0.59
  -2   5   1    0.03    0.24
   0  -5  -1    0.03    0.28
   0  -5  -1    0.72    0.48
   0  -5  -1    0.14    0.33
   0  -5  -1   -0.08    0.29
  -1  -5  -1    5.99    0.60
  -1  -5  -1    6.70    0.57
  -2  -5  -1    0.11    0.48
  -2  -5  -1    0.60    0.33
  -2  -5  -1    0.24    0.33
  -2  -5  -1    0.09    0.66
  -2  -5  -1   -0.01    0.41
  -2  -5  -1    0.26    0.24
  -3  -5  -1    0.23    0.39
  -3  -5  -1   -0.42    0.93
  -3  -5  -1   -0.14    0.53
  -3  -5  -1    0.10    0.45
  -4  -5  -1    0.26    0.80
  -4  -5  -1    1.25    0.80
  -4  -5  -1    1.47    0.34
  -4  -5  -1    1.96    0.33
   5  -6  -1    1.73    0.49
   4  -6  -1    0.72    0.60
  -4   6   1    0.10    0.76
   3  -6  -1    0.40    0.55
  -3   6   1    0.40    0.17
  -3   6   1    1.00    0.86
  -3   6   1    0.51    0.45
  -3   6   1   -0.03    0.75
   2  -6  -1   50.29    3.54
   2  -6  -1   50.84    3.47
  -2   6   1   49.26    3.58
  -2   6   1   53.02    3.42
  -2   6   1   52.57    3.56
  -2   6   1   53.16    3.67
  -2   6   1   49.35    3.52
   1  -6  -1    7.80    0.86
   1  -6  -1    8.20    0.84
   1  -6  -1    9.63    0.79
   0  -6  -1    5.23    0.57
   0  -6  -1    6.23    0.64
   0  -6  -1    6.32    0.57
   0  -6  -1    5.89    0.69
  -1  -6  -1   -0.22    0.31
  -1  -6  -1    0.63    0.32
  -2  -6  -1   -0.38    0.32
  -2  -6  -1   -0.07    0.46
  -2  -6  -1   -0.28    0.22
  -2  -6  -1   -0.48    0.74
  -3  -6  -1    2.73    0.49
  -3  -6  -1    3.78    1.02
  -3  -6  -1    2.39    0.46
  -3  -6  -1    1.64    0.47
  -4  -6  -1    0.72    0.62
  -4  -6  -1    1.03    0.23
  -4  -6  -1    0.36    0.25
   5  -7  -1    1.07    0.40
   4  -7  -1   -0.12    0.59
   3  -7  -1   10.66    1.14
   3  -7  -1    9.70    1.00
  -3   7   1   12.89    1.53
  -3   7   1    9.43    1.20
   2  -7  -1    1.19    0.64
   2  -7  -1    1.69    0.55
  -2   7   1    3.21    0.85
  -2   7   1    1.52    0.36
  -2   7   1    1.98    0.81
  -2   7   1    1.39    0.64
   1  -7  -1   14.00    1.32
   1  -7  -1   14.73    1.31
   1  -7  -1   15.44    1.21
  -1   7   1   15.55    1.40
  -1   7   1   16.40    1.44
   0  -7  -1    0.10    0.50
   0  -7  -1    0.60    0.39
   0  -7  -1   -0.20    0.38
   0  -7  -1    0.34    0.17
   0   7   1    0.45    0.70
  -1  -7  -1    0.34    0.39
  -2  -7  -1    9.75    0.96
  -2  -7  -1   11.28    1.30
  -3  -7  -1    1.80    0.41
  -3  -7  -1    1.99    0.37
  -3  -7  -1    1.99    0.33
  -3  -7  -1    2.08    0.81
   4  -8  -1   10.98    1.01
   4  -8  -1    7.95    0.93
   3  -8  -1   10.31    1.11
   3  -8  -1    9.58    0.99
  -3   8   1    8.95    1.15
   2  -8  -1    0.81    0.65
   2  -8  -1    0.35    0.53
  -2   8   1    0.88    0.65
  -2   8   1    1.14    0.83
   1  -8  -1    2.04    0.65
   1  -8  -1    0.80    0.38
   1  -8  -1    1.85    0.58
  -1   8   1    1.74    0.77
  -1   8   1    3.32    0.86
   0  -8  -1    0.27    0.43
   0  -8  -1    0.51    0.56
   0   8   1    0.21    0.79
  -1  -8  -1   14.03    1.20
  -2  -8  -1    4.18    0.58
  -3  -8  -1    0.43    0.54
  -3  -8  -1    0.09    0.26
   4  -9  -1    0.77    0.40
   4  -9  -1    1.86    0.48
   3  -9  -1    3.36    0.70
   3  -9  -1    2.31    0.55
  -3   9   1    3.25    0.71
   2  -9  -1    0.58    0.63
   2  -9  -1    0.54    0.55
  -2   9   1    0.33    0.58
  -2   9   1    0.16    0.70
   1  -9  -1    0.62    0.52
  -1   9   1    0.92    0.76
  -1   9   1    1.56    0.82
   0  -9  -1    0.81    0.44
   0   9   1    0.91    0.75
  -1  -9  -1    0.17    0.38
   1   9   1    0.36    0.69
  -2  -9  -1   -0.18    0.34
  -2  -9  -1   -0.02    0.41
   3 -10  -1    0.11    0.39
   3 -10  -1    0.22    0.35
  -3  10   1    0.29    0.41
   2 -10  -1    1.81    0.47
   2 -10  -1    2.23    0.50
  -2  10   1    1.18    0.66
  -2  10   1    0.96    0.53
   1 -10  -1    3.30    0.52
  -1  10   1    3.11    0.81
  -1  10   1    5.53    0.88
   0  10   1    0.05    0.66
   1  10   1    0.34    0.53
   2 -11  -1    0.09    0.39
  -2  11   1   -0.09    0.33
  -2  11   1   -0.09    0.35
  -1  11   1    0.09    0.42
  -1  11   1    0.05    0.45
   0 -11  -1    0.22    0.27
   0 -11  -1    0.11    0.26
   0  11   1    0.04    0.45
   1  11  -2    1.47    0.51
  -1 -11   2    2.09    0.33
   0  11  -2    1.52    0.64
   0  11  -2    0.38    0.55
  -1  11  -2    7.68    0.89
  -1  11  -2    7.65    0.90
   1 -11   2    5.46    0.68
  -2  11  -2    2.59    0.56
   2 -11   2    3.06    0.53
   3 -11   2    1.64    0.39
   2  10  -2   -0.16    0.47
   1  10  -2    1.90    0.72
   0  10  -2    1.27    0.76
   0  10  -2    0.99    0.76
   0 -10   2    0.40    0.43
   0 -10   2    0.53    0.54
  -1  10  -2    0.29    0.77
  -1  10  -2    0.23    0.72
   1 -10   2   -0.23    0.55
   1 -10   2    0.10    0.58
   1 -10   2   -0.22    0.51
  -2  10  -2    5.47    0.87
  -2  10  -2    6.44    0.88
   2 -10   2    5.19    0.80
   3 -10   2    0.41    0.48
   3 -10   2    0.26    0.39
  -3  -9   2    1.23    0.34
  -3  -9   2    0.96    0.37
  -3  -9   2    1.10    0.52
   2   9  -2    0.94    0.70
  -2  -9   2    0.10    0.34
  -2  -9   2    1.40    0.76
  -2  -9   2    0.48    0.29
   1   9  -2    1.43    0.80
  -1  -9   2    1.71    0.52
  -1  -9   2    1.94    0.48
   0   9  -2   32.61    2.45
   0   9  -2   26.27    2.34
   0  -9   2   30.00    2.25
   0  -9   2   34.82    2.26
   0  -9   2   30.78    2.20
  -1   9  -2    1.26    0.82
  -1   9  -2    2.41    0.88
   1  -9   2    1.94    0.61
   1  -9   2    1.12    0.63
  -2   9  -2    0.26    0.62
  -2   9  -2    2.62    0.98
  -2   9  -2   -0.17    0.79
   2  -9   2   -0.40    0.56
   2  -9   2   -0.09    0.61
  -3   9  -2    0.70    0.71
   3  -9   2    1.98    0.56
   3  -9   2    0.99    0.61
  -4   9  -2    0.02    0.34
  -4   9  -2    0.06    0.28
   4  -9   2    0.09    0.46
  -3  -8   2    2.36    0.77
   2   8  -2    0.34    0.74
  -2  -8   2    0.41    0.41
  -2  -8   2    0.34    0.86
  -2  -8   2    0.13    0.42
   1   8  -2   -0.82    0.71
  -1  -8   2   -0.24    0.53
  -1  -8   2   -0.01    0.41
   0   8  -2   11.89    1.21
   0   8  -2    9.19    1.15
   0  -8   2    6.92    0.92
   0  -8   2    6.94    0.78
   0  -8   2    7.55    0.91
   0  -8   2    7.44    0.84
  -1   8  -2    1.39    0.72
  -1   8  -2    1.86    0.85
   1  -8   2    1.06    0.50
   1  -8   2    0.37    0.53
  -2   8  -2    0.57    0.41
  -2   8  -2   -0.88    0.82
  -2   8  -2   -1.28    0.78
  -2   8  -2   -0.19    0.21
  -2   8  -2    0.07    1.02
   2  -8   2    0.19    0.49
   2  -8   2   -0.53    0.54
  -3   8  -2   13.33    1.15
  -3   8  -2   14.41    1.82
   3  -8   2   10.12    1.27
  -4   8  -2    2.32    0.41
  -4   8  -2    1.92    0.53
   4  -8   2    1.36    0.60
  -4  -7   2    0.34    0.25
  -4  -7   2    0.44    0.54
  -3  -7   2   -0.11    0.53
  -3  -7   2    0.69    0.85
  -2  -7   2   18.94    1.42
   1   7  -2    8.19    1.04
  -1  -7   2    5.22    0.67
  -1  -7   2    4.82    0.64
  -1  -7   2    6.04    0.70
   0   7  -2    2.61    0.75
   0   7  -2    1.25    0.63
   0  -7   2    2.36    0.51
   0  -7   2    1.20    0.45
   0  -7   2    1.26    0.49
   0  -7   2    1.63    0.51
  -1   7  -2    5.71    0.90
  -1   7  -2    4.22    0.52
  -1   7  -2    6.22    0.87
   1  -7   2    4.64    0.69
   1  -7   2    4.99    0.66
  -2   7  -2    7.46    0.79
  -2   7  -2    6.62    0.59
  -2   7  -2    7.88    1.02
  -2   7  -2    7.35    1.25
  -2   7  -2    4.62    1.00
   2  -7   2    6.14    0.84
  -3   7  -2    0.53    0.99
  -3   7  -2    0.20    0.55
   3  -7   2    0.90    0.62
  -4   7  -2    0.57    0.36
  -4   7  -2    0.53    0.47
  -5   7  -2    2.17    0.30
  -5   7  -2    2.65    0.63
  -5   7  -2    3.02    0.44
  -4  -6   2    0.15    0.34
  -4  -6   2   -0.19    0.66
  -4  -6   2   -0.04    0.27
  -4  -6   2    0.17    0.34
  -3  -6   2    2.49    1.02
  -3  -6   2    1.69    0.55
  -3  -6   2    1.99    0.31
  -2  -6   2    2.19    0.46
  -2  -6   2    2.45    0.38
  -1  -6   2    3.72    0.45
  -1  -6   2    3.51    0.45
  -1  -6   2    3.96    0.52
  -1  -6   2    3.95    0.54
   0  -6   2   15.31    1.20
   0  -6   2   14.22    1.22
  -1   6  -2   38.21    2.57
  -2   6  -2   -0.19    0.31
  -2   6  -2   -0.27    0.74
  -2   6  -2    0.26    0.36
  -2   6  -2    0.22    0.19
  -2   6  -2    0.41    0.65
  -3   6  -2   -0.38    0.90
  -3   6  -2   -0.93    0.32
  -3   6  -2   -0.01    0.33
  -4   6  -2    0.51    1.10
  -4   6  -2    0.34    0.32
  -4   6  -2    0.30    0.38
  -4   6  -2    0.97    0.96
  -5   6  -2    4.29    0.76
  -5   6  -2    5.83    0.61
  -5   6  -2    4.38    0.50
  -5   6  -2    5.53    0.48
  -4  -5   2    1.45    0.47
  -4  -5   2    1.90    0.50
  -4  -5   2    2.15    0.92
  -3  -5   2    2.68    0.60
  -3  -5   2    1.54    0.96
  -3  -5   2    2.64    0.41
  -2  -5   2    0.24    0.36
  -2  -5   2    0.40    0.44
  -2  -5   2    0.76    0.29
  -1  -5   2   17.28    1.23
  -1  -5   2   18.14    1.23
  -1  -5   2   15.52    1.29
   0  -5   2   71.03    4.43
   0  -5   2   63.48    4.38
  -1   5  -2    0.10    0.56
  -1   5  -2   -0.13    0.26
  -1   5  -2    0.10    0.24
  -2   5  -2    7.57    1.20
  -2   5  -2    8.44    0.69
  -2   5  -2    8.85    0.78
  -2   5  -2    8.07    0.60
  -2   5  -2    7.59    0.71
  -3   5  -2    4.09    1.01
  -3   5  -2    5.34    0.60
  -3   5  -2    4.21    0.50
  -4   5  -2   11.10    0.77
  -4   5  -2   10.78    0.77
  -4   5  -2   11.47    1.05
  -4   5  -2    8.41    1.17
  -4   5  -2    9.57    1.54
  -5   5  -2   11.40    1.27
  -5   5  -2   10.54    0.81
  -5   5  -2   10.61    0.78
  -5   5  -2   10.49    0.96
  -5  -4   2    4.24    0.79
  -5  -4   2    3.68    0.41
  -5  -4   2    3.65    0.45
  -4  -4   2    4.78    0.61
  -4  -4   2    3.23    1.00
  -4  -4   2    5.23    0.66
  -3  -4   2    9.43    1.26
  -3  -4   2   11.35    0.80
  -3  -4   2   11.55    0.92
  -3  -4   2    9.71    0.97
  -3  -4   2   11.82    0.95
  -2  -4   2    1.76    0.38
  -2  -4   2    2.37    0.36
  -1  -4   2   15.98    1.15
  -1  -4   2   16.54    1.20
   0   4  -2   -0.02    0.20
   0   4  -2    0.06    0.19
   0  -4   2    0.02    0.22
   0  -4   2    0.01    0.28
  -1   4  -2   13.24    1.16
  -1   4  -2   13.44    0.96
  -1   4  -2   13.64    0.96
  -2   4  -2    4.82    0.55
  -2   4  -2    5.58    0.50
  -2   4  -2    5.68    0.83
  -2   4  -2    5.02    0.74
  -3   4  -2   45.93    3.22
  -3   4  -2   48.68    3.23
  -3   4  -2   48.86    3.55
  -4   4  -2   25.43    2.24
  -4   4  -2   25.40    1.83
  -4   4  -2   27.49    1.92
  -4   4  -2   26.76    2.63
  -5   4  -2    0.76    0.61
  -5   4  -2   -0.22    0.42
  -5   4  -2   -0.01    0.21
  -5   4  -2    0.05    0.21
  -5  -3   2    0.33    0.79
  -5  -3   2    0.14    0.71
  -5  -3   2    0.49    0.30
  -4  -3   2    9.04    0.97
  -4  -3   2   10.65    1.34
  -4  -3   2    8.71    0.90
  -3  -3   2    9.79    0.76
  -3  -3   2    9.51    0.99
  -3  -3   2    7.27    1.07
  -3  -3   2   10.70    0.90
  -3  -3   2   10.07    0.80
  -3  -3   2    9.41    0.85
  -2  -3   2    7.06    0.61
  -2  -3   2    7.08    0.67
  -1  -3   2    1.99    0.27
  -1  -3   2    1.99    0.32
   0   3  -2    2.99    0.29
   0   3  -2    2.88    0.32
   0  -3   2    3.06    0.31
   0  -3   2    1.97    0.29
  -1   3  -2    9.79    0.71
  -1   3  -2    9.23    0.82
  -1   3  -2   10.21    0.69
  -1   3  -2    9.63    0.69
  -1   3  -2    9.62    0.72
  -2   3  -2    3.52    0.36
  -2   3  -2    3.26    0.59
  -2   3  -2    3.45    0.42
  -2   3  -2    2.19    0.73
  -3   3  -2    6.98    0.73
  -3   3  -2    8.18    0.73
  -3   3  -2    7.31    0.60
  -3   3  -2    7.38    0.89
  -3   3  -2    7.20    1.08
  -4   3  -2    0.08    1.03
  -4   3  -2   -0.61    0.51
  -4   3  -2   -0.34    0.48
  -4   3  -2    0.08    0.36
  -4   3  -2    0.07    0.70
  -4   3  -2    0.25    0.65
  -5   3  -2    6.39    0.72
  -5   3  -2    6.10    0.65
  -5   3  -2    5.87    0.62
  -5  -2   2    2.46    0.31
  -5  -2   2    3.04    0.35
  -5  -2   2    2.71    0.44
  -4  -2   2    4.95    0.77
  -4  -2   2    3.82    0.63
  -4  -2   2    5.16    1.08
  -3  -2   2    0.32    0.28
  -3  -2   2    0.07    0.55
  -3  -2   2    0.20    0.28
  -2  -2   2   10.29    0.80
   1   2  -2    0.33    0.19
  -1  -2   2    0.82    0.21
  -1  -2   2    1.03    0.25
   0   2  -2    2.69    0.31
   0   2  -2    2.95    0.28
   0  -2   2    2.69    0.27
  -1   2  -2   79.78    5.07
  -1   2  -2   78.41    5.13
  -1   2  -2   77.57    5.05
  -2   2  -2    8.56    0.99
  -2   2  -2    8.87    0.64
  -2   2  -2    8.10    1.04
  -2   2  -2    8.86    0.78
  -3   2  -2    2.67    0.25
  -3   2  -2    2.14    0.28
  -3   2  -2    1.97    0.76
  -3   2  -2    1.72    0.43
  -3   2  -2    2.22    0.40
  -4   2  -2    0.69    0.49
  -4   2  -2    0.01    0.33
  -4   2  -2   -0.20    0.99
  -4   2  -2    0.03    0.60
  -4   2  -2    0.39    0.49
  -4   2  -2    0.25    0.32
  -4   2  -2    0.68    0.62
  -5   2  -2    0.83    0.34
  -5   2  -2    0.00    0.33
  -5   2  -2    1.14    0.40
  -5   2  -2    0.68    0.67
  -5   2  -2    0.55    0.36
  -5  -1   2    7.10    0.63
  -5  -1   2    7.02    0.65
  -4  -1   2    8.82    0.73
  -4  -1   2    9.32    0.94
  -4  -1   2    9.14    1.21
  -4  -1   2    8.58    0.75
  -3  -1   2    3.40    0.44
  -3  -1   2    3.44    0.79
  -2  -1   2    1.36    0.26
  -2  -1   2    1.71    0.20
  -2  -1   2    1.93    0.54
  -2  -1   2    1.71    0.19
  -2  -1   2    1.64    0.34
   1   1  -2   60.77    4.05
  -1  -1   2   65.41    4.06
  -1  -1   2   57.46    4.04
  -1  -1   2   68.18    4.07
   0   1  -2   49.71    3.32
   0   1  -2   53.59    3.32
  -1   1  -2    7.50    0.51
  -1   1  -2    7.24    0.66
  -1   1  -2    7.76    0.51
  -1   1  -2    7.40    0.58
  -2   1  -2    0.52    0.28
  -2   1  -2    0.49    0.51
  -2   1  -2    0.55    0.15
  -2   1  -2    0.14    0.49
  -3   1  -2   23.02    1.57
  -3   1  -2   22.98    1.70
  -3   1  -2   25.90    2.04
  -4   1  -2    3.39    0.37
  -4   1  -2    3.75    0.60
  -4   1  -2    3.43    0.67
  -4   1  -2    3.88    0.39
  -4   1  -2    3.25    0.94
  -4   1  -2    1.55    1.01
  -4   1  -2    3.54    0.53
  -4   1  -2    4.01    0.50
  -5   1  -2    0.71    0.27
  -5   1  -2    0.50    0.27
  -5   1  -2    0.59    0.31
  -5   1  -2    1.08    0.30
  -5   1  -2    0.84    0.66
  -5   0   2    0.62    0.63
  -5   0   2    0.02    0.36
  -5   0   2   -0.07    0.43
  -4   0   2    7.54    1.03
  -4   0   2   10.44    1.63
  -4   0   2    8.49    0.81
  -4   0   2    8.56    0.80
  -4   0   2    8.74    0.98
  -3   0   2   15.85    1.22
  -3   0   2   18.45    1.64
  -3   0   2   17.09    1.24
  -2   0   2   16.21    1.11
  -2   0   2   16.14    1.06
  -2   0   2   15.10    1.05
  -2   0   2   15.03    1.09
  -2   0   2   15.13    1.28
   1   0  -2  116.27    7.65
  -1   0   2  123.18    7.65
  -1   0   2  118.43    7.66
   0   0  -2    1.38    0.13
   0   0  -2    1.19    0.14
   0   0  -2    1.15    0.19
  -1   0  -2    0.68    0.21
  -1   0  -2    0.33    0.31
  -2   0  -2    0.26    0.16
  -2   0  -2    0.49    0.45
  -2   0  -2    0.47    0.34
  -2   0  -2    0.44    0.19
  -3   0  -2   17.37    1.52
  -3   0  -2   15.89    1.14
  -3   0  -2   16.97    1.12
  -4   0  -2    0.17    0.37
  -4   0  -2    1.33    0.41
  -4   0  -2    0.34    0.20
  -4   0  -2   -0.47    0.84
  -4   0  -2   -0.06    0.56
  -4   0  -2   -0.03    0.30
  -4   0  -2    0.41    0.40
  -4   0  -2    0.58    0.36
  -4   0  -2    0.29    0.19
  -5   0  -2   -0.29    0.22
  -5   0  -2    0.17    0.20
  -5   0  -2    0.17    0.21
  -5   0  -2    0.80    0.59
  -5   0  -2    0.05    0.20
  -5   1   2    0.49    0.66
  -5   1   2    0.58    0.41
  -5   1   2   -0.04    0.48
  -4   1   2    1.70    0.44
  -4   1   2    1.61    0.46
  -4   1   2    1.98    0.66
  -4   1   2    1.64    0.80
  -4   1   2    2.13    0.99
  -3   1   2    4.72    0.52
  -3   1   2    5.89    0.90
  -3   1   2    4.10    0.49
  -2   1   2   70.74    5.02
  -2   1   2   75.56    4.91
  -2   1   2   79.04    4.89
  -2   1   2   77.09    4.91
   1  -1  -2   18.03    1.22
   1  -1  -2   18.13    1.25
  -1   1   2   19.37    1.23
  -1   1   2   18.07    1.25
   0  -1  -2   18.16    1.17
   0  -1  -2   16.84    1.21
   0  -1  -2   18.75    1.18
  -1  -1  -2  394.86   23.78
  -1  -1  -2  358.73   23.86
  -1  -1  -2  363.39   23.78
  -2  -1  -2    6.90    0.52
  -2  -1  -2    6.69    0.84
  -3  -1  -2    7.35    0.68
  -3  -1  -2    9.46    0.66
  -3  -1  -2    7.21    0.98
  -3  -1  -2    8.27    0.67
  -3  -1  -2    8.23    0.61
  -3  -1  -2    8.27    1.21
  -3  -1  -2    8.57    0.61
  -3  -1  -2    7.29    0.73
  -3  -1  -2    8.21    0.62
  -4  -1  -2   -0.06    0.54
  -4  -1  -2   -0.38    0.33
  -4  -1  -2    0.34    0.81
  -4  -1  -2    0.02    0.31
  -4  -1  -2    0.23    0.31
  -5  -1  -2    0.41    0.50
  -5  -1  -2    0.24    0.19
  -5   2   2    8.14    1.01
  -5   2   2    8.86    0.92
  -4   2   2   21.00    1.65
  -4   2   2   18.32    2.04
  -3   2   2    0.27    0.59
  -3   2   2    0.39    0.30
  -3   2   2    0.01    0.24
  -2   2   2    1.09    0.49
  -2   2   2    1.28    0.30
  -2   2   2    1.12    0.26
  -2   2   2    1.05    0.31
   1  -2  -2    6.60    0.55
   1  -2  -2    6.59    0.49
  -1   2   2    5.94    0.53
  -1   2   2    6.10    0.50
   0  -2  -2    1.20    0.16
   0  -2  -2    1.08    0.19
  -1  -2  -2   11.46    0.83
  -1  -2  -2   12.84    0.84
  -1  -2  -2   13.03    1.01
  -2  -2  -2   76.97    4.96
  -3  -2  -2    0.48    0.28
  -3  -2  -2   -0.05    0.27
  -3  -2  -2   -0.09    0.36
  -3  -2  -2   -0.25    0.22
  -3  -2  -2   -0.14    0.36
  -3  -2  -2   -0.46    0.62
  -3  -2  -2   -0.07    0.21
  -3  -2  -2    0.08    0.19
  -4  -2  -2    1.00    0.34
  -4  -2  -2    0.40    0.32
  -4  -2  -2    1.36    0.55
  -4  -2  -2    0.95    0.31
  -4  -2  -2    0.92    0.96
  -5  -2  -2    3.24    0.29
  -5  -2  -2    2.99    0.52
  -5   3   2    3.34    0.84
  -4   3   2   16.02    1.84
  -3   3   2    0.06    0.10
  -3   3   2    0.19    0.29
  -3   3   2    0.87    0.71
  -3   3   2   -0.11    0.42
  -3   3   2    0.11    0.12
  -3   3   2    0.61    0.35
  -2   3   2   -0.10    0.45
  -2   3   2   -0.12    0.28
  -2   3   2    0.07    0.23
   1  -3  -2   59.47    3.53
   1  -3  -2   55.96    3.56
  -1   3   2   52.33    3.54
  -1   3   2   51.98    3.52
  -1   3   2   50.89    3.59
   0  -3  -2   19.77    1.25
   0  -3  -2   17.60    1.23
   0  -3  -2   17.58    1.32
   0  -3  -2   18.64    1.25
  -1  -3  -2    0.51    0.54
  -1  -3  -2    0.61    0.22
  -2  -3  -2    0.23    0.21
  -3  -3  -2   17.78    1.22
  -3  -3  -2   16.16    1.17
  -3  -3  -2   16.83    1.18
  -3  -3  -2   17.23    1.37
  -3  -3  -2   15.79    1.15
  -3  -3  -2   15.01    1.55
  -3  -3  -2   17.21    1.20
  -4  -3  -2    2.63    0.37
  -4  -3  -2    2.84    0.37
  -4  -3  -2    1.34    0.96
  -4  -3  -2    3.66    0.59
  -4  -3  -2    1.88    0.40
   4  -4  -2    0.31    0.60
  -4   4   2    1.20    0.86
   3  -4  -2    3.60    0.65
  -3   4   2    3.26    0.49
  -3   4   2    2.76    0.77
  -3   4   2    4.89    0.77
  -3   4   2    2.98    0.36
  -3   4   2    1.91    0.46
  -2   4   2    3.53    0.50
  -2   4   2    4.59    0.69
  -2   4   2    5.06    0.54
   1  -4  -2   -0.04    0.25
  -1   4   2    0.41    0.38
   0  -4  -2   11.16    0.84
   0  -4  -2   11.17    0.87
   0  -4  -2   13.00    0.87
   0  -4  -2   10.53    1.02
  -1  -4  -2    4.38    0.54
  -1  -4  -2    6.93    0.52
  -1  -4  -2    6.75    0.79
  -2  -4  -2    0.25    0.37
  -2  -4  -2   -0.23    0.34
  -2  -4  -2    0.23    0.27
  -3  -4  -2    1.95    0.41
  -3  -4  -2    1.87    0.90
  -3  -4  -2    0.91    0.48
  -3  -4  -2    1.77    0.33
  -3  -4  -2    2.10    0.54
  -3  -4  -2    1.42    0.39
  -4  -4  -2    1.11    0.29
  -4  -4  -2    2.15    0.31
  -4  -4  -2    1.13    0.29
  -4  -4  -2    1.06    0.83
  -4  -4  -2    1.40    0.50
  -4  -4  -2    1.12    0.33
   5  -5  -2    0.11    0.46
   4  -5  -2    3.17    0.70
  -4   5   2    2.38    0.85
   3  -5  -2    5.16    0.78
  -3   5   2    6.49    0.79
  -3   5   2    6.33    1.03
  -3   5   2    4.88    0.51
  -3   5   2    6.21    0.92
  -3   5   2    5.69    0.81
   2  -5  -2    4.63    0.62
  -2   5   2    4.48    0.77
  -2   5   2    4.15    0.75
  -2   5   2    4.53    0.56
   1  -5  -2    0.53    0.31
   1  -5  -2    0.93    0.48
   0  -5  -2    0.21    0.22
   0  -5  -2    0.52    0.29
   0  -5  -2    0.12    0.22
   0  -5  -2   -0.01    0.35
   0  -5  -2    0.75    0.50
  -1  -5  -2    8.84    0.68
  -1  -5  -2    7.68    0.69
  -2  -5  -2    7.70    0.74
  -2  -5  -2    8.19    0.86
  -2  -5  -2    8.44    0.78
  -2  -5  -2    9.78    1.12
  -2  -5  -2    8.59    0.98
  -3  -5  -2    1.13    0.50
  -3  -5  -2    1.32    0.38
  -3  -5  -2    1.60    0.42
  -3  -5  -2    1.08    0.54
  -3  -5  -2    1.33    0.31
  -3  -5  -2    1.81    0.91
  -4  -5  -2   -0.25    0.23
  -4  -5  -2    0.18    0.21
  -4  -5  -2    0.09    0.23
  -4  -5  -2   -0.10    0.24
  -4  -5  -2   -0.61    0.44
  -4  -5  -2   -0.91    0.65
   5  -6  -2    1.02    0.46
   4  -6  -2    1.61    0.62
  -4   6   2    1.47    0.84
   3  -6  -2   23.97    1.90
   3  -6  -2   26.44    1.80
  -3   6   2   19.29    1.80
  -3   6   2   27.15    2.14
  -3   6   2   23.00    1.80
  -3   6   2   22.08    1.92
  -3   6   2   22.67    1.60
   2  -6  -2    2.19    0.62
   2  -6  -2    1.79    0.55
  -2   6   2    2.01    0.41
  -2   6   2    2.28    0.62
  -2   6   2    1.84    0.74
  -2   6   2    2.44    0.78
   1  -6  -2    6.03    0.69
   1  -6  -2    5.84    0.62
   1  -6  -2    5.39    0.59
  -1   6   2    4.28    0.73
   0  -6  -2   15.28    1.24
   0  -6  -2   16.37    1.20
   0  -6  -2   16.72    1.19
  -1  -6  -2    0.41    0.32
  -1  -6  -2    0.31    0.34
  -2  -6  -2    0.32    0.48
  -2  -6  -2    0.37    0.53
  -2  -6  -2    0.54    0.78
  -3  -6  -2    1.81    0.34
  -3  -6  -2    2.73    0.94
  -3  -6  -2    1.79    0.42
  -3  -6  -2    1.42    0.55
  -4  -6  -2   -0.02    0.17
  -4  -6  -2   -0.21    0.23
  -4  -6  -2   -0.23    0.57
   5  -7  -2    1.44    0.40
   4  -7  -2    2.36    0.63
   4  -7  -2    1.95    0.66
   3  -7  -2    0.76    0.62
   3  -7  -2    0.43    0.57
  -3   7   2    0.67    0.76
  -3   7   2    0.17    0.59
   2  -7  -2    6.51    0.76
   2  -7  -2    5.62    0.85
  -2   7   2    5.30    0.85
  -2   7   2    3.57    0.85
   1  -7  -2   53.62    3.84
   1  -7  -2   55.28    3.76
  -1   7   2   59.02    3.91
  -1   7   2   57.65    3.94
   0  -7  -2    5.72    0.63
   0  -7  -2    6.03    0.63
   0   7   2    4.80    0.89
  -1  -7  -2    3.89    0.50
  -2  -7  -2    0.99    0.48
  -2  -7  -2    1.76    0.58
  -3  -7  -2    0.23    0.30
  -3  -7  -2   -0.11    0.62
   4  -8  -2    0.10    0.48
   4  -8  -2    0.04    0.40
   3  -8  -2    0.44    0.52
   3  -8  -2    0.34    0.62
  -3   8   2    0.42    0.56
  -3   8   2    1.01    0.75
   2  -8  -2    7.75    0.87
   2  -8  -2    6.35    0.91
  -2   8   2    4.40    0.91
  -2   8   2    8.16    1.02
   1  -8  -2    4.83    0.76
   1  -8  -2    5.08    0.70
  -1   8   2    5.91    1.01
  -1   8   2    5.62    0.98
   0  -8  -2    1.20    0.42
   0   8   2    1.03    0.76
  -1  -8  -2    4.75    0.58
  -2  -8  -2    1.99    0.50
  -2  -8  -2    1.68    0.47
  -3  -8  -2    2.64    0.31
   4  -9  -2    0.70    0.40
   3  -9  -2    9.59    1.04
   3  -9  -2   12.09    1.00
  -3   9   2   11.05    1.11
   2  -9  -2    1.76    0.55
   2  -9  -2    2.07    0.61
  -2   9   2    1.44    0.74
  -2   9   2    3.38    0.73
   1  -9  -2    0.83    0.46
  -1   9   2    1.01    0.75
  -1   9   2    0.95    0.75
   0   9   2    0.73    0.79
  -1  -9  -2   -0.06    0.22
  -1  -9  -2   -0.03    0.28
   1   9   2    0.24    0.73
  -2  -9  -2    2.88    0.36
  -2  -9  -2    1.50    0.36
  -2  -9  -2    1.07    0.33
   3 -10  -2    0.82    0.32
   3 -10  -2    0.86    0.35
   2 -10  -2    0.06    0.39
  -2  10   2    0.12    0.49
  -2  10   2    1.03    0.58
  -1  10   2    4.95    0.72
  -1  10   2    0.97    0.64
   0 -10  -2    0.71    0.38
   0  10   2   -0.43    0.57
   1  10   2    0.21    0.45
  -1  11   2    0.22    0.37
   0  11   2    0.29    0.39
   0  12  -3    3.89    0.57
  -1  12  -3    0.50    0.41
   1  11  -3    0.59    0.61
   1  11  -3    1.07    0.54
  -1 -11   3    0.60    0.30
   0  11  -3    6.10    0.89
   0  11  -3    7.64    0.89
   0 -11   3    8.57    0.87
   0 -11   3    4.65    0.58
  -1  11  -3    0.66    0.60
  -1  11  -3    0.24    0.59
   1 -11   3    0.78    0.42
   1 -11   3    0.20    0.36
  -2  11  -3    0.60    0.44
   2 -11   3    0.98    0.39
   2 -11   3    0.70    0.48
   3 -11   3    3.03    0.51
   2  10  -3    3.06    0.66
   1  10  -3    2.23    0.78
  -1 -10   3    1.93    0.51
   0  10  -3    1.55    0.79
   0  10  -3    1.13    0.74
   0 -10   3    1.42    0.57
   0 -10   3    1.19    0.48
  -1  10  -3   -0.14    0.75
  -1  10  -3    0.07    0.76
   1 -10   3    0.05    0.59
   1 -10   3    0.28    0.51
  -2  10  -3   11.61    1.37
   2 -10   3   15.37    1.27
   2 -10   3   17.12    1.40
   3 -10   3    1.92    0.55
   3 -10   3    1.97    0.46
   3   9  -3    4.51    0.82
  -3  -9   3    6.53    0.82
   2   9  -3    2.72    0.82
  -2  -9   3    3.35    0.89
  -2  -9   3    2.78    0.46
   1   9  -3   -0.07    0.76
  -1  -9   3    0.62    0.51
  -1  -9   3   -0.27    0.39
   0   9  -3   10.00    1.30
   0   9  -3   14.73    1.43
   0  -9   3   13.54    1.12
   0  -9   3   13.15    1.29
   0  -9   3   12.23    1.18
  -1   9  -3    0.94    0.86
  -1   9  -3    0.78    0.83
   1  -9   3   -0.28    0.53
   1  -9   3   -0.43    0.55
  -2   9  -3    2.02    1.04
  -2   9  -3   -0.28    0.77
   2  -9   3    0.38    0.56
   2  -9   3   -0.29    0.59
   3  -9   3   -0.21    0.56
   4  -9   3    0.10    0.45
  -3  -8   3   -0.57    0.62
   2   8  -3    5.21    0.99
  -2  -8   3    4.52    0.59
   1   8  -3    0.13    0.76
  -1  -8   3   -0.57    0.55
  -1  -8   3   -0.17    0.44
   0   8  -3   16.96    1.60
   0   8  -3   16.71    1.48
   0  -8   3   15.65    1.32
   0  -8   3   17.22    1.39
   0  -8   3   17.03    1.39
   0  -8   3   15.14    1.32
  -1   8  -3   26.31    1.78
  -1   8  -3   24.69    2.07
  -1   8  -3   21.56    1.96
   1  -8   3   24.44    1.83
   1  -8   3   26.56    1.95
  -2   8  -3    0.37    0.92
  -2   8  -3    1.29    0.22
  -2   8  -3    2.06    1.17
  -2   8  -3    1.33    0.88
  -2   8  -3    1.13    0.41
   2  -8   3    1.21    0.59
   2  -8   3    1.58    0.64
  -3   8  -3    4.15    1.24
   3  -8   3    3.24    0.80
   4  -8   3   -0.04    0.54
  -4  -7   3    2.52    0.31
  -4  -7   3    4.49    0.74
  -4  -7   3    2.59    0.38
  -3  -7   3    1.24    0.93
  -3  -7   3    0.11    0.28
   2   7  -3   12.65    1.39
  -2  -7   3   12.12    1.10
   1   7  -3    4.23    0.88
  -1  -7   3    3.96    0.50
  -1  -7   3    4.32    0.59
  -1  -7   3    4.41    0.69
  -1  -7   3    4.09    0.65
   0   7  -3    1.04    0.66
   0   7  -3    1.15    0.67
   0  -7   3    1.21    0.50
   0  -7   3    1.15    0.70
   0  -7   3    0.01    0.42
   0  -7   3    1.14    0.46
  -1   7  -3    1.00    0.73
  -1   7  -3    0.05    0.27
  -1   7  -3    0.40    0.63
   1  -7   3    0.09    0.46
   1  -7   3    0.26    0.43
  -2   7  -3    3.29    0.50
  -2   7  -3    3.29    0.35
  -2   7  -3    2.55    0.76
   2  -7   3    3.89    0.68
  -3   7  -3    0.01    1.05
   3  -7   3    0.46    0.60
  -4   7  -3    3.79    1.07
  -5   7  -3    0.65    0.20
  -5   7  -3    0.96    0.18
  -5   7  -3    0.16    0.30
  -5   7  -3    0.78    0.55
  -4  -6   3    0.68    0.41
  -4  -6   3    0.27    0.46
  -4  -6   3    1.44    0.81
  -3  -6   3    1.63    0.49
  -3  -6   3    1.70    0.43
  -3  -6   3    2.33    1.07
   2   6  -3    4.56    1.16
  -2  -6   3    4.64    0.56
  -2  -6   3    4.62    0.52
  -2  -6   3    3.84    0.60
  -1  -6   3   26.95    1.88
  -1  -6   3   29.39    1.86
  -1  -6   3   23.92    1.90
  -1  -6   3   25.76    1.85
   0  -6   3    3.38    0.49
  -1   6  -3   15.38    1.23
  -1   6  -3   19.19    1.61
  -1   6  -3   17.96    1.25
  -2   6  -3    0.14    0.32
  -2   6  -3    0.21    0.61
  -2   6  -3    0.66    0.36
  -2   6  -3    0.11    0.12
  -2   6  -3    0.38    0.12
  -3   6  -3    1.75    0.42
  -3   6  -3   -0.05    1.08
  -3   6  -3   -0.05    0.31
  -4   6  -3    2.41    1.25
  -4   6  -3    1.31    0.86
  -4   6  -3    1.54    0.64
  -5   6  -3    0.77    0.59
  -5   6  -3    0.49    0.17
  -5   6  -3    0.48    0.36
  -5   6  -3    0.67    0.19
  -4  -5   3   -0.74    0.69
  -4  -5   3    0.10    0.89
  -4  -5   3    0.06    0.48
  -3  -5   3    0.63    0.43
  -3  -5   3    0.55    0.35
  -3  -5   3    0.01    0.93
  -2  -5   3    1.33    0.43
  -2  -5   3    1.49    0.32
  -2  -5   3    1.59    0.40
  -1  -5   3    0.27    0.31
  -1  -5   3    0.01    0.35
  -1  -5   3   -0.04    0.41
   0   5  -3   53.59    3.79
   0  -5   3   57.07    3.83
   0  -5   3   64.19    3.94
  -1   5  -3   55.74    3.78
  -1   5  -3   63.11    3.98
  -1   5  -3   56.86    3.78
  -1   5  -3   56.32    3.80
  -2   5  -3   31.90    2.28
  -2   5  -3   30.03    2.07
  -2   5  -3   30.68    2.12
  -3   5  -3    2.37    0.39
  -3   5  -3    3.56    0.82
  -3   5  -3    2.54    0.52
  -3   5  -3    2.23    1.09
  -3   5  -3    2.97    0.47
  -3   5  -3    3.11    0.53
  -4   5  -3    0.47    0.82
  -4   5  -3    0.16    0.37
  -4   5  -3    0.80    1.23
  -4   5  -3    0.61    0.56
  -5   5  -3    0.92    0.57
  -5   5  -3    0.23    0.38
  -5   5  -3    0.29    0.49
  -5  -4   3    0.51    0.28
  -5  -4   3   -0.19    0.65
  -4  -4   3   17.75    1.79
  -4  -4   3   14.86    1.27
  -3  -4   3    1.64    0.78
  -3  -4   3    3.05    0.45
  -3  -4   3    2.37    0.54
  -3  -4   3    2.40    0.42
  -2  -4   3    2.65    0.38
  -2  -4   3    2.53    0.43
  -1  -4   3   11.38    0.99
  -1  -4   3   11.28    0.86
   0   4  -3   56.73    3.62
   0   4  -3   54.34    3.64
   0  -4   3   56.91    3.66
   0  -4   3   54.92    3.63
  -1   4  -3   34.95    2.46
  -1   4  -3   34.34    2.28
  -1   4  -3   36.48    2.29
  -1   4  -3   33.11    2.31
  -2   4  -3    1.14    0.75
  -2   4  -3    3.46    0.67
  -2   4  -3    3.03    0.34
  -2   4  -3    2.01    0.37
  -3   4  -3    1.37    0.33
  -3   4  -3    1.32    0.36
  -3   4  -3    1.72    0.41
  -3   4  -3    1.94    0.57
  -3   4  -3    1.57    0.89
  -3   4  -3    1.80    0.64
  -3   4  -3    1.92    0.42
  -3   4  -3    1.03    0.27
  -4   4  -3   16.90    1.24
  -4   4  -3   14.37    1.54
  -4   4  -3   14.00    1.59
  -4   4  -3   15.36    2.09
  -4   4  -3   14.62    1.10
  -5   4  -3    5.72    0.66
  -5   4  -3    6.23    0.58
  -5   4  -3    6.82    0.82
  -5  -3   3    0.38    0.33
  -5  -3   3    0.60    0.28
  -5  -3   3    0.09    0.23
  -4  -3   3    4.01    0.40
  -4  -3   3    3.12    1.02
  -4  -3   3    3.22    0.61
  -4  -3   3    3.50    0.38
  -3  -3   3    0.86    0.34
  -3  -3   3   -0.86    0.59
  -3  -3   3    0.26    0.30
  -2  -3   3   47.20    2.91
  -2  -3   3   47.27    2.91
  -2  -3   3   39.68    2.96
  -2  -3   3   44.19    2.96
  -1  -3   3    7.98    0.65
  -1  -3   3    8.02    0.75
   0   3  -3   20.78    1.38
   0   3  -3   21.25    1.37
   0  -3   3   20.56    1.37
   0  -3   3   19.24    1.41
  -1   3  -3    0.32    0.19
  -1   3  -3    0.50    0.37
  -1   3  -3    0.48    0.12
  -1   3  -3    0.33    0.11
  -1   3  -3    0.42    0.17
  -2   3  -3    3.42    0.43
  -2   3  -3    2.98    0.75
  -2   3  -3    3.52    0.69
  -2   3  -3    3.29    0.35
  -3   3  -3   10.80    0.72
  -3   3  -3    9.58    0.63
  -3   3  -3   11.08    1.38
  -3   3  -3   11.95    0.88
  -3   3  -3   10.22    0.91
  -3   3  -3    7.97    0.62
  -4   3  -3    9.44    1.19
  -4   3  -3    9.06    0.91
  -4   3  -3    8.18    1.42
  -4   3  -3    7.88    0.78
  -4   3  -3    9.43    0.72
  -4   3  -3    8.88    0.80
  -4   3  -3    8.99    0.98
  -5   3  -3    2.51    0.52
  -5   3  -3    1.92    0.38
  -5   3  -3    2.76    0.39
  -5   3  -3    2.10    0.39
  -5   3  -3    3.39    0.41
  -5   3  -3    2.59    0.74
  -5  -2   3    0.30    0.42
  -5  -2   3    0.20    0.36
  -4  -2   3    1.76    0.97
  -4  -2   3    0.80    0.35
  -4  -2   3    0.04    0.69
  -4  -2   3    0.90    0.58
  -4  -2   3    0.49    0.35
  -3  -2   3   12.11    0.97
  -3  -2   3   12.58    0.97
  -2  -2   3   58.35    3.68
  -2  -2   3   55.99    3.68
  -2  -2   3   55.55    3.71
   1   2  -3    1.39    0.23
   1   2  -3    1.23    0.23
  -1  -2   3    1.45    0.29
  -1  -2   3    1.27    0.25
   0   2  -3    0.24    0.14
   0   2  -3    0.39    0.17
   0   2  -3    0.09    0.14
   0  -2   3   -0.08    0.19
  -1   2  -3   10.35    0.77
  -1   2  -3   11.75    0.82
  -1   2  -3   12.08    0.77
  -1   2  -3   12.01    0.95
  -2   2  -3   21.95    1.51
  -2   2  -3   21.62    1.68
  -2   2  -3   22.11    1.41
  -2   2  -3   19.17    1.71
  -3   2  -3    3.49    0.50
  -3   2  -3    4.31    0.57
  -3   2  -3    4.63    0.86
  -3   2  -3    3.50    0.35
  -4   2  -3    3.58    0.53
  -4   2  -3    3.89    0.46
  -4   2  -3    3.73    0.61
  -4   2  -3    1.94    1.14
  -4   2  -3    2.85    0.41
  -4   2  -3    2.63    0.66
  -4   2  -3    3.14    0.35
  -4   2  -3    3.73    0.35
  -5   2  -3   -0.13    0.25
  -5   2  -3   -0.14    0.64
  -5   2  -3    0.17    0.24
  -5   2  -3    0.12    0.24
  -5   2  -3   -0.38    0.22
  -5  -1   3    1.54    0.48
  -5  -1   3    1.67    0.46
  -4  -1   3   13.45    1.21
  -4  -1   3   11.76    1.07
  -4  -1   3   11.37    1.46
  -4  -1   3   13.99    1.06
  -4  -1   3   11.61    0.93
  -3  -1   3    7.53    1.08
  -3  -1   3    5.39    0.60
  -2  -1   3    2.73    0.60
  -2  -1   3    2.26    0.38
  -2  -1   3    2.53    0.31
  -2  -1   3    2.73    0.33
   1   1  -3    0.14    0.20
   1   1  -3   -0.11    0.16
  -1  -1   3   -0.10    0.24
  -1  -1   3    0.12    0.22
   0   1  -3    2.97    0.27
   0   1  -3    2.86    0.29
  -1   1  -3    7.49    0.51
  -1   1  -3    6.98    0.70
  -1   1  -3    7.41    0.59
  -1   1  -3    8.01    0.51
  -2   1  -3   14.40    1.37
  -2   1  -3   16.38    1.17
  -2   1  -3   15.74    1.39
  -2   1  -3   15.98    1.04
  -3   1  -3    3.77    0.38
  -3   1  -3    2.46    0.70
  -3   1  -3    3.94    0.34
  -3   1  -3    3.01    0.31
  -4   1  -3    1.16    0.89
  -4   1  -3    0.90    0.36
  -4   1  -3    0.71    0.32
  -4   1  -3    0.49    0.37
  -4   1  -3    1.23    0.30
  -4   1  -3    0.57    0.55
  -4   1  -3    1.39    0.40
  -5   1  -3    0.22    0.15
  -5   1  -3   -0.08    0.60
  -5   1  -3    0.13    0.13
  -5   1  -3    0.50    0.21
  -5   0   3    3.02    0.75
  -5   0   3    1.35    0.50
  -5   0   3    3.34    0.61
  -4   0   3   24.52    1.87
  -4   0   3   26.63    2.36
  -3   0   3    4.14    0.79
  -3   0   3    4.95    0.54
  -2   0   3    0.61    0.29
  -2   0   3    0.36    0.46
  -2   0   3    0.11    0.23
  -2   0   3    0.16    0.19
   1   0  -3    0.17    0.16
   1   0  -3   -0.09    0.16
  -1   0   3   -0.16    0.20
  -1   0   3   -0.07    0.18
   0   0  -3   81.21    5.13
   0   0  -3   82.95    5.12
   0   0  -3   75.39    5.17
  -1   0  -3  177.85   11.65
  -1   0  -3  184.43   11.68
  -2   0  -3    3.67    0.29
  -2   0  -3    3.78    0.30
  -2   0  -3    3.00    0.56
  -3   0  -3   -0.01    0.12
  -3   0  -3    0.40    0.26
  -3   0  -3    0.12    0.15
  -3   0  -3    0.33    0.29
  -3   0  -3    0.81    0.95
  -3   0  -3   -0.05    0.13
  -3   0  -3    0.18    0.20
  -4   0  -3    9.10    0.68
  -4   0  -3    8.99    0.68
  -4   0  -3    7.69    0.73
  -4   0  -3    8.45    1.10
  -4   0  -3    5.21    1.13
  -4   0  -3    8.49    0.74
  -5   0  -3    3.03    0.60
  -5   0  -3    2.32    0.25
  -5   1   3    6.75    0.98
  -4   1   3    2.00    0.96
  -4   1   3    1.58    0.76
  -3   1   3    0.52    0.30
  -3   1   3    0.65    0.26
  -3   1   3    0.67    0.63
  -3   1   3    0.59    0.37
  -2   1   3   69.16    4.31
  -2   1   3   64.54    4.30
  -2   1   3   70.30    4.31
  -2   1   3   60.10    4.41
   1  -1  -3   13.21    0.89
   1  -1  -3   12.60    0.90
  -1   1   3   11.71    0.91
  -1   1   3   12.47    0.88
   0  -1  -3  179.70   12.70
   0  -1  -3  202.80   12.68
   0  -1  -3  212.02   12.66
  -1  -1  -3   84.99    5.42
  -1  -1  -3   81.67    5.31
  -1  -1  -3   82.42    5.31
  -2  -1  -3    7.34    0.52
  -3  -1  -3    0.31    0.11
  -3  -1  -3    0.27    0.22
  -3  -1  -3    0.20    0.13
  -3  -1  -3    0.16    0.23
  -3  -1  -3    0.36    0.12
  -3  -1  -3    0.21    0.24
  -3  -1  -3   -0.31    1.22
  -3  -1  -3    0.55    0.75
  -4  -1  -3    5.01    0.56
  -4  -1  -3    5.28    0.56
  -4  -1  -3    5.56    0.70
  -4  -1  -3    5.69    1.16
  -4  -1  -3    5.84    0.50
  -4  -1  -3    5.76    0.53
  -5  -1  -3    0.45    0.46
  -5   2   3    0.17    0.81
  -4   2   3    1.70    0.89
  -3   2   3    0.07    0.16
  -3   2   3   -0.02    0.42
  -3   2   3    0.01    0.25
  -3   2   3   -0.03    0.60
  -3   2   3    0.11    0.28
  -2   2   3    5.13    0.52
  -2   2   3    3.88    0.69
  -2   2   3    4.17    0.54
   1  -2  -3   22.73    1.45
   1  -2  -3   23.35    1.48
   1  -2  -3   21.38    1.51
  -1   2   3   19.61    1.47
  -1   2   3   20.35    1.45
   0  -2  -3   18.95    1.20
   0  -2  -3   17.37    1.23
   0  -2  -3   18.52    1.21
   0  -2  -3   18.40    1.33
  -1  -2  -3    6.75    0.51
  -1  -2  -3    6.64    0.77
  -2  -2  -3  175.91   11.27
  -3  -2  -3    4.32    0.37
  -3  -2  -3    4.11    0.33
  -3  -2  -3    4.62    0.42
  -3  -2  -3    4.67    0.45
  -3  -2  -3    4.15    0.48
  -3  -2  -3    4.77    0.46
  -3  -2  -3    3.49    0.87
  -4  -2  -3    1.35    0.25
  -4  -2  -3    1.44    0.27
  -4  -2  -3    1.20    0.29
  -4  -2  -3    1.74    0.50
  -4  -2  -3    0.58    0.95
  -5  -2  -3    0.00    0.37
   4  -3  -3   30.93    2.35
  -3   3   3   20.87    1.44
  -3   3   3   22.99    1.59
  -3   3   3   20.74    1.51
  -3   3   3   21.83    1.88
  -3   3   3   18.94    1.58
  -2   3   3    1.83    0.34
  -2   3   3    1.54    0.57
  -2   3   3    1.58    0.34
   1  -3  -3    5.83    0.54
   1  -3  -3    5.15    0.62
  -1   3   3    4.43    0.73
   0  -3  -3    0.36    0.14
   0  -3  -3    0.92    0.18
   0  -3  -3    0.61    0.44
   0  -3  -3    0.41    0.23
  -1  -3  -3    5.45    0.77
  -1  -3  -3    4.07    0.43
  -2  -3  -3    5.65    0.58
  -2  -3  -3    5.62    0.50
  -3  -3  -3   -0.01    0.16
  -3  -3  -3    0.17    0.89
  -3  -3  -3    0.28    0.31
  -3  -3  -3    0.09    0.18
  -3  -3  -3   -0.03    0.32
  -3  -3  -3    0.48    0.43
  -3  -3  -3    0.17    0.31
  -4  -3  -3   -0.20    0.87
  -4  -3  -3    1.11    0.47
  -4  -3  -3    0.44    0.26
  -4  -3  -3    0.84    0.23
  -4  -3  -3    0.70    0.20
   5  -4  -3    0.18    0.50
  -5   4   3   -0.30    0.27
  -5   4   3   -0.02    0.26
   4  -4  -3    0.80    0.63
  -4   4   3    1.71    0.63
  -4   4   3    0.91    0.92
   3  -4  -3    7.62    0.89
  -3   4   3    5.73    0.81
  -3   4   3    5.60    0.94
  -3   4   3    6.24    0.73
  -3   4   3    7.51    0.96
  -3   4   3    5.75    0.58
  -2   4   3    4.61    0.73
  -2   4   3    4.37    0.55
   1  -4  -3    0.41    0.29
   1  -4  -3    0.44    0.45
   0  -4  -3   31.79    2.07
   0  -4  -3   32.29    2.26
   0  -4  -3   32.00    2.08
   0  -4  -3   32.46    2.15
  -1  -4  -3   10.01    0.79
  -1  -4  -3   11.30    1.11
  -2  -4  -3    0.81    0.37
  -2  -4  -3    0.83    0.36
  -2  -4  -3    0.73    0.40
  -2  -4  -3    0.65    0.38
  -2  -4  -3    0.80    0.64
  -2  -4  -3    1.13    0.31
  -3  -4  -3    0.91    0.46
  -3  -4  -3    0.29    0.35
  -3  -4  -3    0.49    0.88
  -3  -4  -3    0.67    0.35
  -3  -4  -3    0.01    0.43
  -3  -4  -3    0.94    0.38
  -3  -4  -3    0.45    0.19
  -4  -4  -3    5.13    0.76
  -4  -4  -3    5.23    0.37
  -4  -4  -3    2.03    0.86
  -4  -4  -3    4.40    0.44
  -4  -4  -3    5.02    0.45
  -4  -4  -3    5.39    0.48
   5  -5  -3    2.65    0.58
  -5   5   3    4.25    0.44
  -5   5   3    3.43    0.37
   4  -5  -3    0.59    0.59
  -4   5   3   -0.38    0.44
  -4   5   3   -1.20    0.73
   3  -5  -3    0.35    0.50
   3  -5  -3    0.06    0.55
  -3   5   3    0.20    0.24
  -3   5   3    0.23    0.75
  -3   5   3   -0.12    0.44
  -3   5   3    0.49    0.75
  -3   5   3    0.08    0.55
   2  -5  -3    0.09    0.47
   2  -5  -3    0.86    0.49
  -2   5   3    1.68    0.60
  -2   5   3    0.88    0.52
   1  -5  -3    5.08    0.57
   1  -5  -3    4.86    0.67
   0  -5  -3    2.53    0.40
   0  -5  -3    2.55    0.65
  -1  -5  -3    0.64    0.26
  -1  -5  -3    0.24    0.44
  -1  -5  -3    0.73    0.30
  -2  -5  -3    7.78    0.90
  -2  -5  -3    9.61    0.86
  -2  -5  -3   10.35    0.99
  -2  -5  -3    9.70    1.13
  -3  -5  -3    0.43    0.16
  -3  -5  -3    0.62    0.35
  -3  -5  -3    0.48    0.47
  -3  -5  -3    0.33    0.47
  -3  -5  -3    1.00    0.84
  -4  -5  -3   -0.56    0.67
  -4  -5  -3    0.07    0.17
  -4  -5  -3    0.08    0.16
  -4  -5  -3   -0.09    0.40
   5  -6  -3    0.66    0.42
   4  -6  -3    0.97    0.60
   4  -6  -3    2.79    0.75
  -4   6   3    1.19    0.49
   3  -6  -3   17.69    1.44
   3  -6  -3   15.77    1.53
  -3   6   3   16.82    1.52
  -3   6   3   20.28    1.61
   2  -6  -3    2.85    0.66
   2  -6  -3    2.32    0.56
  -2   6   3    3.33    0.76
  -2   6   3    3.01    0.68
   1  -6  -3    3.98    0.61
   1  -6  -3    2.90    0.50
   1  -6  -3    2.48    0.42
  -1   6   3    4.15    0.80
   0  -6  -3    2.02    0.40
   0  -6  -3    2.10    0.41
  -1  -6  -3   -0.02    0.45
  -1  -6  -3   -0.38    0.47
  -1  -6  -3    0.67    0.33
  -2  -6  -3   -0.27    0.77
  -2  -6  -3    0.49    0.44
  -2  -6  -3    1.11    0.50
  -3  -6  -3   -0.39    0.50
  -3  -6  -3    0.58    0.80
  -3  -6  -3    0.99    0.33
   4  -7  -3    1.17    0.50
   4  -7  -3    2.72    0.61
  -4   7   3    2.60    0.55
   3  -7  -3    0.07    0.52
   3  -7  -3    0.73    0.61
  -3   7   3   -0.10    0.74
  -3   7   3    0.82    0.63
   2  -7  -3   15.85    1.40
   2  -7  -3   14.96    1.31
  -2   7   3   14.95    1.45
  -2   7   3   15.58    1.42
   1  -7  -3    0.30    0.47
   1  -7  -3    0.33    0.30
   1  -7  -3    0.47    0.53
  -1   7   3    0.69    0.87
  -1   7   3    0.40    0.68
   0  -7  -3   12.04    1.27
   0  -7  -3   11.73    1.06
   0   7   3   13.99    1.31
  -1  -7  -3   13.83    1.11
  -1  -7  -3   14.15    1.14
  -2  -7  -3    0.43    0.44
  -2  -7  -3    0.07    0.46
  -3  -7  -3   -0.08    0.29
  -3  -7  -3    0.25    0.26
   4  -8  -3    2.50    0.47
   4  -8  -3    2.38    0.53
   3  -8  -3    1.99    0.64
   3  -8  -3    1.54    0.56
  -3   8   3    2.20    0.62
  -3   8   3    2.79    0.72
   2  -8  -3    3.90    0.65
   2  -8  -3    2.53    0.67
  -2   8   3    3.23    0.82
  -2   8   3    2.59    0.68
   1  -8  -3   11.93    1.00
  -1   8   3   11.09    1.22
  -1   8   3    9.46    1.25
   0   8   3   17.91    1.66
  -1  -8  -3    0.23    0.26
  -1  -8  -3    0.28    0.26
  -2  -8  -3    0.18    0.37
  -2  -8  -3    0.57    0.37
  -2  -8  -3    0.42    0.39
   3  -9  -3    1.32    0.48
   3  -9  -3    2.44    0.48
  -3   9   3    0.85    0.55
   2  -9  -3    2.49    0.67
   2  -9  -3    2.31    0.53
  -2   9   3    0.94    0.68
  -2   9   3    2.04    0.61
   1  -9  -3    1.15    0.41
  -1   9   3    1.16    0.75
  -1   9   3    1.39    0.74
   0  -9  -3    3.70    0.55
   0   9   3    2.56    0.78
  -2  -9  -3    3.18    0.38
  -2  -9  -3    3.55    0.27
  -2  -9  -3    3.03    0.26
  -2  -9  -3    4.80    0.58
   2 -10  -3    5.32    0.56
  -2  10   3    4.96    0.69
  -2  10   3    6.52    0.72
  -1  10   3    0.88    0.56
  -1  10   3   -0.27    0.49
   0 -10  -3    2.35    0.31
   0 -10  -3    2.19    0.31
   0  10   3    0.72    0.52
  -1 -10  -3   -0.46    0.55
   0  12  -4   -0.06    0.36
  -1  12  -4    0.64    0.36
   1 -12   4    0.44    0.32
   1  11  -4    0.19    0.47
   1  11  -4    0.62    0.56
   0  11  -4    4.34    0.80
   0  11  -4    4.80    0.77
   0 -11   4    4.26    0.54
   0 -11   4    6.11    0.65
  -1  11  -4    8.34    0.93
  -1  11  -4    6.00    0.85
  -2  11  -4    1.44    0.43
   2 -11   4    1.36    0.41
   2 -11   4    1.52    0.53
   3 -11   4    0.35    0.40
   2  10  -4    0.80    0.59
  -2 -10   4    0.74    0.54
  -2 -10   4    0.40    0.28
  -2 -10   4    0.58    0.34
   1  10  -4   -0.03    0.67
   1  10  -4   -1.01    0.68
  -1 -10   4    0.04    0.47
  -1 -10   4    0.17    0.37
   0  10  -4    5.78    0.94
   0  10  -4    3.43    0.87
   0 -10   4    4.90    0.65
   0 -10   4    6.96    0.76
   0 -10   4    3.48    0.64
  -1  10  -4    5.21    0.95
  -1  10  -4    5.72    0.91
   1 -10   4    4.76    0.77
   1 -10   4    3.90    0.68
  -2  10  -4    1.31    0.65
   2 -10   4    1.02    0.60
   2 -10   4    1.40    0.55
   3 -10   4    4.35    0.68
   3   9  -4    0.92    0.50
  -3  -9   4    2.31    0.58
   2   9  -4    0.64    0.71
  -2  -9   4    1.28    0.45
  -2  -9   4    1.17    0.91
   1   9  -4   16.71    1.57
   1   9  -4   16.42    1.61
  -1  -9   4   15.43    1.25
  -1  -9   4   16.65    1.40
   0   9  -4    0.80    0.79
   0   9  -4    0.46    0.76
   0  -9   4    0.57    0.64
   0  -9   4    0.17    0.52
   0  -9   4   -0.28    0.53
  -1   9  -4    0.47    0.86
  -1   9  -4    0.24    0.80
   1  -9   4   -0.30    0.54
   1  -9   4   -0.17    0.54
  -2   9  -4    2.35    1.13
  -2   9  -4    0.61    0.74
   2  -9   4    0.57    0.57
   2  -9   4    0.19    0.63
   3  -9   4   12.37    1.26
   4  -9   4    2.02    0.55
   3   8  -4    0.46    0.63
  -3  -8   4    0.86    0.22
  -3  -8   4    0.73    0.70
   2   8  -4    2.82    0.89
  -2  -8   4    2.17    0.53
   1   8  -4    1.60    0.81
   1   8  -4    1.96    0.78
  -1  -8   4    2.51    0.63
  -1  -8   4    1.73    0.55
  -1  -8   4    3.01    0.65
  -1  -8   4    1.97    0.30
   0   8  -4   10.26    1.11
   0   8  -4    9.42    1.19
   0   8  -4    8.71    1.13
   0  -8   4    5.93    0.87
   0  -8   4    5.54    0.77
   0  -8   4    6.39    0.84
  -1   8  -4   34.12    2.53
  -1   8  -4   31.21    2.23
  -1   8  -4   31.16    2.48
   1  -8   4   33.23    2.40
   1  -8   4   33.76    2.35
  -2   8  -4    3.19    0.87
   2  -8   4    2.44    0.65
  -3   8  -4    2.92    1.53
  -3   8  -4    1.80    1.11
   3  -8   4    1.89    0.70
  -4   8  -4    0.96    0.92
  -4  -7   4    1.13    0.37
  -4  -7   4    0.17    0.31
  -4  -7   4    1.24    0.61
   3   7  -4    0.11    0.77
  -3  -7   4   -0.04    0.43
  -3  -7   4    0.04    0.38
  -3  -7   4   -0.01    0.92
   2   7  -4    1.36    0.79
  -2  -7   4    0.58    0.39
  -2  -7   4    0.77    0.53
   1   7  -4    1.29    0.68
   1   7  -4    1.90    0.73
  -1  -7   4    2.32    0.52
  -1  -7   4    1.87    0.56
  -1  -7   4    1.98    0.40
  -1  -7   4    1.73    0.50
   0   7  -4   -0.28    0.59
   0   7  -4    0.60    0.70
   0   7  -4    0.17    0.63
   0  -7   4    0.20    0.54
   0  -7   4    0.40    0.44
   0  -7   4    0.10    0.43
  -1   7  -4   21.11    1.40
  -1   7  -4   19.61    1.76
  -1   7  -4   21.65    1.89
  -1   7  -4   17.37    1.59
  -1   7  -4   17.72    1.67
   1  -7   4   19.10    1.54
   1  -7   4   18.59    1.47
  -2   7  -4    7.77    0.98
  -2   7  -4    8.06    0.77
   2  -7   4    6.74    0.86
  -3   7  -4    0.79    1.13
  -3   7  -4    2.04    1.50
  -3   7  -4    1.26    0.62
  -4   7  -4    5.35    0.77
  -4   7  -4    6.65    1.08
  -5   7  -4    1.00    0.30
  -5   7  -4    1.62    0.49
  -4  -6   4    1.66    0.81
  -3  -6   4    1.71    1.00
  -3  -6   4    1.81    0.44
  -3  -6   4    1.41    0.51
   2   6  -4    0.35    0.67
  -2  -6   4    0.26    0.49
  -2  -6   4    1.86    0.34
  -2  -6   4    0.16    0.39
  -1  -6   4   23.62    1.59
  -1  -6   4   21.83    1.57
  -1  -6   4   18.53    1.59
   0   6  -4   13.94    1.08
  -1   6  -4   -0.10    0.20
  -1   6  -4   -0.60    0.28
  -1   6  -4   -0.53    0.70
  -1   6  -4    0.30    0.28
  -2   6  -4    5.50    0.60
  -2   6  -4    6.09    0.77
  -2   6  -4    4.54    0.55
  -3   6  -4    7.30    1.46
  -3   6  -4   10.14    0.93
  -3   6  -4   11.24    1.08
  -3   6  -4   11.34    1.25
  -3   6  -4    9.25    1.19
  -3   6  -4   11.54    1.73
  -4   6  -4    0.39    0.58
  -4   6  -4   -0.03    0.34
  -4   6  -4   -0.40    0.81
  -4   6  -4    0.80    1.19
  -5   6  -4   -0.56    0.29
  -5   6  -4   -0.25    0.44
  -5   6  -4   -0.25    0.30
  -4  -5   4   -0.47    0.93
  -3  -5   4    0.31    0.43
  -3  -5   4   -0.26    0.86
   2   5  -4    2.99    0.83
  -2  -5   4    4.25    0.43
  -2  -5   4    4.96    0.58
  -2  -5   4    4.93    0.51
  -2  -5   4    4.46    0.56
  -2  -5   4    4.27    0.39
  -1  -5   4   12.96    1.12
  -1  -5   4   14.43    1.04
  -1  -5   4   13.26    1.12
   0   5  -4    9.95    0.79
   0   5  -4    8.68    0.77
  -1   5  -4    2.61    0.38
  -1   5  -4    2.88    0.37
  -1   5  -4    2.77    0.38
  -1   5  -4    3.22    0.75
  -2   5  -4   25.60    2.11
  -2   5  -4   27.97    1.90
  -2   5  -4   27.17    1.82
  -3   5  -4    1.67    0.74
  -3   5  -4    2.09    0.46
  -3   5  -4    2.77    1.26
  -3   5  -4    0.74    0.30
  -3   5  -4    2.89    0.51
  -3   5  -4    1.92    1.14
  -3   5  -4    1.89    0.40
  -3   5  -4    1.92    0.36
  -4   5  -4    0.86    1.08
  -4   5  -4    1.47    0.56
  -4   5  -4    1.05    0.33
  -4   5  -4    0.41    0.77
  -5   5  -4    3.61    0.40
  -5   5  -4    2.25    0.40
  -5   5  -4    4.45    0.61
  -5   5  -4    3.52    0.48
  -5  -4   4   -0.02    0.19
  -5  -4   4    0.20    0.24
  -5  -4   4   -0.04    0.30
  -4  -4   4    9.64    1.41
  -4  -4   4    9.15    0.76
  -4  -4   4    9.46    0.76
  -3  -4   4    0.66    0.42
  -3  -4   4    0.62    0.32
  -2  -4   4    2.14    0.43
  -2  -4   4    1.80    0.34
  -2  -4   4    1.63    0.29
  -1  -4   4    0.12    0.29
  -1  -4   4   -0.02    0.39
   0   4  -4    7.94    0.66
   0   4  -4    8.32    0.67
  -1   4  -4  119.50    7.61
  -1   4  -4  113.43    7.43
  -1   4  -4  108.81    7.47
  -1   4  -4  121.76    7.45
  -1   4  -4  115.85    7.44
  -2   4  -4   50.72    3.57
  -2   4  -4   52.01    3.38
  -2   4  -4   47.22    3.64
  -2   4  -4   52.94    3.32
  -3   4  -4    8.65    0.92
  -3   4  -4    7.68    0.52
  -3   4  -4    6.81    0.67
  -3   4  -4    8.30    1.23
  -3   4  -4    8.98    1.28
  -3   4  -4    8.30    1.34
  -3   4  -4    6.83    0.51
  -3   4  -4    6.57    0.60
  -3   4  -4    7.19    0.75
  -3   4  -4    7.35    0.71
  -3   4  -4   10.28    1.68
  -3   4  -4    7.37    0.98
  -4   4  -4    8.30    0.67
  -4   4  -4    7.90    0.75
  -4   4  -4    8.75    1.25
  -4   4  -4    6.44    1.31
  -4   4  -4    8.15    0.87
  -4   4  -4    9.69    1.23
  -4   4  -4    8.94    0.91
  -5   4  -4   -0.10    0.92
  -5   4  -4    0.30    0.28
  -5   4  -4    0.11    0.24
  -5   4  -4   -0.11    0.27
  -5  -3   4    4.11    0.43
  -5  -3   4    1.03    0.38
  -4  -3   4    2.08    0.44
  -4  -3   4    2.26    1.06
  -4  -3   4    1.74    0.44
  -3  -3   4   29.15    2.03
  -3  -3   4   26.05    2.22
  -3  -3   4   30.66    2.00
  -3  -3   4   30.32    2.04
  -2  -3   4    1.39    0.31
  -2  -3   4    1.47    0.35
   1   3  -4    0.16    0.25
   1   3  -4    0.18    0.28
  -1  -3   4    0.28    0.31
  -1  -3   4    0.33    0.30
   0   3  -4   37.28    2.37
   0   3  -4   34.18    2.33
   0   3  -4   37.41    2.36
   0  -3   4   35.32    2.36
  -1   3  -4   28.11    1.95
  -1   3  -4   30.32    1.92
  -1   3  -4   28.90    2.11
  -2   3  -4    2.19    0.64
  -2   3  -4    1.72    0.69
  -2   3  -4    3.28    0.45
  -2   3  -4    2.66    0.29
  -3   3  -4    2.22    0.28
  -3   3  -4    3.57    0.98
  -3   3  -4    3.21    0.89
  -3   3  -4    3.03    0.58
  -3   3  -4    2.70    0.36
  -3   3  -4    2.96    0.42
  -3   3  -4    3.67    1.08
  -3   3  -4    1.74    0.42
  -3   3  -4    2.98    0.48
  -4   3  -4    5.02    0.44
  -4   3  -4    6.16    0.73
  -4   3  -4    5.30    0.57
  -4   3  -4    6.10    0.77
  -4   3  -4    5.56    0.54
  -4   3  -4    5.27    0.46
  -4   3  -4    4.63    0.61
  -4   3  -4    2.04    1.09
  -5   3  -4    9.52    0.74
  -5   3  -4   10.85    1.29
  -5   3  -4   10.48    0.75
  -5   3  -4   10.99    0.74
  -5  -2   4    0.20    0.43
  -5  -2   4    0.21    0.43
  -4  -2   4    0.55    0.45
  -4  -2   4    0.01    0.78
  -4  -2   4    0.04    0.33
  -3  -2   4    0.35    0.32
  -3  -2   4    0.48    0.32
  -2  -2   4   19.61    1.44
  -2  -2   4   21.37    1.46
   1   2  -4   74.93    4.89
   1   2  -4   74.14    4.88
  -1  -2   4   74.93    4.91
  -1  -2   4   77.57    4.88
   0   2  -4   23.08    1.50
   0   2  -4   22.54    1.51
  -1   2  -4    0.98    0.41
  -1   2  -4    1.15    0.23
  -1   2  -4    1.26    0.18
  -2   2  -4    4.44    0.79
  -2   2  -4    3.02    0.45
  -2   2  -4    3.16    0.72
  -2   2  -4    3.93    0.33
  -3   2  -4    3.43    0.79
  -3   2  -4    4.15    0.37
  -3   2  -4    4.39    0.47
  -3   2  -4    4.12    0.38
  -3   2  -4    3.43    0.34
  -3   2  -4    3.96    0.53
  -3   2  -4    4.74    1.07
  -3   2  -4    3.23    0.78
  -3   2  -4    3.19    0.45
  -3   2  -4    3.94    0.37
  -3   2  -4    4.95    0.61
  -4   2  -4   11.45    0.81
  -4   2  -4    9.98    0.88
  -4   2  -4    9.07    1.15
  -4   2  -4   11.18    0.85
  -4   2  -4   10.30    0.86
  -4   2  -4    9.82    0.93
  -5   2  -4    0.54    0.63
  -5   2  -4    0.22    0.18
  -5  -1   4    4.23    0.62
  -4  -1   4    1.77    0.56
  -4  -1   4    1.57    0.41
  -3  -1   4    0.71    0.35
  -3  -1   4    0.41    0.33
  -3  -1   4    0.96    0.68
  -2  -1   4    6.07    0.59
  -2  -1   4    5.04    0.83
  -2  -1   4    5.29    0.61
   1   1  -4   95.32    6.16
   1   1  -4   97.51    6.18
  -1  -1   4   97.92    6.17
  -1  -1   4   92.17    6.19
   0   1  -4    4.01    0.36
   0   1  -4    4.22    0.33
   0   1  -4    3.85    0.51
  -1   1  -4   -0.18    0.35
  -1   1  -4    0.27    0.11
  -1   1  -4    0.54    0.42
  -1   1  -4    0.41    0.11
  -2   1  -4    7.77    0.53
  -2   1  -4    6.95    0.90
  -2   1  -4    7.94    0.56
  -2   1  -4    7.48    1.16
  -2   1  -4    7.89    0.73
  -3   1  -4    8.51    0.72
  -3   1  -4   10.41    0.73
  -3   1  -4   10.50    1.46
  -3   1  -4   10.08    0.69
  -3   1  -4    9.15    0.65
  -3   1  -4    9.34    0.77
  -3   1  -4    8.65    0.81
  -3   1  -4    9.88    0.63
  -3   1  -4    9.93    0.63
  -3   1  -4    8.28    1.19
  -4   1  -4    6.57    0.58
  -4   1  -4    6.92    0.59
  -4   1  -4    6.26    0.61
  -4   1  -4    6.57    0.75
  -4   1  -4    7.00    0.57
  -5   1  -4   -0.29    0.52
  -5   0   4    2.00    0.78
  -4   0   4   10.44    1.44
  -3   0   4   31.46    2.14
  -3   0   4   32.87    2.23
  -3   0   4   34.35    2.49
  -3   0   4   33.36    2.23
  -3   0   4   32.04    2.13
  -2   0   4    3.22    0.43
  -2   0   4    4.72    0.49
  -2   0   4    4.22    0.43
  -2   0   4    4.53    0.66
   1   0  -4    0.62    0.20
   1   0  -4    0.93    0.23
  -1   0   4    0.53    0.22
  -1   0   4    0.84    0.26
   0   0  -4    6.33    0.59
   0   0  -4    6.94    0.64
   0   0  -4    6.90    0.51
  -1   0  -4    1.18    0.13
  -1   0  -4    1.30    0.40
  -1   0  -4    1.12    0.13
  -1   0  -4    0.97    0.43
  -3   0  -4    0.74    0.18
  -3   0  -4    0.53    0.68
  -3   0  -4    0.08    1.00
  -3   0  -4    0.75    0.20
  -3   0  -4    0.61    0.23
  -4   0  -4   11.07    1.13
  -4   0  -4   10.91    0.76
  -4   0  -4   11.08    0.76
  -4   0  -4   11.76    1.56
  -4   0  -4   10.53    0.79
  -4   0  -4   10.51    0.77
  -5   0  -4    0.22    0.44
   4  -1  -4   -0.06    0.60
  -4   1   4   -0.28    0.88
  -3   1   4   37.82    2.48
  -3   1   4   38.12    2.57
  -3   1   4   36.33    2.54
  -3   1   4   38.16    2.78
  -2   1   4    4.57    0.73
  -2   1   4    3.94    0.48
  -2   1   4    4.78    0.53
  -2   1   4    4.18    0.50
   1  -1  -4    1.65    0.25
   1  -1  -4    2.13    0.27
  -1   1   4    1.73    0.27
  -1   1   4    1.49    0.26
   0  -1  -4    0.33    0.34
   0  -1  -4    0.33    0.25
   0  -1  -4    0.11    0.18
  -1  -1  -4    5.62    0.43
  -1  -1  -4    5.85    0.43
  -1  -1  -4    6.18    0.73
  -2  -1  -4   83.14    5.53
  -3  -1  -4    0.52    0.20
  -3  -1  -4    0.24    1.22
  -3  -1  -4    0.19    0.74
  -3  -1  -4    0.63    0.21
  -3  -1  -4    0.02    0.20
  -4  -1  -4    0.33    0.18
  -4  -1  -4    0.47    0.45
  -4  -1  -4    0.94    0.96
  -5  -1  -4    0.66    0.37
  -5   2   4   11.21    0.84
  -5   2   4   11.43    0.85
   4  -2  -4    1.22    0.65
  -4   2   4    1.41    0.60
  -4   2   4    0.88    0.96
  -3   2   4    2.58    0.42
  -3   2   4    3.48    0.77
  -3   2   4    2.63    0.34
  -3   2   4    3.28    0.47
  -3   2   4    3.62    0.60
  -2   2   4    5.05    0.54
  -2   2   4    4.64    0.52
  -2   2   4    4.22    0.66
   1  -2  -4   60.59    4.15
   1  -2  -4   61.91    4.09
   1  -2  -4   66.06    4.11
   0  -2  -4   12.74    1.05
   0  -2  -4   12.33    0.89
  -1  -2  -4   72.19    4.83
  -1  -2  -4   78.44    5.02
  -2  -2  -4   86.92    5.59
  -3  -2  -4   11.68    0.90
  -3  -2  -4   12.48    0.88
  -3  -2  -4   12.77    0.86
  -3  -2  -4   12.09    0.93
  -3  -2  -4   10.92    1.40
  -4  -2  -4    0.54    0.19
  -4  -2  -4    0.42    0.85
  -4  -2  -4    0.97    0.42
   5  -3  -4    1.02    0.54
  -5   3   4    2.39    0.38
  -5   3   4    2.16    0.40
   4  -3  -4    1.48    0.65
  -4   3   4    1.23    0.46
  -4   3   4    1.19    0.94
   3  -3  -4   10.48    1.08
  -3   3   4   11.04    1.26
  -3   3   4   10.50    0.97
  -3   3   4    9.69    1.00
  -3   3   4    9.92    0.96
  -3   3   4   10.27    0.84
   2  -3  -4   -0.52    0.45
  -2   3   4    0.09    0.25
  -2   3   4    0.22    0.48
   1  -3  -4    6.42    0.61
   1  -3  -4    5.77    0.72
   0  -3  -4   -0.08    0.24
   0  -3  -4   -0.25    0.50
  -1  -3  -4    9.44    1.02
  -1  -3  -4    9.36    0.71
  -2  -3  -4    8.55    0.64
  -2  -3  -4    8.51    0.64
  -2  -3  -4    6.36    0.65
  -2  -3  -4    7.84    0.66
  -2  -3  -4    7.87    0.62
  -2  -3  -4    7.97    0.63
  -2  -3  -4    7.58    0.60
  -3  -3  -4   33.49    2.37
  -3  -3  -4   36.23    2.41
  -3  -3  -4   36.08    2.34
  -3  -3  -4   35.04    2.33
  -3  -3  -4   36.51    2.79
  -4  -3  -4    0.82    0.18
  -4  -3  -4    0.83    0.18
  -4  -3  -4    0.58    0.80
  -4  -3  -4    1.14    0.42
   5  -4  -4    0.33    0.48
  -5   4   4    0.17    0.32
  -5   4   4    0.39    0.41
   4  -4  -4    1.70    0.64
  -4   4   4    2.26    0.54
  -4   4   4    0.97    0.89
   3  -4  -4   39.34    2.71
   3  -4  -4   37.79    2.62
  -3   4   4   34.88    2.51
  -3   4   4   42.75    2.71
  -3   4   4   35.98    2.63
  -3   4   4   32.61    2.65
  -3   4   4   38.02    2.84
   2  -4  -4    9.71    0.89
  -2   4   4   10.55    1.01
   1  -4  -4    3.93    0.66
   1  -4  -4    3.41    0.46
   0  -4  -4   16.36    1.36
   0  -4  -4   17.35    1.21
  -1  -4  -4    1.24    0.56
  -1  -4  -4    2.93    0.72
  -1  -4  -4    2.75    0.36
  -2  -4  -4    1.67    0.41
  -2  -4  -4    1.95    0.41
  -2  -4  -4    2.59    0.41
  -2  -4  -4    1.72    0.32
  -2  -4  -4    2.01    0.78
  -2  -4  -4    1.86    0.41
  -2  -4  -4    1.77    0.34
  -3  -4  -4    0.12    0.29
  -3  -4  -4    0.68    0.31
  -3  -4  -4    0.36    0.28
  -3  -4  -4    0.45    0.90
  -3  -4  -4    0.08    0.33
  -3  -4  -4    1.01    0.42
  -4  -4  -4    2.63    0.27
  -4  -4  -4    3.67    0.48
  -4  -4  -4    2.00    0.79
  -4  -4  -4    3.23    0.27
   5  -5  -4    0.08    0.40
  -5   5   4    1.16    0.32
  -5   5   4    1.11    0.39
   4  -5  -4    0.53    0.63
   4  -5  -4    0.54    0.59
  -4   5   4    0.52    0.51
   3  -5  -4    0.36    0.59
   3  -5  -4   -0.35    0.51
  -3   5   4   -0.22    0.78
  -3   5   4    0.43    0.29
  -3   5   4    0.36    0.56
  -3   5   4    0.48    0.50
   2  -5  -4   -0.58    0.46
   2  -5  -4   -0.14    0.42
  -2   5   4    0.85    0.66
  -2   5   4   -0.17    0.50
   1  -5  -4   10.47    0.80
   1  -5  -4    7.14    0.73
   1  -5  -4    8.95    0.79
   0  -5  -4    0.12    0.30
   0  -5  -4    0.38    0.28
   0  -5  -4    0.59    0.62
  -1  -5  -4    3.30    0.43
  -1  -5  -4    4.08    0.54
  -1  -5  -4    3.27    0.58
  -1  -5  -4    3.79    0.45
  -1  -5  -4    3.16    0.38
  -1  -5  -4    5.67    0.97
  -2  -5  -4    0.70    0.44
  -2  -5  -4    1.36    0.50
  -2  -5  -4    2.75    1.21
  -2  -5  -4    1.28    0.42
  -2  -5  -4   -0.03    0.64
  -3  -5  -4    0.51    0.46
  -3  -5  -4    0.74    0.30
  -3  -5  -4    0.43    0.32
  -3  -5  -4    0.22    0.30
  -3  -5  -4    0.06    0.29
  -3  -5  -4   -0.14    0.80
  -4  -5  -4   -0.11    0.35
  -4  -5  -4   -0.09    0.64
  -5   6   4    8.12    0.61
  -5   6   4    7.71    0.62
   4  -6  -4    2.17    0.59
   4  -6  -4    2.02    0.63
  -4   6   4    2.10    0.52
   3  -6  -4    0.79    0.55
   3  -6  -4    0.78    0.63
  -3   6   4    0.66    0.60
  -3   6   4    1.02    0.79
   2  -6  -4    1.45    0.61
   2  -6  -4    1.54    0.58
  -2   6   4    1.28    0.71
  -2   6   4    1.06    0.59
   1  -6  -4    0.73    0.29
   1  -6  -4    0.58    0.43
   1  -6  -4    1.66    0.60
  -1   6   4    1.24    0.68
   0  -6  -4    2.71    1.08
   0  -6  -4    1.92    0.42
  -1  -6  -4    1.45    0.36
  -1  -6  -4    1.85    0.33
  -1  -6  -4    1.94    0.53
  -2  -6  -4    1.99    0.62
  -2  -6  -4    3.90    0.51
  -2  -6  -4    2.47    0.42
  -2  -6  -4    2.80    0.49
  -3  -6  -4    4.72    0.47
  -3  -6  -4    3.75    0.82
  -3  -6  -4    3.90    0.61
  -3  -6  -4    4.94    0.48
   4  -7  -4    0.60    0.47
   4  -7  -4    0.58    0.48
  -4   7   4    0.29    0.42
   3  -7  -4    4.17    0.69
   3  -7  -4    5.33    0.82
  -3   7   4    4.24    0.88
  -3   7   4    6.65    0.86
   2  -7  -4   27.09    1.95
   2  -7  -4   24.85    2.00
  -2   7   4   27.27    2.06
  -2   7   4   25.60    2.07
   1  -7  -4   -0.19    0.45
  -1   7   4   -0.19    0.70
   0   7   4    0.10    1.08
  -1  -7  -4    0.53    0.23
  -1  -7  -4    0.67    0.23
  -1  -7  -4    0.88    0.51
  -2  -7  -4    0.92    0.31
  -2  -7  -4    0.16    0.40
  -2  -7  -4    0.66    0.36
  -3  -7  -4    0.19    0.19
  -3  -7  -4    0.40    0.20
  -3  -7  -4   -0.28    0.28
   4  -8  -4    0.32    0.42
   4  -8  -4    0.25    0.33
   3  -8  -4    1.02    0.54
   3  -8  -4    1.18    0.50
  -3   8   4    2.56    0.56
  -3   8   4    2.41    0.68
   2  -8  -4    0.54    0.50
   2  -8  -4    0.26    0.51
  -2   8   4    0.43    0.69
  -2   8   4    0.09    0.56
   1  -8  -4    2.17    0.48
  -1   8   4    2.51    0.82
   0  -8  -4    3.48    0.58
   0   8   4    2.81    0.87
  -1  -8  -4    5.85    0.70
  -2  -8  -4    5.45    0.60
  -2  -8  -4    6.53    0.48
  -2  -8  -4    5.93    0.49
   3  -9  -4    0.26    0.37
   3  -9  -4    0.76    0.45
  -3   9   4    0.75    0.49
   2  -9  -4    1.08    0.43
  -2   9   4    0.21    0.56
  -2   9   4    0.99    0.51
  -1   9   4    3.68    0.74
   0  -9  -4    9.61    0.80
   0  -9  -4    9.74    0.81
   0   9   4    7.50    1.01
  -1  -9  -4    1.84    0.59
  -1  -9  -4    3.01    0.67
  -1  -9  -4    3.29    0.50
  -2  10   4    4.53    0.58
  -2  10   4    1.11    0.45
   1 -10  -4    2.81    0.42
  -1  10   4    4.12    0.93
  -1  10   4    2.50    0.56
   0  10   4   -0.07    0.42
   0  12  -5    0.07    0.37
   1 -12   5   -0.14    0.33
   1  11  -5    0.48    0.58
   1  11  -5   -0.09    0.48
   0  11  -5    0.55    0.59
   0  11  -5    0.54    0.64
   0 -11   5   -0.20    0.36
   0 -11   5    0.03    0.44
  -1  11  -5    1.49    0.59
  -1  11  -5    1.11    0.69
   1 -11   5    1.36    0.44
   1 -11   5    1.68    0.54
   2 -11   5    0.41    0.36
   2 -11   5    2.29    0.57
  -3  11  -5    1.30    0.34
   3 -11   5    0.28    0.35
   2  10  -5    1.20    0.59
  -2 -10   5    1.19    0.35
  -2 -10   5    1.64    0.64
   1  10  -5    0.17    0.70
   1  10  -5    0.45    0.71
  -1 -10   5   -0.58    0.48
  -1 -10   5   -0.14    0.35
   0  10  -5    0.70    0.77
   0  10  -5    0.89    0.76
   0 -10   5    0.66    0.54
   0 -10   5   -0.01    0.56
   0 -10   5    0.69    0.51
  -1  10  -5   12.03    1.35
  -1  10  -5   16.40    1.40
   1 -10   5   16.17    1.35
   1 -10   5   13.52    1.22
  -2  10  -5    7.50    0.90
   2 -10   5    7.35    0.96
  -3  10  -5    0.37    0.49
  -3  10  -5    1.60    0.96
  -3  10  -5    0.59    0.47
   3 -10   5    0.57    0.54
   3   9  -5    0.14    0.51
  -3  -9   5    0.16    0.50
   2   9  -5    0.04    0.70
  -2  -9   5   -0.01    0.45
   1   9  -5    1.89    0.82
   1   9  -5    1.77    0.80
  -1  -9   5    1.53    0.59
  -1  -9   5    1.29    0.51
   0   9  -5    0.98    0.82
   0   9  -5    1.08    0.87
   0   9  -5    0.10    0.77
   0  -9   5    0.29    0.54
   0  -9   5    0.11    0.53
  -1   9  -5    9.69    1.17
  -1   9  -5   10.81    1.20
   1  -9   5    9.27    1.08
   1  -9   5    9.29    1.02
  -2   9  -5    3.44    1.16
  -2   9  -5    2.27    0.72
   2  -9   5    2.37    0.72
  -3   9  -5   13.03    1.23
  -3   9  -5   14.17    1.99
   3  -9   5    9.14    1.18
  -4   9  -5   13.51    1.39
   3   8  -5    0.08    0.68
  -3  -8   5    0.41    0.33
  -3  -8   5    0.10    0.73
   2   8  -5    1.74    0.85
  -2  -8   5    2.53    0.56
  -2  -8   5    1.73    0.42
   1   8  -5    5.56    0.99
   1   8  -5    4.01    0.83
  -1  -8   5    3.89    0.64
  -1  -8   5    3.81    0.65
  -1  -8   5    3.74    0.72
  -1  -8   5    4.42    0.57
   0   8  -5   21.25    1.69
   0   8  -5   15.58    1.63
   0   8  -5   19.21    1.71
   0  -8   5   19.78    1.51
   0  -8   5   19.22    1.53
  -1   8  -5    0.61    0.26
  -1   8  -5    0.70    0.82
  -1   8  -5    0.90    0.83
   1  -8   5    0.37    0.55
   1  -8   5    1.06    0.58
  -2   8  -5    0.45    0.68
   2  -8   5    0.70    0.57
  -3   8  -5    1.28    0.59
  -3   8  -5    2.78    1.41
  -3   8  -5    0.90    1.08
   3  -8   5    1.28    0.69
  -4   8  -5    0.99    0.46
  -4   8  -5    1.78    0.78
  -4   8  -5    1.36    0.49
  -4  -7   5    0.61    0.64
   3   7  -5    0.71    0.77
  -3  -7   5    0.59    0.44
  -3  -7   5   -0.01    0.44
  -3  -7   5   -0.17    1.00
   2   7  -5    4.86    0.96
  -2  -7   5    5.09    0.73
  -2  -7   5    5.07    0.64
   1   7  -5    0.15    0.67
   1   7  -5   -0.26    0.57
   1   7  -5    0.28    0.74
  -1  -7   5   -0.01    0.44
  -1  -7   5   -0.11    0.57
  -1  -7   5   -0.06    0.43
  -1  -7   5    0.16    0.37
   0   7  -5    0.87    0.33
   0   7  -5    0.73    0.64
   0   7  -5    0.80    0.70
   0   7  -5    1.16    0.71
   0  -7   5    0.81    0.51
   0  -7   5    1.42    0.49
  -1   7  -5   26.34    2.07
  -1   7  -5   23.90    1.86
  -1   7  -5   19.92    1.83
  -1   7  -5   22.22    1.92
  -1   7  -5   23.68    1.57
   1  -7   5   20.85    1.76
  -2   7  -5   33.45    2.74
  -2   7  -5   43.61    2.68
   2  -7   5   41.50    2.84
  -3   7  -5    5.20    0.61
  -3   7  -5    4.51    1.44
  -3   7  -5    5.13    0.66
  -3   7  -5    4.97    1.46
  -4   7  -5    3.04    0.62
  -4   7  -5    2.46    0.85
  -4   7  -5    3.32    0.44
  -4  -6   5    3.94    0.96
   3   6  -5    3.73    0.89
  -3  -6   5    3.94    0.59
   2   6  -5    0.93    0.86
   2   6  -5    1.82    0.74
  -2  -6   5    0.97    0.53
  -2  -6   5    1.59    0.49
  -2  -6   5    1.37    0.21
   1   6  -5    3.00    0.65
   1   6  -5    2.93    0.73
  -1  -6   5    2.88    0.56
  -1  -6   5    2.87    0.51
  -1  -6   5    3.01    0.55
   0   6  -5    1.88    0.35
  -1   6  -5   -0.03    0.27
  -1   6  -5    0.77    0.67
  -1   6  -5    0.38    0.65
  -1   6  -5    0.47    0.19
  -1   6  -5   -0.10    0.73
  -2   6  -5    7.38    0.70
  -2   6  -5    7.60    1.09
  -2   6  -5    5.68    0.63
  -3   6  -5   -0.43    1.35
  -3   6  -5    0.03    0.36
  -3   6  -5   -0.97    1.22
  -3   6  -5    0.17    0.36
  -3   6  -5    0.34    0.38
  -3   6  -5    0.13    0.79
  -3   6  -5    0.41    0.51
  -4   6  -5    1.24    0.33
  -4   6  -5    1.00    0.57
  -4   6  -5    0.93    0.80
  -5   6  -5    1.55    0.29
  -5   6  -5    2.41    0.31
  -5   6  -5    1.93    0.28
  -4  -5   5    0.02    0.27
  -4  -5   5    0.69    1.01
  -4  -5   5    0.28    0.26
   3   5  -5   -1.13    1.03
   3   5  -5    0.04    0.73
  -3  -5   5    0.70    0.49
   2   5  -5    0.91    0.84
   2   5  -5    1.78    0.66
  -2  -5   5    1.11    0.35
  -2  -5   5    1.03    0.31
  -2  -5   5    1.24    0.42
  -2  -5   5    1.05    0.48
  -1  -5   5    7.43    0.82
   0   5  -5   29.63    2.10
   0   5  -5   33.10    2.13
  -1   5  -5   15.44    1.47
  -1   5  -5   15.47    1.08
  -1   5  -5   14.67    1.02
  -1   5  -5   14.86    1.09
  -1   5  -5   14.58    1.08
  -2   5  -5    7.49    1.06
  -2   5  -5    5.80    0.65
  -2   5  -5    5.47    0.56
  -3   5  -5    7.54    0.73
  -3   5  -5    8.79    1.55
  -3   5  -5    9.08    1.49
  -3   5  -5    7.16    0.52
  -3   5  -5    7.94    0.81
  -3   5  -5    7.32    0.82
  -3   5  -5    9.12    0.97
  -3   5  -5    9.24    1.03
  -4   5  -5   10.91    1.31
  -4   5  -5   11.20    1.69
  -4   5  -5    8.40    0.91
  -4   5  -5   10.27    1.08
  -4   5  -5    8.52    0.70
  -4   5  -5    7.75    0.76
  -5   5  -5    0.13    0.21
  -5   5  -5   -0.29    0.21
  -5   5  -5   -0.30    0.21
  -5  -4   5    4.47    0.53
  -5  -4   5    6.00    0.50
  -4  -4   5    0.75    0.93
  -4  -4   5    0.16    0.40
  -4  -4   5    0.45    0.40
   3   4  -5   -0.32    0.68
  -3  -4   5   -0.04    0.30
  -3  -4   5    0.10    0.48
  -3  -4   5    0.10    0.36
  -2  -4   5    2.57    0.41
  -2  -4   5    3.06    0.52
  -2  -4   5    2.42    0.42
  -2  -4   5    2.56    0.45
  -1  -4   5    3.23    0.49
  -1  -4   5    4.55    0.50
   0   4  -5   10.24    0.81
   0   4  -5   10.28    0.80
  -1   4  -5    7.24    0.66
  -1   4  -5    7.40    0.97
  -1   4  -5    7.75    0.62
  -2   4  -5   -0.06    0.70
  -2   4  -5    1.66    0.38
  -2   4  -5    1.66    0.77
  -2   4  -5    1.46    0.26
  -3   4  -5   10.47    1.51
  -3   4  -5   13.95    1.56
  -3   4  -5   11.74    1.18
  -3   4  -5   12.21    0.98
  -3   4  -5   12.52    1.93
  -3   4  -5   11.28    1.27
  -3   4  -5   14.15    1.60
  -3   4  -5   11.90    1.02
  -3   4  -5   11.27    0.88
  -3   4  -5   12.76    0.91
  -4   4  -5    4.38    0.51
  -4   4  -5    5.73    0.81
  -4   4  -5    4.49    0.39
  -4   4  -5    4.69    0.60
  -4   4  -5    5.09    0.73
  -4   4  -5    3.60    0.41
  -5   4  -5    4.07    0.73
  -5  -3   5    0.21    0.50
  -4  -3   5    4.84    0.53
  -4  -3   5    2.92    0.59
   3   3  -5   64.99    4.29
  -3  -3   5   63.48    4.10
  -3  -3   5   55.24    4.11
  -3  -3   5   65.18    4.13
  -2  -3   5    0.24    0.32
  -2  -3   5   -0.04    0.33
   1   3  -5    0.92    0.29
   1   3  -5    0.65    0.31
  -1  -3   5    1.02    0.33
  -1  -3   5    0.81    0.39
   0   3  -5    0.07    0.18
   0   3  -5   -0.31    0.22
  -1   3  -5   17.94    1.16
  -1   3  -5   17.09    1.41
  -1   3  -5   15.69    1.21
  -2   3  -5   58.59    4.26
  -2   3  -5   64.13    3.98
  -2   3  -5   62.87    4.07
  -2   3  -5   60.22    4.23
  -3   3  -5   18.63    1.53
  -3   3  -5   19.43    1.30
  -3   3  -5   20.00    1.47
  -3   3  -5   19.11    1.34
  -3   3  -5   19.36    1.37
  -3   3  -5   19.54    1.30
  -3   3  -5   18.35    1.91
  -3   3  -5   19.56    2.14
  -3   3  -5   20.67    1.34
  -3   3  -5   20.27    1.90
  -3   3  -5   19.90    1.34
  -3   3  -5   18.53    1.42
  -3   3  -5   19.98    1.93
  -3   3  -5   17.85    1.36
  -4   3  -5    0.25    0.26
  -4   3  -5   -0.03    0.40
  -4   3  -5   -0.34    0.36
  -4   3  -5    0.11    0.28
  -4   3  -5   -0.22    0.56
  -4   3  -5    0.27    0.35
  -5   3  -5    9.73    1.17
   4   2  -5    6.17    1.42
  -4  -2   5    7.30    0.80
  -4  -2   5    8.24    1.20
   3   2  -5    1.04    0.57
  -3  -2   5    0.98    0.38
  -3  -2   5    0.95    0.40
  -2  -2   5   15.25    1.18
  -2  -2   5   16.92    1.24
   1   2  -5    0.69    0.25
   1   2  -5    0.60    0.27
  -1  -2   5    0.63    0.33
  -1  -2   5    0.91    0.31
   0   2  -5    0.86    0.33
   0   2  -5    0.91    0.17
   0   2  -5    1.35    0.23
  -1   2  -5    9.49    0.97
  -1   2  -5    9.78    0.77
  -1   2  -5    8.14    0.82
  -1   2  -5   10.04    0.67
  -2   2  -5    1.45    0.20
  -2   2  -5    1.42    0.56
  -2   2  -5    1.50    0.38
  -2   2  -5    1.06    0.69
  -3   2  -5    2.12    0.28
  -3   2  -5    1.81    0.18
  -3   2  -5    1.78    1.10
  -3   2  -5    1.76    0.19
  -3   2  -5    1.88    0.39
  -3   2  -5    1.72    0.33
  -3   2  -5    1.85    0.25
  -3   2  -5    2.61    1.05
  -3   2  -5    1.52    0.20
  -3   2  -5    2.04    0.32
  -4   2  -5    4.85    0.67
  -4   2  -5    4.98    0.47
  -4   2  -5    4.65    0.46
  -4   2  -5    4.49    0.52
  -4   2  -5    4.73    0.48
  -5   2  -5    4.53    0.67
   4   1  -5    0.83    0.68
  -3  -1   5   -0.17    0.18
  -3  -1   5    0.21    0.34
  -3  -1   5    0.19    0.38
  -2  -1   5    2.96    0.44
  -2  -1   5    3.62    0.46
  -2  -1   5    3.00    0.63
   1   1  -5  102.27    6.66
   1   1  -5  104.94    6.67
  -1  -1   5   99.86    6.66
  -1  -1   5  106.14    6.71
   0   1  -5   28.58    2.06
   0   1  -5   31.13    1.98
   0   1  -5   30.17    2.07
   0   1  -5   30.79    1.95
  -1   1  -5   26.36    1.89
  -1   1  -5   30.00    2.05
  -1   1  -5   30.80    1.89
  -1   1  -5   29.39    2.09
  -2   1  -5    1.28    0.77
  -2   1  -5    1.28    0.14
  -2   1  -5    2.44    0.60
  -3   1  -5    6.13    0.43
  -3   1  -5    5.70    0.47
  -3   1  -5    5.73    0.46
  -3   1  -5    4.36    0.95
  -3   1  -5    8.16    1.35
  -3   1  -5    5.68    1.18
  -3   1  -5    4.22    0.48
  -4   1  -5   -0.33    0.47
  -4   1  -5    0.43    0.18
  -5   1  -5    3.46    0.54
   5   0  -5    0.45    0.56
   4   0  -5    4.45    0.85
  -3   0   5    3.52    0.78
  -3   0   5    2.19    0.43
  -3   0   5    3.35    0.53
  -3   0   5    3.20    0.37
  -2   0   5    6.74    0.70
  -2   0   5    6.55    0.63
  -2   0   5    7.05    0.86
   1   0  -5   -0.04    0.22
   1   0  -5    0.13    0.20
   0   0  -5   28.35    1.90
   0   0  -5   27.64    1.79
   0   0  -5   25.62    1.87
  -1   0  -5   16.33    1.26
  -1   0  -5   15.55    1.37
  -1   0  -5   15.53    1.01
  -1   0  -5   14.03    1.01
  -2   0  -5    3.64    0.76
  -3   0  -5    3.72    0.30
  -3   0  -5    4.09    1.32
  -3   0  -5    4.62    0.33
  -3   0  -5    4.09    0.90
  -4   0  -5    2.38    0.24
  -4   0  -5    1.97    0.48
  -5   0  -5    2.08    0.39
   5  -1  -5    0.72    0.56
  -5   1   5    0.65    0.34
  -5   1   5    0.97    0.33
   4  -1  -5    2.02    0.73
  -4   1   5    1.00    1.00
  -4   1   5    1.48    0.45
   3  -1  -5   50.39    3.68
  -3   1   5   54.74    3.73
  -3   1   5   51.94    3.54
  -3   1   5   53.11    3.48
  -2   1   5   33.62    2.19
  -2   1   5   29.77    2.26
   1  -1  -5    5.88    0.56
   1  -1  -5    6.30    0.73
   1  -1  -5    6.80    0.60
   0  -1  -5    1.07    0.37
   0  -1  -5    1.28    0.48
   0  -1  -5    1.49    0.26
  -1  -1  -5   23.45    1.76
  -1  -1  -5   23.91    1.81
  -1  -1  -5   22.01    1.51
  -2  -1  -5   10.98    1.11
  -3  -1  -5   10.98    1.56
  -3  -1  -5   12.50    0.85
  -3  -1  -5   13.41    1.99
  -4  -1  -5    0.86    0.88
  -4  -1  -5    0.78    0.39
  -5  -1  -5    3.62    0.46
   5  -2  -5    0.08    0.51
  -5   2   5   -0.05    0.39
  -5   2   5    0.02    0.42
   4  -2  -5    6.74    0.93
  -4   2   5    7.43    1.24
  -4   2   5    5.84    0.72
   3  -2  -5    2.18    0.57
   3  -2  -5    2.24    0.61
  -3   2   5    2.38    0.38
  -3   2   5    2.63    0.77
  -3   2   5    3.66    0.64
  -3   2   5    3.46    0.62
   2  -2  -5   22.01    1.61
  -2   2   5   21.15    1.66
   1  -2  -5   60.70    3.92
   1  -2  -5   58.92    3.92
   1  -2  -5   60.00    4.00
   0  -2  -5   15.93    1.35
   0  -2  -5   15.03    1.10
  -1  -2  -5    0.27    0.61
  -1  -2  -5    0.93    0.21
  -2  -2  -5    2.94    0.36
  -2  -2  -5    2.22    0.24
  -2  -2  -5    2.44    0.77
  -2  -2  -5    2.19    0.25
  -2  -2  -5    2.34    0.21
  -2  -2  -5    2.47    0.27
  -2  -2  -5    1.79    0.20
  -3  -2  -5   15.36    1.05
  -3  -2  -5   15.24    1.08
  -3  -2  -5   14.81    1.71
  -3  -2  -5   15.73    1.03
  -3  -2  -5   15.51    1.03
  -3  -2  -5   15.54    1.09
  -4  -2  -5    0.53    0.36
  -4  -2  -5    0.66    0.92
   5  -3  -5   17.01    1.54
  -5   3   5   19.34    1.47
  -5   3   5   21.45    1.47
   4  -3  -5   14.94    1.38
  -4   3   5   12.96    1.56
  -4   3   5   15.33    1.22
   3  -3  -5   -0.56    0.48
   3  -3  -5   -0.61    0.52
  -3   3   5   -0.30    0.59
  -3   3   5    0.57    0.30
  -3   3   5    0.00    0.47
  -3   3   5    0.29    0.62
  -3   3   5   -0.28    0.64
   2  -3  -5    1.07    0.40
   2  -3  -5    1.30    0.74
   2  -3  -5    1.55    0.57
   1  -3  -5   11.71    1.03
   1  -3  -5   10.85    0.88
   0  -3  -5    3.23    0.68
   0  -3  -5    3.05    0.38
  -1  -3  -5    1.90    0.78
  -1  -3  -5    2.04    0.30
  -2  -3  -5    6.92    0.60
  -2  -3  -5    7.61    0.68
  -2  -3  -5    7.04    0.55
  -2  -3  -5    8.24    0.62
  -2  -3  -5    7.79    0.66
  -2  -3  -5    8.12    1.05
  -2  -3  -5    8.00    0.60
  -2  -3  -5    8.58    0.63
  -2  -3  -5    6.38    0.65
  -2  -3  -5    5.42    0.57
  -3  -3  -5   36.97    2.47
  -3  -3  -5   38.66    2.56
  -3  -3  -5   36.79    2.52
  -3  -3  -5   37.93    2.49
  -3  -3  -5   38.57    2.47
  -3  -3  -5   39.84    2.95
  -4  -3  -5    6.64    1.03
  -4  -3  -5    6.62    0.72
   5  -4  -5    0.53    0.46
  -5   4   5    0.01    0.37
  -5   4   5   -0.19    0.42
   4  -4  -5    0.04    0.60
   4  -4  -5   -0.40    0.59
  -4   4   5   -0.37    0.53
   3  -4  -5   21.28    1.61
   3  -4  -5   20.20    1.73
  -3   4   5   20.38    1.65
  -3   4   5   21.36    1.69
  -3   4   5   19.96    1.51
   2  -4  -5   20.54    1.64
   2  -4  -5   24.04    1.71
  -2   4   5   21.71    1.71
  -2   4   5   22.76    1.76
   1  -4  -5    1.90    0.63
   1  -4  -5    1.46    0.37
   1  -4  -5    2.02    0.39
   0  -4  -5    5.57    0.57
   0  -4  -5    6.25    0.91
  -1  -4  -5    1.28    0.32
  -1  -4  -5    2.09    0.49
  -1  -4  -5    1.55    0.40
  -1  -4  -5    1.57    0.41
  -1  -4  -5    1.19    0.23
  -1  -4  -5    0.94    0.20
  -1  -4  -5    1.29    0.80
  -2  -4  -5    2.56    0.45
  -2  -4  -5    2.06    0.40
  -2  -4  -5    2.54    0.41
  -2  -4  -5    3.21    0.40
  -2  -4  -5    2.34    0.45
  -2  -4  -5    2.31    0.32
  -2  -4  -5    2.25    0.93
  -3  -4  -5    4.58    0.47
  -3  -4  -5    5.89    0.75
  -3  -4  -5    4.66    1.05
  -3  -4  -5    4.28    0.43
  -3  -4  -5    4.84    0.49
  -4  -4  -5    4.19    0.61
   5  -5  -5    0.12    0.37
  -5   5   5    0.07    0.31
  -5   5   5   -0.27    0.36
   4  -5  -5    0.06    0.53
   4  -5  -5   -0.12    0.55
  -4   5   5    0.58    0.53
   3  -5  -5    4.75    0.86
   3  -5  -5    5.47    0.81
  -3   5   5    3.94    0.76
  -3   5   5    6.66    0.95
   2  -5  -5   18.88    1.50
   2  -5  -5   17.57    1.42
  -2   5   5   16.86    1.48
  -2   5   5   18.58    1.57
   1  -5  -5    1.54    0.41
   1  -5  -5    0.39    0.24
   1  -5  -5    1.00    0.40
  -1   5   5    0.87    0.62
   0  -5  -5    1.60    0.39
   0  -5  -5    0.93    0.65
  -1  -5  -5   11.66    0.78
  -1  -5  -5   11.56    1.19
  -1  -5  -5   10.80    0.88
  -1  -5  -5   11.74    1.16
  -1  -5  -5   10.50    0.78
  -1  -5  -5   11.17    0.95
  -1  -5  -5   11.40    1.21
  -2  -5  -5    2.41    0.54
  -2  -5  -5    2.87    0.43
  -2  -5  -5    3.22    0.47
  -2  -5  -5    2.80    0.37
  -2  -5  -5    2.70    0.57
  -3  -5  -5    0.10    0.23
  -3  -5  -5   -0.94    0.75
  -3  -5  -5    0.15    0.24
  -3  -5  -5   -0.07    0.26
  -3  -5  -5    0.47    0.47
   4  -6  -5    1.52    0.57
   4  -6  -5    0.91    0.49
  -4   6   5    1.86    0.53
   3  -6  -5    0.37    0.52
   3  -6  -5    0.25    0.61
  -3   6   5    0.99    0.59
  -3   6   5    0.32    0.70
   2  -6  -5   -0.15    0.58
   2  -6  -5   -0.17    0.51
  -2   6   5   -0.05    0.73
  -2   6   5    0.46    0.56
   1  -6  -5    2.33    0.50
  -1   6   5    3.11    0.81
   0  -6  -5    8.96    1.09
   0  -6  -5    7.83    1.05
  -1  -6  -5    0.05    0.47
  -2  -6  -5    0.31    0.27
  -2  -6  -5    0.44    0.39
  -2  -6  -5    0.08    0.51
  -2  -6  -5    0.16    0.54
  -2  -6  -5   -0.07    0.31
  -3  -6  -5    0.15    0.19
  -3  -6  -5   -0.08    0.19
  -3  -6  -5   -0.11    0.43
  -3  -6  -5    0.16    0.14
  -3  -6  -5    0.19    0.17
   4  -7  -5    3.99    0.62
   4  -7  -5    3.28    0.50
  -4   7   5    2.74    0.47
   3  -7  -5    0.17    0.51
   3  -7  -5    0.64    0.57
  -3   7   5    0.89    0.69
  -3   7   5    0.84    0.55
   2  -7  -5    3.07    0.62
   2  -7  -5    2.61    0.63
  -2   7   5    4.19    0.79
  -2   7   5    2.50    0.76
   1  -7  -5    3.60    0.54
  -1   7   5    3.63    0.86
   0  -7  -5    5.81    0.66
  -1  -7  -5    0.63    0.48
  -2  -7  -5    0.33    0.46
  -2  -7  -5    0.01    0.33
  -2  -7  -5    0.20    0.16
  -2  -7  -5    0.23    0.19
  -2  -7  -5    0.44    0.49
   4  -8  -5   -0.08    0.35
   3  -8  -5    3.26    0.56
   3  -8  -5    2.51    0.53
  -3   8   5    2.06    0.51
  -3   8   5    4.21    0.67
   2  -8  -5    6.71    0.77
  -2   8   5    7.93    0.97
  -2   8   5    6.14    0.88
  -1   8   5   17.86    1.56
   0  -8  -5    1.86    0.40
   0  -8  -5    2.08    0.42
   0   8   5    1.21    0.73
  -1  -8  -5    0.75    0.42
  -1  -8  -5    1.13    0.44
  -1  -8  -5    0.89    0.65
  -2  -8  -5    0.83    0.32
  -2  -8  -5    0.37    0.37
  -2  -8  -5    0.11    0.24
   3  -9  -5    0.36    0.59
  -3   9   5    0.37    0.39
  -3   9   5   -0.22    0.33
   2  -9  -5    0.44    0.38
  -2   9   5    1.14    0.49
  -2   9   5    0.83    0.52
  -1   9   5    2.58    0.67
   0   9   5   -0.72    0.50
  -1  -9  -5    2.28    0.37
  -1  -9  -5    2.67    0.34
  -1  -9  -5    2.97    0.58
  -1  -9  -5    2.08    0.34
  -1  10   5    1.37    0.44
   1 -12   6    0.88    0.44
   1 -12   6    0.79    0.54
   1  11  -6   -0.07    0.48
   1  11  -6    1.02    0.55
   0  11  -6    4.04    0.69
   0  11  -6    1.31    0.62
   0 -11   6    2.36    0.48
   0 -11   6    3.80    0.54
   0 -11   6    3.04    0.49
  -1  11  -6    0.01    0.50
   1 -11   6    0.46    0.51
   1 -11   6    0.04    0.39
  -2  11  -6    1.01    1.04
   2 -11   6    0.26    0.41
   2 -11   6    0.32    0.44
   3 -11   6    0.45    0.38
   2  10  -6    3.03    0.70
   2  10  -6    1.22    0.60
  -2 -10   6    1.09    0.66
   1  10  -6   -0.13    0.69
   1  10  -6    1.13    0.68
  -1 -10   6   -0.01    0.49
  -1 -10   6    0.80    0.42
   0  10  -6    0.40    0.76
   0  10  -6    0.26    0.72
   0 -10   6    0.13    0.50
   0 -10   6    0.18    0.49
  -1  10  -6    4.03    0.81
   1 -10   6    4.73    0.72
   1 -10   6    4.06    0.74
   2 -10   6    7.14    0.94
   2 -10   6    5.30    0.75
  -3  10  -6    5.73    0.61
  -3  10  -6    6.38    0.66
  -3  10  -6    5.21    1.11
   3 -10   6    5.75    0.82
   3   9  -6    3.12    0.66
  -3  -9   6    3.73    0.70
   2   9  -6   12.07    1.37
   2   9  -6   14.54    1.43
  -2  -9   6   15.42    1.21
   1   9  -6    0.08    0.72
   1   9  -6    0.45    0.76
  -1  -9   6    0.30    0.47
  -1  -9   6   -0.07    0.49
  -1  -9   6    0.30    0.55
   0   9  -6    1.17    0.84
   0   9  -6    1.18    0.93
   0   9  -6    0.37    0.77
   0  -9   6    0.73    0.56
   0  -9   6    0.37    0.59
  -1   9  -6    4.02    0.89
  -1   9  -6    3.51    0.80
   1  -9   6    3.93    0.73
   1  -9   6    4.18    0.76
  -2   9  -6   23.62    2.27
  -2   9  -6   16.24    1.46
   2  -9   6   17.96    1.59
  -3   9  -6    0.19    1.14
  -3   9  -6    0.48    0.44
  -3   9  -6    0.76    0.39
   3  -9   6    0.89    0.63
  -4   9  -6    0.64    0.35
  -4   9  -6   -0.14    0.24
  -4   9  -6    1.04    0.59
   3   8  -6   13.33    1.45
  -3  -8   6   17.50    1.29
  -3  -8   6   20.94    1.74
   2   8  -6    4.10    0.94
   2   8  -6    3.30    0.93
  -2  -8   6    2.32    0.52
  -2  -8   6    3.36    0.63
   1   8  -6   13.66    1.32
   1   8  -6   13.12    1.50
   1   8  -6    9.81    1.25
  -1  -8   6   12.07    1.07
  -1  -8   6   11.98    1.12
  -1  -8   6    9.08    1.19
   0   8  -6    6.11    1.10
   0   8  -6    6.05    1.01
   0   8  -6    5.34    0.94
   0   8  -6    6.06    0.67
   0  -8   6    6.32    0.86
   0  -8   6    6.58    0.82
  -1   8  -6    0.14    0.81
  -1   8  -6    0.13    0.73
  -1   8  -6    0.06    0.20
  -1   8  -6    0.15    0.90
  -1   8  -6   -0.27    0.87
   1  -8   6    0.60    0.63
   1  -8   6    0.07    0.55
  -2   8  -6    5.32    0.97
   2  -8   6    6.36    0.89
  -3   8  -6    0.22    0.41
  -3   8  -6    0.07    0.39
  -3   8  -6   -0.03    1.22
  -3   8  -6    1.26    1.09
  -4   8  -6   11.18    0.97
  -4   8  -6    9.55    0.80
  -4   8  -6   12.45    1.36
   4   7  -6    0.71    0.53
  -4  -7   6    1.11    0.65
   3   7  -6    2.80    0.87
  -3  -7   6    1.32    1.05
  -3  -7   6    3.08    0.53
   2   7  -6    9.40    1.25
   2   7  -6    9.20    1.30
   2   7  -6   11.52    1.30
  -2  -7   6    8.98    1.13
  -2  -7   6    8.68    0.91
   1   7  -6    0.37    0.69
   1   7  -6    0.19    0.74
   1   7  -6    0.37    0.60
  -1  -7   6   -0.04    0.39
  -1  -7   6   -0.61    0.65
  -1  -7   6   -0.36    0.50
  -1  -7   6   -0.30    0.45
   0   7  -6    6.22    0.85
   0   7  -6    5.48    0.93
   0   7  -6    4.43    0.89
   0   7  -6    4.31    0.57
   0  -7   6    4.10    0.65
   0  -7   6    3.82    0.69
  -1   7  -6    4.38    0.85
  -1   7  -6    2.74    0.35
  -1   7  -6    2.88    0.99
  -1   7  -6    2.55    0.96
   1  -7   6    2.05    0.56
  -2   7  -6    5.49    0.62
  -3   7  -6    4.47    1.01
  -3   7  -6    2.59    1.21
  -3   7  -6    3.09    0.41
  -3   7  -6    2.66    0.42
  -3   7  -6    3.34    0.66
  -3   7  -6    2.66    1.46
  -4   7  -6    1.30    0.29
  -4   7  -6    1.97    0.48
  -4   7  -6    1.66    0.55
  -4   7  -6    1.14    0.77
   4   6  -6    0.24    0.55
  -4  -6   6    0.58    0.81
   3   6  -6    4.39    0.94
   3   6  -6    3.36    1.13
  -3  -6   6    3.07    0.61
   2   6  -6    0.42    0.67
   2   6  -6    0.44    0.69
   2   6  -6    0.57    0.94
  -2  -6   6    0.47    0.29
  -2  -6   6   -0.22    0.45
  -2  -6   6    0.26    0.45
  -2  -6   6    0.18    0.57
   1   6  -6   10.05    1.21
   1   6  -6    9.91    1.01
   1   6  -6    9.90    1.12
  -1  -6   6   11.40    0.99
  -1  -6   6   10.33    0.97
  -1  -6   6    9.72    0.94
   0   6  -6    2.04    0.75
   0   6  -6    2.32    0.65
   0   6  -6    1.20    0.29
  -1   6  -6    0.14    0.18
  -1   6  -6    0.60    0.79
  -1   6  -6   -0.23    0.66
  -1   6  -6    0.29    0.16
  -1   6  -6    0.48    0.64
  -1   6  -6    0.22    0.29
  -2   6  -6   23.29    1.74
  -2   6  -6   26.99    1.85
  -2   6  -6   26.67    2.20
  -3   6  -6   24.32    2.61
  -3   6  -6   26.68    2.26
  -3   6  -6   26.51    1.97
  -3   6  -6   31.46    2.60
  -4   6  -6    2.74    0.59
  -4   6  -6    2.50    0.75
  -4   6  -6    2.97    0.34
  -4   6  -6    2.80    0.40
   4   5  -6    0.73    0.65
  -4  -5   6    1.97    0.92
  -4  -5   6    1.44    0.39
  -4  -5   6    1.70    0.42
   3   5  -6    5.79    1.02
   3   5  -6    6.02    1.27
  -3  -5   6    7.00    0.77
  -3  -5   6    6.48    0.70
   2   5  -6    4.72    0.93
   2   5  -6    2.25    0.73
   2   5  -6    3.91    0.77
  -2  -5   6    3.37    0.50
  -2  -5   6    4.13    0.59
  -2  -5   6    3.85    0.56
  -2  -5   6    4.56    0.66
  -1  -5   6    4.41    0.59
   0   5  -6    8.78    0.78
   0   5  -6   10.41    0.79
  -1   5  -6   20.30    1.66
  -1   5  -6   18.65    1.35
  -2   5  -6    0.60    0.34
  -2   5  -6    1.06    0.72
  -2   5  -6    0.61    0.37
  -2   5  -6    1.01    0.49
  -2   5  -6    0.26    1.09
  -2   5  -6    0.34    0.27
  -2   5  -6    0.38    0.81
  -3   5  -6    2.47    0.94
  -3   5  -6   -0.20    0.38
  -3   5  -6   -1.43    1.06
  -3   5  -6   -0.30    0.63
  -3   5  -6    0.42    1.02
  -3   5  -6    0.10    0.32
  -3   5  -6   -0.31    0.68
  -3   5  -6    0.72    1.12
  -3   5  -6    0.13    0.47
  -4   5  -6    1.74    0.24
  -4   5  -6    3.18    0.76
  -4   5  -6    1.79    0.23
  -4   5  -6    1.45    0.49
  -4   5  -6    1.63    0.43
  -4   5  -6    1.59    0.64
   4   4  -6    0.23    0.67
  -4  -4   6    0.33    0.49
  -4  -4   6    0.49    0.46
   3   4  -6    0.60    0.71
  -3  -4   6   -0.46    0.40
  -3  -4   6    0.29    0.55
   2   4  -6    0.05    0.67
  -2  -4   6   -0.28    0.47
  -2  -4   6    0.21    0.38
  -2  -4   6    0.08    0.38
   1   4  -6   18.51    1.35
   0   4  -6   22.31    1.54
   0   4  -6   22.44    1.53
  -1   4  -6   29.89    2.20
  -1   4  -6   29.25    1.95
  -1   4  -6   28.88    1.98
  -2   4  -6    5.31    0.63
  -2   4  -6    5.96    0.90
  -2   4  -6    4.21    0.87
  -2   4  -6    4.78    0.46
  -3   4  -6   10.54    0.83
  -3   4  -6   11.28    1.57
  -3   4  -6   12.21    0.98
  -3   4  -6   10.34    1.25
  -3   4  -6   12.38    0.85
  -3   4  -6   14.22    1.61
  -3   4  -6   11.81    0.92
  -3   4  -6   10.31    1.04
  -3   4  -6   10.93    0.93
  -3   4  -6   11.04    1.77
  -3   4  -6   11.66    1.65
  -3   4  -6   11.34    1.17
  -4   4  -6    1.94    0.41
  -4   4  -6    2.16    0.46
  -4   4  -6    2.88    0.71
  -4   4  -6    1.81    0.36
  -4   4  -6    2.09    0.44
  -4   4  -6    1.51    1.70
  -5   4  -6    3.02    0.62
   5   3  -6    0.17    0.44
   5   3  -6   -2.09    0.82
   4   3  -6    8.07    1.08
  -4  -3   6    7.39    0.87
   3   3  -6   -0.36    0.60
  -3  -3   6    0.24    0.40
  -3  -3   6   -0.49    0.51
  -2  -3   6    1.19    0.44
   1   3  -6   33.64    2.38
   1   3  -6   37.64    2.41
   0   3  -6    2.52    0.30
   0   3  -6    3.26    0.38
   0   3  -6    3.05    0.53
  -1   3  -6    0.15    0.30
  -1   3  -6    0.13    0.22
  -1   3  -6    0.46    0.54
  -2   3  -6   38.27    2.52
  -2   3  -6   38.59    2.62
  -2   3  -6   39.58    2.88
  -2   3  -6   38.15    2.81
  -3   3  -6    6.58    0.48
  -3   3  -6    7.44    1.41
  -3   3  -6    5.34    0.47
  -3   3  -6    6.94    0.59
  -3   3  -6    5.96    0.63
  -3   3  -6    5.89    0.50
  -3   3  -6    5.76    0.68
  -3   3  -6    6.98    1.23
  -3   3  -6    5.56    0.56
  -3   3  -6    6.17    0.56
  -3   3  -6    6.25    0.61
  -3   3  -6    5.82    1.34
  -3   3  -6    6.09    0.74
  -4   3  -6    3.15    0.32
  -4   3  -6    2.85    0.65
  -4   3  -6    3.12    1.59
  -4   3  -6    2.60    0.37
  -4   3  -6    2.99    0.34
  -5   3  -6    0.94    0.55
   5   2  -6    1.90    0.57
   4   2  -6   -0.09    0.65
  -4  -2   6    1.11    0.53
   3   2  -6   18.17    1.57
  -3  -2   6   20.18    1.43
  -3  -2   6   18.67    1.33
  -2  -2   6  206.78   13.35
   1   2  -6    0.04    0.25
   1   2  -6   -0.15    0.31
   0   2  -6    2.22    0.52
   0   2  -6    2.11    0.27
   0   2  -6    2.88    0.53
   0   2  -6    2.18    0.32
  -1   2  -6    3.48    0.68
  -1   2  -6    4.03    0.39
  -1   2  -6    3.76    0.65
  -2   2  -6    7.75    0.56
  -2   2  -6    8.18    1.09
  -3   2  -6   12.12    0.85
  -3   2  -6   16.28    1.90
  -3   2  -6   12.16    1.78
  -3   2  -6   11.02    0.89
  -3   2  -6   12.78    0.84
  -3   2  -6   10.93    0.90
  -3   2  -6   11.29    0.87
  -3   2  -6   12.47    0.86
  -4   2  -6    2.72    0.57
  -4   2  -6    3.09    1.54
  -5   2  -6    0.34    0.44
   5   1  -6    0.41    0.49
  -4  -1   6    5.96    0.68
   3   1  -6    6.01    0.81
  -3  -1   6    4.34    0.63
  -3  -1   6    5.40    0.69
  -3  -1   6    5.28    0.59
  -2  -1   6    0.39    0.33
   1   1  -6    7.48    0.67
   1   1  -6    8.64    0.71
   0   1  -6   17.98    1.34
   0   1  -6   17.01    1.36
   0   1  -6   17.61    1.20
  -1   1  -6    8.25    0.59
  -1   1  -6    7.58    0.87
  -1   1  -6    7.81    0.97
  -2   1  -6    0.32    0.70
  -2   1  -6    1.23    0.57
  -3   1  -6    0.32    0.14
  -3   1  -6    0.08    1.01
  -3   1  -6    1.82    1.36
  -4   1  -6   -0.42    1.49
  -4   1  -6    1.03    0.46
  -5   1  -6    3.60    0.54
   5   0  -6    1.35    0.57
  -5   0   6    0.94    0.36
  -5   0   6    0.53    0.37
   4   0  -6   17.21    1.44
  -4   0   6   15.48    1.24
   3   0  -6    0.13    0.63
   3   0  -6    0.21    0.52
  -3   0   6    0.57    0.31
  -3   0   6    0.62    0.77
  -3   0   6    0.10    0.41
  -3   0   6    0.06    0.47
  -2   0   6    0.14    0.30
  -2   0   6    0.11    0.45
   1   0  -6    9.06    0.78
   1   0  -6   10.44    0.82
   1   0  -6   10.73    0.96
   0   0  -6   76.26    4.72
   0   0  -6   67.07    4.68
   0   0  -6   70.61    4.60
  -1   0  -6    1.26    0.61
  -1   0  -6    0.92    0.19
  -1   0  -6    1.12    0.60
  -2   0  -6    4.00    0.86
  -3   0  -6    4.70    1.10
  -3   0  -6    4.55    1.43
  -4   0  -6    1.84    0.41
  -5   0  -6   -0.24    0.27
   5  -1  -6    1.27    0.54
  -5   1   6    2.96    0.48
  -5   1   6    2.63    0.47
   4  -1  -6    2.87    0.71
  -4   1   6    2.35    0.54
   3  -1  -6    0.75    0.52
   3  -1  -6    0.49    0.54
  -3   1   6    0.99    0.35
  -3   1   6    0.36    0.67
  -3   1   6    0.86    0.47
  -3   1   6    0.94    0.54
   2  -1  -6   13.27    1.03
  -2   1   6   12.11    1.13
   1  -1  -6   14.44    1.11
   1  -1  -6   15.41    1.11
   1  -1  -6   15.58    1.25
   0  -1  -6    0.22    0.43
   0  -1  -6   -0.57    0.51
   0  -1  -6    0.20    0.26
  -1  -1  -6    0.44    0.19
  -1  -1  -6    0.12    0.62
  -2  -1  -6    0.92    0.14
  -2  -1  -6    0.64    0.19
  -2  -1  -6    1.54    1.53
  -2  -1  -6    0.05    0.67
  -3  -1  -6    4.09    1.41
  -3  -1  -6    2.36    0.20
  -3  -1  -6    2.98    0.98
  -4  -1  -6    1.35    0.33
   5  -2  -6    0.45    0.46
  -5   2   6   -0.04    0.48
  -5   2   6   -0.20    0.45
   4  -2  -6    1.42    0.64
  -4   2   6    2.64    0.57
  -4   2   6    0.22    0.92
   3  -2  -6    0.37    0.59
   3  -2  -6    0.45    0.59
   3  -2  -6    0.60    0.59
  -3   2   6    0.08    0.68
  -3   2   6    0.94    0.53
  -3   2   6    1.41    0.38
  -3   2   6    0.69    0.53
   2  -2  -6   81.77    5.25
   2  -2  -6   74.61    5.27
   2  -2  -6   83.58    5.34
   1  -2  -6    6.68    0.64
   1  -2  -6    6.57    0.79
   0  -2  -6    9.03    0.72
   0  -2  -6    8.38    0.95
  -1  -2  -6    4.11    0.43
  -1  -2  -6    5.71    0.95
  -2  -2  -6    6.53    0.50
  -2  -2  -6    6.55    0.94
  -2  -2  -6    6.40    0.60
  -2  -2  -6    6.69    0.53
  -2  -2  -6    8.13    1.18
  -2  -2  -6    7.21    0.56
  -2  -2  -6    7.38    0.54
  -3  -2  -6   11.53    1.53
  -3  -2  -6    8.99    0.65
  -3  -2  -6    9.23    0.71
  -3  -2  -6    8.48    0.62
  -4  -2  -6    3.45    0.42
   5  -3  -6    1.14    0.49
  -5   3   6    0.63    0.45
   4  -3  -6    0.96    0.60
   4  -3  -6    0.38    0.62
  -4   3   6    0.03    0.54
   3  -3  -6    7.27    0.90
   3  -3  -6    8.18    1.04
  -3   3   6    8.35    0.81
  -3   3   6    8.06    0.94
  -3   3   6    7.99    0.97
   2  -3  -6    3.61    0.86
   2  -3  -6    4.31    0.62
   2  -3  -6    5.26    0.78
  -2   3   6    4.73    0.72
  -2   3   6    6.11    0.85
   1  -3  -6    1.57    0.36
   1  -3  -6    1.49    0.58
   0  -3  -6   70.24    4.64
   0  -3  -6   67.17    4.47
  -1  -3  -6   13.44    0.94
  -1  -3  -6   12.60    1.20
  -1  -3  -6   12.17    1.00
  -1  -3  -6   13.07    1.29
  -2  -3  -6    2.55    0.40
  -2  -3  -6    4.91    0.56
  -2  -3  -6    3.24    0.40
  -2  -3  -6    3.25    0.28
  -2  -3  -6    3.39    0.36
  -2  -3  -6    2.86    0.26
  -2  -3  -6    3.31    0.36
  -2  -3  -6    2.34    0.80
  -2  -3  -6    3.48    0.40
  -3  -3  -6    8.07    0.63
  -3  -3  -6    8.89    0.81
  -3  -3  -6    8.43    1.27
  -3  -3  -6    7.10    0.58
  -4  -3  -6    0.32    0.32
   5  -4  -6    0.11    0.33
  -5   4   6   -0.40    0.41
   4  -4  -6   16.43    1.46
   4  -4  -6   20.25    1.46
  -4   4   6   15.41    1.39
   3  -4  -6    5.51    0.86
   3  -4  -6    4.81    0.80
  -3   4   6    5.26    0.79
  -3   4   6    5.93    0.67
  -3   4   6    5.87    0.84
   2  -4  -6    2.87    0.62
   2  -4  -6    2.64    0.56
  -2   4   6    4.46    0.83
  -2   4   6    2.78    0.63
   1  -4  -6    0.24    0.62
   1  -4  -6   -0.18    0.20
   1  -4  -6   -0.15    0.20
   1  -4  -6   -0.04    0.38
   1  -4  -6    0.65    0.35
   0  -4  -6    6.22    0.63
   0  -4  -6    6.88    0.98
  -1  -4  -6   -0.12    0.42
  -1  -4  -6    0.75    0.40
  -1  -4  -6    0.43    0.30
  -1  -4  -6   -0.36    0.81
  -1  -4  -6    0.95    0.43
  -2  -4  -6    0.67    0.44
  -2  -4  -6    0.22    0.28
  -2  -4  -6    0.18    0.18
  -2  -4  -6   -0.22    0.33
  -2  -4  -6   -0.23    0.37
  -2  -4  -6    0.16    0.23
  -2  -4  -6    0.08    0.32
  -3  -4  -6   -0.81    0.81
  -3  -4  -6    0.01    0.18
  -3  -4  -6   -0.04    0.22
  -3  -4  -6    0.42    0.43
  -4  -4  -6   12.42    0.95
   5  -5  -6    1.48    0.37
   4  -5  -6    0.03    0.51
   4  -5  -6    0.41    0.51
  -4   5   6   -0.33    0.47
   3  -5  -6    1.33    0.64
   3  -5  -6    0.80    0.62
  -3   5   6    0.50    0.59
  -3   5   6    1.01    0.57
   2  -5  -6   39.67    2.81
   2  -5  -6   41.31    2.77
  -2   5   6   39.77    2.84
  -2   5   6   38.09    2.83
   1  -5  -6   16.84    1.27
   1  -5  -6   15.74    1.28
   1  -5  -6   18.21    1.48
  -1   5   6   15.63    1.41
   0  -5  -6    1.21    0.73
   0  -5  -6    0.85    0.39
   0  -5  -6    0.95    0.38
  -1  -5  -6    2.38    0.89
  -1  -5  -6    3.22    0.56
  -1  -5  -6    2.17    0.62
  -1  -5  -6    2.28    0.52
  -2  -5  -6   -0.20    0.35
  -2  -5  -6   -0.12    0.49
  -2  -5  -6    0.28    0.18
  -2  -5  -6    0.30    0.20
  -2  -5  -6   -0.22    0.43
  -3  -5  -6    0.35    0.18
  -3  -5  -6    0.27    0.19
  -3  -5  -6   -0.19    0.43
   4  -6  -6    0.11    0.45
   4  -6  -6   -0.04    0.40
  -4   6   6   -0.09    0.42
   3  -6  -6   -0.23    0.51
   3  -6  -6   -0.54    0.54
  -3   6   6   -0.21    0.65
  -3   6   6    0.09    0.51
   2  -6  -6    2.46    0.63
   2  -6  -6    1.94    0.56
  -2   6   6    4.59    0.87
  -2   6   6    2.00    0.63
   1  -6  -6    1.64    0.46
  -1   6   6    1.66    0.69
   0  -6  -6    1.83    0.76
   0  -6  -6    0.09    0.40
  -1  -6  -6    0.01    0.46
  -1  -6  -6    0.66    0.49
  -2  -6  -6    4.80    0.52
  -2  -6  -6    4.30    0.68
  -2  -6  -6    4.78    0.59
  -2  -6  -6    4.74    0.60
  -3  -6  -6   -0.43    0.39
  -3  -6  -6    0.09    0.12
  -3  -6  -6    0.24    0.13
   4  -7  -6    4.35    0.60
   4  -7  -6    5.53    0.57
  -4   7   6    4.40    0.56
   3  -7  -6    2.54    0.58
   3  -7  -6    2.85    0.57
  -3   7   6    3.29    0.62
  -3   7   6    3.64    0.64
   2  -7  -6   -0.11    0.48
  -2   7   6    0.44    0.71
  -2   7   6    0.25    0.54
  -1   7   6    0.51    0.62
   0  -7  -6    1.12    0.38
   0  -7  -6    1.90    0.40
  -1  -7  -6    1.44    0.47
  -1  -7  -6    1.47    0.65
  -1  -7  -6    1.43    0.48
  -2  -7  -6    0.22    0.27
  -2  -7  -6    0.09    0.37
  -2  -7  -6    0.54    0.35
   3  -8  -6    0.09    0.35
  -3   8   6    0.19    0.40
  -3   8   6    0.13    0.37
   2  -8  -6    0.40    0.36
  -2   8   6    0.12    0.55
  -2   8   6    0.58    0.53
  -1   8   6    5.89    0.87
   0   8   6    2.66    0.91
  -1  -8  -6    1.98    0.40
  -1  -8  -6    2.65    0.38
  -1  -8  -6    2.99    0.60
  -1  -8  -6    2.44    0.41
  -2   9   6    0.71    0.38
  -2   9   6    2.14    0.46
   1  -9  -6    2.45    0.37
   1  -9  -6    2.35    0.33
  -1   9   6    3.68    0.64
   0   9   6    3.44    0.56
  -1  12  -7    1.78    0.70
   1 -12   7    0.76    0.45
   1  11  -7    0.56    0.52
   1  11  -7    0.82    0.52
  -1 -11   7    1.02    0.42
   0  11  -7    0.59    0.57
   0  11  -7    1.91    0.53
   0 -11   7    2.13    0.49
   0 -11   7    2.05    0.45
  -1  11  -7   -0.04    0.41
   1 -11   7   -0.11    0.47
   1 -11   7    0.13    0.41
  -2  11  -7   -0.63    1.01
   2 -11   7    0.19    0.37
   2 -11   7   -0.12    0.44
   2  10  -7    1.45    0.58
   2  10  -7    2.26    0.63
   1  10  -7    0.93    0.65
   1  10  -7    2.52    0.77
  -1 -10   7    1.50    0.47
  -1 -10   7    2.25    0.54
   0  10  -7    1.18    0.75
   0  10  -7    0.59    0.63
   0 -10   7    1.14    0.53
   0 -10   7    0.77    0.54
  -1  10  -7    0.86    0.62
   1 -10   7    1.55    0.54
   1 -10   7    1.74    0.64
  -2  10  -7   -0.68    1.21
   2 -10   7   -0.02    0.53
  -3  10  -7    3.31    0.99
   3   9  -7    0.51    0.51
  -3  -9   7    0.50    0.25
  -3  -9   7    0.03    0.55
  -3  -9   7    0.41    0.24
   2   9  -7    3.59    0.85
   2   9  -7    6.98    0.99
  -2  -9   7    5.63    0.60
  -2  -9   7    8.31    0.89
   1   9  -7    4.78    0.89
   1   9  -7    2.18    0.78
   1   9  -7    3.51    0.97
  -1  -9   7    3.41    0.63
  -1  -9   7    3.22    0.70
  -1  -9   7    3.27    0.63
   0   9  -7    0.79    0.91
   0   9  -7    0.07    0.78
   0   9  -7    0.05    0.69
   0  -9   7   -0.35    0.57
   0  -9   7    0.01    0.57
  -1   9  -7    0.82    0.72
   1  -9   7   -0.06    0.53
   1  -9   7   -0.14    0.53
   2  -9   7   11.59    1.22
  -3   9  -7    7.83    1.42
   3  -9   7    7.06    1.00
  -4   9  -7    4.02    0.39
  -4   9  -7    4.12    0.64
  -4   9  -7    4.20    0.37
  -4   9  -7    3.83    0.48
   3   8  -7   12.97    1.45
  -3  -8   7   17.39    1.68
  -3  -8   7   17.05    1.20
   2   8  -7    0.69    0.76
   2   8  -7    2.41    0.95
   2   8  -7    1.98    0.79
  -2  -8   7    1.29    0.60
  -2  -8   7    1.70    0.52
   1   8  -7   14.52    1.39
   1   8  -7   16.49    1.68
   1   8  -7   11.29    1.37
  -1  -8   7   15.56    1.27
  -1  -8   7   15.82    1.33
   0   8  -7   -0.35    0.75
   0   8  -7   -0.38    0.27
   0   8  -7    0.50    0.75
   0   8  -7   -0.21    0.85
   0  -8   7   -0.37    0.52
   0  -8   7    0.02    0.56
  -1   8  -7    1.75    0.81
  -1   8  -7    0.14    1.06
  -1   8  -7    3.11    1.03
   1  -8   7    2.30    0.66
  -2   8  -7    6.11    1.49
   2  -8   7    6.57    0.89
  -3   8  -7   12.26    2.13
  -3   8  -7   14.18    1.68
  -4   8  -7    2.02    0.45
  -4   8  -7    3.67    0.70
  -4   8  -7    2.31    0.31
  -4   8  -7    1.45    0.27
   4   7  -7    1.53    0.47
  -4  -7   7    1.07    0.61
   3   7  -7    3.44    0.89
   3   7  -7    2.41    1.10
  -3  -7   7    4.17    0.61
   2   7  -7   16.88    1.51
   2   7  -7   17.04    1.58
   2   7  -7   16.00    1.65
  -2  -7   7   14.87    1.27
  -2  -7   7   14.65    1.30
  -2  -7   7   16.28    1.47
   1   7  -7    7.70    1.05
   1   7  -7    9.52    1.05
   1   7  -7    7.59    1.18
  -1  -7   7    5.99    0.79
  -1  -7   7    7.11    0.84
  -1  -7   7    7.34    0.88
   0   7  -7   38.31    3.01
   0   7  -7   43.07    2.99
   0   7  -7   44.79    2.82
   0   7  -7   42.76    3.10
   0  -7   7   41.08    2.96
   0  -7   7   41.14    2.92
  -1   7  -7    8.73    1.39
  -1   7  -7   13.23    1.47
  -1   7  -7    9.94    1.08
   1  -7   7    9.09    1.05
  -2   7  -7    2.50    0.93
  -2   7  -7   -0.30    0.90
  -3   7  -7    0.89    0.58
  -3   7  -7    2.90    1.18
  -3   7  -7    0.35    0.81
  -3   7  -7    0.29    1.32
  -4   7  -7    1.93    1.33
  -4   7  -7    0.82    0.21
  -4   7  -7    0.43    0.22
  -4   7  -7    0.96    0.44
  -4   7  -7    1.04    0.65
   4   6  -7   -0.07    0.53
  -4  -6   7    0.20    0.69
  -4  -6   7   -0.07    0.28
  -4  -6   7   -0.21    0.29
   3   6  -7    0.15    0.73
   3   6  -7    0.25    1.01
  -3  -6   7    0.31    0.40
  -3  -6   7    0.14    0.54
   2   6  -7    8.02    1.03
   2   6  -7    9.38    1.30
   2   6  -7    7.01    1.01
  -2  -6   7    6.47    0.76
  -2  -6   7    6.83    0.85
  -2  -6   7    8.61    0.91
  -2  -6   7    7.35    0.83
   1   6  -7   30.72    2.18
   1   6  -7   31.60    2.23
   1   6  -7   28.55    2.29
  -1  -6   7   27.50    2.13
  -1  -6   7   28.88    2.10
   0   6  -7    0.05    0.71
   0   6  -7    1.16    0.62
   0   6  -7    0.44    0.24
  -1   6  -7    3.07    0.80
  -1   6  -7    2.50    0.63
  -1   6  -7    1.63    0.84
  -1   6  -7    1.69    0.36
  -2   6  -7    3.04    0.52
  -2   6  -7    4.06    0.96
  -2   6  -7    3.89    0.46
  -2   6  -7    1.42    1.12
  -2   6  -7    3.52    0.75
  -2   6  -7    4.81    0.69
  -3   6  -7   17.85    1.43
  -3   6  -7   16.26    1.74
  -3   6  -7   16.22    2.23
  -3   6  -7   20.87    2.07
  -3   6  -7   16.87    1.26
  -4   6  -7    3.17    1.20
  -4   6  -7    3.18    0.46
  -4   6  -7    2.60    0.51
  -4   6  -7    3.98    0.68
   4   5  -7    0.96    0.64
   4   5  -7    1.28    0.91
  -4  -5   7    1.66    0.46
  -4  -5   7    2.08    0.94
  -4  -5   7    2.55    0.56
   3   5  -7    2.63    0.80
   3   5  -7    2.71    1.13
  -3  -5   7    4.23    0.70
  -3  -5   7    4.10    0.59
   2   5  -7   18.61    1.56
   2   5  -7   17.21    1.69
   2   5  -7   18.02    1.47
  -2  -5   7   18.13    1.49
  -2  -5   7   17.22    1.37
  -2  -5   7   14.99    1.36
  -2  -5   7   19.12    1.42
   1   5  -7    1.91    0.73
   1   5  -7    1.65    0.57
   1   5  -7    1.64    0.36
  -1  -5   7    1.82    0.48
   0   5  -7    5.46    0.52
   0   5  -7    5.09    0.56
  -1   5  -7    1.92    0.82
  -1   5  -7    2.51    0.69
  -1   5  -7    1.00    0.30
  -2   5  -7    0.75    0.51
  -2   5  -7    0.57    0.34
  -2   5  -7    0.33    0.59
  -2   5  -7    0.44    0.31
  -2   5  -7   -0.03    0.92
  -2   5  -7    1.28    0.74
  -2   5  -7   -1.81    0.95
  -2   5  -7    0.20    0.26
  -2   5  -7   -0.22    0.85
  -2   5  -7    1.02    0.47
  -2   5  -7    0.25    0.35
  -3   5  -7    6.48    1.48
  -3   5  -7    8.26    1.47
  -3   5  -7    6.66    0.94
  -3   5  -7    9.48    1.28
  -3   5  -7    6.62    0.79
  -3   5  -7    8.31    0.66
  -3   5  -7    8.30    0.85
  -4   5  -7    4.56    0.55
  -4   5  -7    4.67    0.50
  -4   5  -7    5.29    0.76
  -4   5  -7    5.70    1.39
  -4   5  -7    6.01    0.86
  -4   5  -7    4.66    0.53
   4   4  -7    1.00    0.70
  -4  -4   7    0.08    0.47
   3   4  -7    5.63    0.95
  -3  -4   7    4.87    0.67
  -3  -4   7    5.61    0.78
   2   4  -7    4.52    0.74
   2   4  -7    3.71    0.70
  -2  -4   7    3.49    0.60
  -2  -4   7    4.08    0.58
  -2  -4   7    4.95    0.72
  -2  -4   7    3.74    0.62
   1   4  -7    0.35    0.28
   0   4  -7   -0.11    0.26
   0   4  -7    0.32    0.20
   0   4  -7    0.50    0.58
  -1   4  -7   19.46    1.34
  -1   4  -7   19.57    1.63
  -2   4  -7   17.89    1.47
  -2   4  -7   17.13    1.92
  -2   4  -7   19.48    1.46
  -2   4  -7   18.52    1.62
  -2   4  -7   20.44    1.83
  -2   4  -7   22.81    1.79
  -2   4  -7   19.95    1.35
  -2   4  -7   21.97    1.45
  -3   4  -7    1.27    1.23
  -3   4  -7    0.45    1.02
  -3   4  -7   -0.21    0.51
  -3   4  -7    0.19    0.45
  -3   4  -7    0.94    0.34
  -3   4  -7    0.50    0.29
  -3   4  -7   -0.13    0.56
  -3   4  -7    0.39    1.20
  -3   4  -7    0.58    0.24
  -4   4  -7    2.98    0.32
  -4   4  -7    2.28    0.37
  -4   4  -7    3.84    0.75
  -4   4  -7    3.99    1.39
  -4   4  -7    2.90    0.35
  -5   4  -7    1.12    0.58
   5   3  -7    1.95    0.53
   4   3  -7   15.24    1.47
  -4  -3   7   17.72    1.38
   3   3  -7    0.14    0.60
  -3  -3   7    0.27    0.25
  -3  -3   7   -0.13    0.51
  -3  -3   7    0.02    0.48
   2   3  -7   -0.12    0.47
  -2  -3   7    0.63    0.44
  -2  -3   7    0.43    0.42
   1   3  -7    1.20    0.34
   1   3  -7    1.07    0.31
   0   3  -7   25.15    1.94
   0   3  -7   25.44    1.69
   0   3  -7   24.39    1.77
   0   3  -7   24.77    1.64
  -1   3  -7    9.00    1.06
  -1   3  -7    9.37    0.71
  -2   3  -7    9.56    1.17
  -2   3  -7    6.63    0.52
  -2   3  -7    5.43    0.62
  -3   3  -7    0.04    0.28
  -3   3  -7   -0.23    0.38
  -3   3  -7   -0.45    0.34
  -3   3  -7    0.21    0.25
  -3   3  -7   -0.98    1.03
  -3   3  -7   -0.72    0.38
  -3   3  -7   -0.07    0.32
  -3   3  -7    0.88    1.30
  -3   3  -7   -0.88    0.99
  -4   3  -7   12.22    1.78
  -4   3  -7    9.63    1.23
  -5   3  -7    0.30    0.42
   5   2  -7   12.47    1.13
   4   2  -7    0.37    0.62
  -4  -2   7   -0.51    0.52
  -4  -2   7    0.21    0.57
   3   2  -7   -0.19    0.57
   3   2  -7    0.34    0.56
  -3  -2   7    0.24    0.32
  -3  -2   7   -0.15    0.49
  -3  -2   7   -0.16    0.41
  -2  -2   7    5.66    0.71
  -2  -2   7    4.27    0.80
   1   2  -7    1.09    0.35
   1   2  -7    1.39    0.32
   0   2  -7   30.56    2.06
   0   2  -7   28.32    1.93
   0   2  -7   27.32    2.13
  -1   2  -7    5.12    0.78
  -1   2  -7    5.10    0.48
  -1   2  -7    6.28    0.85
  -2   2  -7    6.04    0.48
  -2   2  -7    6.16    0.49
  -2   2  -7    6.06    0.47
  -2   2  -7    7.30    1.08
  -3   2  -7   29.17    1.83
  -3   2  -7   28.64    1.84
  -3   2  -7   27.62    1.84
  -3   2  -7   29.29    2.74
  -3   2  -7   27.12    1.85
  -3   2  -7   25.07    2.63
  -4   2  -7    7.68    1.64
  -4   2  -7    5.18    0.67
  -5   2  -7    0.47    0.30
   5   1  -7    0.29    0.45
  -5  -1   7   -0.17    0.31
  -5  -1   7   -0.31    0.31
   4   1  -7    0.23    0.61
  -4  -1   7    0.21    0.41
   3   1  -7   -0.25    0.57
   3   1  -7    0.07    0.53
  -3  -1   7    0.23    0.34
  -3  -1   7   -0.03    0.42
  -3  -1   7    0.21    0.50
   1   1  -7  158.49   10.67
   1   1  -7  171.80   10.61
   1   1  -7  164.42   10.61
   0   1  -7    1.11    0.29
   0   1  -7    1.91    0.60
   0   1  -7    1.03    0.52
  -1   1  -7    0.24    0.19
  -1   1  -7    0.19    0.60
  -1   1  -7    0.28    0.64
  -2   1  -7    2.89    0.72
  -2   1  -7    2.23    0.23
  -2   1  -7    2.83    0.96
  -3   1  -7    3.24    1.47
  -3   1  -7    2.43    1.30
  -4   1  -7    0.28    0.40
   5   0  -7    0.09    0.44
  -5   0   7   -0.07    0.40
  -5   0   7   -0.25    0.40
   4   0  -7    2.91    0.73
  -4   0   7    3.73    0.59
   3   0  -7    8.72    0.98
   3   0  -7    9.50    0.94
  -3   0   7    8.98    0.89
  -3   0   7    8.89    0.92
  -3   0   7    8.58    0.87
   2   0  -7    2.02    0.40
   1   0  -7   -0.05    0.51
   1   0  -7    0.16    0.28
   1   0  -7   -0.08    0.23
   0   0  -7   48.83    3.43
   0   0  -7   52.48    3.46
   0   0  -7   51.26    3.32
  -1   0  -7   23.30    1.57
  -1   0  -7   21.92    1.82
  -1   0  -7   25.96    1.92
  -2   0  -7    5.95    0.47
  -2   0  -7    6.36    0.95
  -2   0  -7    7.33    1.34
  -2   0  -7    6.25    0.44
  -2   0  -7    5.61    0.47
  -2   0  -7    6.38    0.95
  -2   0  -7    4.84    0.98
  -2   0  -7    6.46    0.46
  -3   0  -7    1.93    1.35
  -4   0  -7    0.14    0.30
   5  -1  -7    1.08    0.49
  -5   1   7    0.83    0.52
  -5   1   7    0.58    0.50
   4  -1  -7    1.93    0.66
   4  -1  -7    0.97    0.62
  -4   1   7    1.22    0.54
   3  -1  -7   17.81    1.53
   3  -1  -7   16.91    1.42
  -3   1   7   18.07    1.40
  -3   1   7   18.21    1.45
  -3   1   7   18.00    1.42
  -3   1   7   17.62    1.67
   2  -1  -7   -0.24    0.30
   2  -1  -7    0.41    0.46
   2  -1  -7    0.13    0.59
  -2   1   7    0.33    0.55
   1  -1  -7    0.39    0.52
   1  -1  -7    0.47    0.29
   0  -1  -7    7.32    0.95
   0  -1  -7    6.81    0.60
  -1  -1  -7   20.64    1.67
  -1  -1  -7   20.21    1.37
  -2  -1  -7    0.17    0.80
  -2  -1  -7   -0.37    0.69
  -2  -1  -7    0.83    0.96
  -2  -1  -7    0.05    0.19
  -2  -1  -7   -1.27    0.98
  -2  -1  -7   -0.06    0.14
  -2  -1  -7   -0.22    0.18
  -3  -1  -7    1.05    0.96
  -4  -1  -7    2.77    0.43
   5  -2  -7    0.81    0.43
  -5   2   7    1.77    0.47
   4  -2  -7    1.28    0.61
   4  -2  -7    1.34    0.66
  -4   2   7    1.03    0.56
   3  -2  -7    1.04    0.58
   3  -2  -7    0.78    0.77
   3  -2  -7    1.66    0.66
  -3   2   7    1.62    0.57
  -3   2   7    1.91    0.43
  -3   2   7    1.92    0.60
   2  -2  -7   20.73    1.57
   2  -2  -7   20.29    1.76
   2  -2  -7   22.33    1.56
   2  -2  -7   21.39    1.68
  -2   2   7   21.44    1.65
  -2   2   7   19.94    1.60
  -2   2   7   22.34    1.65
   1  -2  -7   20.39    1.65
   1  -2  -7   22.72    1.53
   0  -2  -7    7.79    0.91
   0  -2  -7    7.75    0.67
  -1  -2  -7    0.13    0.34
  -1  -2  -7    0.30    0.26
  -1  -2  -7    0.14    0.23
  -1  -2  -7    0.05    0.64
  -2  -2  -7    1.24    0.26
  -2  -2  -7    0.33    0.76
  -2  -2  -7    1.79    0.28
  -2  -2  -7    1.43    0.22
  -2  -2  -7    1.07    0.84
  -2  -2  -7    1.19    0.28
  -2  -2  -7    0.81    0.27
  -3  -2  -7    1.84    1.09
  -3  -2  -7    1.61    0.30
  -4  -2  -7    0.47    0.26
   5  -3  -7    0.65    0.38
   5  -3  -7   -0.26    0.42
  -5   3   7    2.71    0.46
   4  -3  -7   -0.28    0.53
   4  -3  -7    0.59    0.59
  -4   3   7   -0.40    0.52
   3  -3  -7    4.35    0.84
   3  -3  -7    5.06    0.81
  -3   3   7    6.42    0.84
  -3   3   7    4.48    0.72
  -3   3   7    3.91    0.57
   2  -3  -7   -0.61    0.48
   2  -3  -7    0.58    0.67
   2  -3  -7    0.38    0.51
  -2   3   7   -0.09    0.51
  -2   3   7    0.10    0.69
   1  -3  -7   36.75    2.64
   1  -3  -7   36.47    2.47
   0  -3  -7    0.57    0.32
   0  -3  -7    0.71    0.64
   0  -3  -7    1.08    0.32
  -1  -3  -7    0.85    0.40
  -1  -3  -7    0.85    0.45
  -1  -3  -7    0.56    0.41
  -1  -3  -7    0.86    0.38
  -1  -3  -7    0.19    0.84
  -1  -3  -7    1.11    0.29
  -1  -3  -7    1.01    0.38
  -2  -3  -7    4.97    0.52
  -2  -3  -7    7.08    0.73
  -2  -3  -7    5.74    0.57
  -2  -3  -7    4.90    0.51
  -2  -3  -7    5.30    0.53
  -2  -3  -7    5.44    0.60
  -3  -3  -7    1.01    0.15
  -3  -3  -7    0.98    0.14
  -3  -3  -7    1.16    0.38
  -4  -3  -7    4.22    0.48
   5  -4  -7    1.87    0.40
   4  -4  -7    6.77    0.91
  -4   4   7    8.25    0.85
   3  -4  -7    4.17    0.76
   3  -4  -7    5.23    0.81
  -3   4   7    5.14    0.79
  -3   4   7    4.70    0.81
   2  -4  -7    4.16    0.65
   2  -4  -7    4.44    0.72
   2  -4  -7    5.62    1.26
  -2   4   7    5.58    0.87
  -2   4   7    4.70    0.75
   1  -4  -7    2.06    0.77
   1  -4  -7    1.99    0.44
   1  -4  -7    0.86    0.42
  -1   4   7    0.75    0.58
   0  -4  -7    0.37    0.62
   0  -4  -7    0.96    0.70
   0  -4  -7    0.34    0.34
   0  -4  -7    1.02    0.35
   0  -4  -7    0.52    0.49
  -1  -4  -7   17.97    1.45
  -1  -4  -7   16.24    1.70
  -1  -4  -7   17.98    1.34
  -1  -4  -7   19.89    1.35
  -1  -4  -7   17.89    1.50
  -2  -4  -7    3.48    0.46
  -2  -4  -7    2.67    0.38
  -2  -4  -7    3.44    0.43
  -2  -4  -7    3.56    0.45
  -2  -4  -7    5.57    0.80
  -2  -4  -7    3.11    0.46
  -3  -4  -7    2.07    0.45
  -3  -4  -7    1.52    0.17
  -3  -4  -7    1.31    0.16
   4  -5  -7    0.26    0.46
   4  -5  -7   -0.20    0.50
  -4   5   7    0.23    0.44
   3  -5  -7    8.20    0.98
   3  -5  -7    8.78    0.99
  -3   5   7   10.43    0.99
  -3   5   7    6.63    0.92
   2  -5  -7    0.18    0.51
   2  -5  -7    0.27    0.52
  -2   5   7    1.69    0.75
  -2   5   7    0.32    0.56
   1  -5  -7    8.03    1.01
   1  -5  -7    6.43    0.72
  -1   5   7    7.64    0.95
   0  -5  -7    0.35    0.36
   0  -5  -7    0.26    0.40
   0  -5  -7    0.25    0.82
   0  -5  -7   -0.05    0.68
   0  -5  -7    0.80    0.66
  -1  -5  -7    2.70    0.52
  -1  -5  -7    2.94    0.65
  -1  -5  -7    2.33    0.80
  -1  -5  -7    3.02    0.50
  -1  -5  -7    0.75    0.61
  -2  -5  -7    0.57    0.31
  -2  -5  -7    0.60    0.52
  -2  -5  -7    0.51    0.32
  -2  -5  -7    0.83    0.40
  -2  -5  -7    0.33    0.37
  -3  -5  -7    0.72    0.42
   4  -6  -7    0.29    0.39
   4  -6  -7    0.28    0.39
  -4   6   7   -0.34    0.36
   3  -6  -7    0.25    0.49
   3  -6  -7   -0.20    0.49
  -3   6   7   -0.07    0.49
  -3   6   7    0.21    0.55
   2  -6  -7    3.30    0.58
  -2   6   7    2.63    0.67
  -2   6   7    3.72    0.80
  -1   6   7   29.19    2.26
   0  -6  -7    3.39    0.83
   0  -6  -7    4.42    0.46
   0  -6  -7    3.54    0.46
  -1  -6  -7    0.04    0.42
  -1  -6  -7   -0.24    0.57
  -1  -6  -7    0.13    0.40
  -2  -6  -7    0.17    0.30
  -2  -6  -7    0.10    0.53
  -2  -6  -7    0.25    0.33
  -2  -6  -7   -0.26    0.26
   3  -7  -7    0.22    0.41
  -3   7   7    0.41    0.42
  -3   7   7    1.14    0.50
   2  -7  -7    0.35    0.40
  -2   7   7    0.20    0.60
  -2   7   7    0.09    0.50
  -1   7   7    0.07    0.58
   0  -7  -7   -0.52    0.67
  -1  -7  -7    1.35    0.35
  -1  -7  -7    0.80    0.58
  -1  -7  -7    1.07    0.39
  -1  -7  -7    1.24    0.32
  -2  -7  -7    0.49    0.21
  -2  -7  -7    0.38    0.20
  -3   8   7    2.23    0.39
  -3   8   7    3.70    0.45
  -2   8   7    1.74    0.50
  -2   8   7    1.50    0.48
   1  -8  -7    1.99    0.39
   1  -8  -7    1.66    0.37
  -1   8   7    1.62    0.57
   0  -8  -7    0.25    0.61
  -1  -8  -7   -0.29    0.45
  -1  -8  -7    0.20    0.24
  -2   9   7    0.98    0.38
  -1   9   7    0.09    0.36
   1  11  -8    0.70    0.44
   1  11  -8   -0.05    0.48
  -1 -11   8    0.38    0.37
   0  11  -8    0.53    0.47
   0 -11   8   -0.09    0.37
   0 -11   8    0.27    0.43
  -1  11  -8    0.29    0.45
   1 -11   8    1.08    0.50
   1 -11   8    0.99    0.43
  -2  11  -8    1.36    0.92
  -2  11  -8    1.78    0.38
  -2  11  -8    0.93    0.42
   2 -11   8    0.77    0.47
   2  10  -8    0.87    0.55
   2  10  -8    2.39    0.61
   1  10  -8    1.58    0.77
   1  10  -8   -0.33    0.58
   1  10  -8   -0.17    0.68
  -1 -10   8   -0.15    0.46
  -1 -10   8    0.23    0.42
  -1 -10   8    0.81    0.52
   0  10  -8    1.89    0.72
   0  10  -8    2.40    0.64
   0 -10   8    2.44    0.62
   0 -10   8    2.45    0.58
  -1  10  -8    3.11    0.60
   1 -10   8    1.97    0.56
   1 -10   8    3.68    0.67
  -2  10  -8    0.63    0.51
  -2  10  -8   -1.08    1.11
   2 -10   8    0.19    0.53
  -3  10  -8    0.92    0.87
   3 -10   8    0.68    0.46
   3   9  -8    0.59    0.45
  -3  -9   8    0.89    0.56
   2   9  -8    1.01    0.65
   2   9  -8    1.24    0.72
  -2  -9   8    0.61    0.39
  -2  -9   8    1.41    0.52
   1   9  -8    6.91    1.08
   1   9  -8    5.97    0.92
   1   9  -8    2.97    0.86
  -1  -9   8    4.37    0.70
  -1  -9   8    6.27    0.80
   0   9  -8    2.85    0.73
   0   9  -8    4.37    1.06
   0   9  -8    1.91    0.81
   0  -9   8    2.80    0.65
   0  -9   8    3.74    0.71
  -1   9  -8    3.93    0.72
   1  -9   8    3.34    0.74
  -2   9  -8   -0.59    1.32
  -2   9  -8    0.10    0.55
   2  -9   8   -0.04    0.55
  -3   9  -8    2.88    0.86
  -3   9  -8    2.65    1.15
   3   8  -8    4.31    0.80
  -3  -8   8    2.37    0.92
  -3  -8   8    5.79    0.66
   2   8  -8    5.72    0.99
   2   8  -8    6.91    0.99
   2   8  -8    5.80    1.09
  -2  -8   8    4.68    0.69
  -2  -8   8    6.36    0.82
   1   8  -8   12.64    1.33
   1   8  -8   13.55    1.59
   1   8  -8   10.35    1.27
  -1  -8   8   12.22    1.20
  -1  -8   8   11.96    1.15
   0   8  -8    5.73    0.94
   0   8  -8    5.93    0.96
   0   8  -8    4.08    1.05
   0  -8   8    4.62    0.80
   0  -8   8    4.68    0.79
  -1   8  -8    2.42    1.06
  -1   8  -8    2.31    0.71
   1  -8   8    1.68    0.64
  -2   8  -8    1.27    1.15
  -2   8  -8    0.30    0.53
  -2   8  -8   -2.14    1.36
  -3   8  -8   14.17    1.19
  -3   8  -8   12.16    1.59
  -3   8  -8   13.11    2.00
  -4   8  -8    2.33    0.39
  -4   8  -8    3.33    0.51
  -4   8  -8    3.80    0.58
  -4   8  -8    1.57    0.86
   4   7  -8   -0.19    0.42
  -4  -7   8    0.90    0.61
   3   7  -8    9.01    1.10
   3   7  -8    7.12    1.08
   3   7  -8    5.38    0.96
  -3  -7   8   10.12    1.01
   2   7  -8   23.73    2.00
   2   7  -8   24.53    2.11
   2   7  -8   23.23    1.96
  -2  -7   8   26.45    1.95
  -2  -7   8   23.71    1.82
  -2  -7   8   25.50    1.86
   1   7  -8    0.48    0.69
   1   7  -8    0.15    0.72
   1   7  -8   -0.09    0.91
   1   7  -8   -0.40    0.32
  -1  -7   8    0.30    0.52
  -1  -7   8    0.13    0.53
   0   7  -8    5.25    1.03
   0   7  -8    3.99    0.82
   0   7  -8    4.20    0.49
   0   7  -8    5.86    0.90
   0   7  -8    5.03    1.14
   0  -7   8    3.40    0.66
   0  -7   8    4.16    0.71
  -1   7  -8    0.48    0.59
  -1   7  -8    1.47    0.90
  -1   7  -8   -0.01    0.34
  -1   7  -8    0.79    0.99
   1  -7   8    0.57    0.52
  -2   7  -8    4.02    1.19
  -2   7  -8    2.63    1.32
  -2   7  -8    4.41    0.74
  -2   7  -8    4.28    0.59
  -3   7  -8    6.54    1.08
  -3   7  -8    8.08    1.59
  -3   7  -8    7.41    0.84
  -3   7  -8    7.33    0.67
  -3   7  -8    5.38    1.41
  -4   7  -8    1.75    0.39
  -4   7  -8    1.61    0.36
  -4   7  -8    3.34    0.57
  -4   7  -8    0.51    0.92
   4   6  -8    0.11    0.72
   4   6  -8   -0.06    0.47
  -4  -6   8    0.22    0.32
  -4  -6   8    2.06    0.91
  -4  -6   8    0.20    0.35
   3   6  -8    5.33    0.92
   3   6  -8    7.62    1.23
   3   6  -8    5.40    0.90
  -3  -6   8    8.43    0.83
  -3  -6   8    6.42    0.76
   2   6  -8    0.86    0.73
   2   6  -8    1.27    0.66
   2   6  -8    0.99    0.92
  -2  -6   8    0.40    0.52
  -2  -6   8    0.46    0.54
  -2  -6   8   -0.09    0.67
  -2  -6   8    1.11    0.38
   1   6  -8    1.41    0.82
   1   6  -8    0.95    0.35
   1   6  -8    1.75    0.67
   1   6  -8    0.75    0.56
  -1  -6   8    0.86    0.50
  -1  -6   8    0.46    0.48
   0   6  -8    5.64    0.54
   0   6  -8    7.59    1.14
   0   6  -8    5.61    0.97
   0   6  -8    5.12    0.79
   0   6  -8    6.37    0.89
   0  -6   8    5.27    0.73
  -1   6  -8   38.73    3.01
  -1   6  -8   42.63    2.95
  -1   6  -8   37.91    3.08
  -1   6  -8   36.96    2.66
  -1   6  -8   36.97    2.59
  -2   6  -8    8.46    1.16
  -2   6  -8    5.96    0.78
  -2   6  -8    6.33    0.60
  -2   6  -8    5.35    0.90
  -2   6  -8    4.22    1.40
  -2   6  -8    5.91    1.38
  -2   6  -8    7.35    0.77
  -2   6  -8    6.81    1.26
  -3   6  -8    0.05    1.21
  -3   6  -8    0.70    1.30
  -3   6  -8    0.63    0.32
  -3   6  -8    0.50    0.55
  -3   6  -8   -0.10    0.71
  -4   6  -8    0.19    0.34
  -4   6  -8    0.49    0.37
  -4   6  -8    1.39    0.81
  -4   6  -8   -0.31    0.98
  -4   6  -8    0.26    0.28
  -4   6  -8    0.67    0.34
   4   5  -8    6.62    0.86
   4   5  -8    3.81    0.93
  -4  -5   8    6.28    0.77
  -4  -5   8    5.43    0.88
   3   5  -8    1.29    1.08
   3   5  -8    0.77    0.71
   3   5  -8    0.62    0.71
  -3  -5   8    0.92    0.49
  -3  -5   8    0.57    0.61
   2   5  -8    0.98    0.64
   2   5  -8    1.42    0.90
   2   5  -8    0.30    0.65
  -2  -5   8    1.55    0.44
  -2  -5   8    1.44    0.85
  -2  -5   8    1.45    0.56
  -2  -5   8    0.68    0.51
   1   5  -8    6.46    0.66
   1   5  -8    6.56    0.98
   1   5  -8    5.98    0.77
   1   5  -8    6.80    0.88
  -1  -5   8    6.09    0.73
  -1  -5   8    5.18    0.74
   0   5  -8   30.73    2.22
   0   5  -8   27.68    1.88
   0   5  -8   27.39    1.82
   0   5  -8   27.35    2.16
   0   5  -8   23.72    1.96
  -1   5  -8    0.13    0.63
  -1   5  -8    0.22    0.27
  -1   5  -8   -0.24    0.84
  -2   5  -8    0.09    0.63
  -2   5  -8    0.17    0.55
  -2   5  -8    0.07    0.34
  -2   5  -8    0.51    0.78
  -2   5  -8   -1.81    0.97
  -2   5  -8    1.12    1.09
  -2   5  -8    0.10    0.27
  -2   5  -8    0.30    0.18
  -2   5  -8    0.52    0.50
  -2   5  -8    0.33    0.17
  -3   5  -8    8.92    0.99
  -3   5  -8   10.93    1.01
  -3   5  -8   10.94    1.28
  -3   5  -8   11.76    0.87
  -3   5  -8   12.25    0.83
  -3   5  -8   10.70    1.80
  -3   5  -8   12.05    1.37
  -3   5  -8    8.85    1.64
  -4   5  -8   15.56    1.13
  -4   5  -8   16.42    2.05
  -4   5  -8   16.36    1.15
  -4   5  -8   17.96    1.63
   4   4  -8    0.24    0.57
   4   4  -8    0.89    0.87
  -4  -4   8    0.76    0.53
   3   4  -8   -0.15    0.68
   3   4  -8    0.27    0.67
  -3  -4   8    0.09    0.51
  -3  -4   8   -0.08    0.64
  -3  -4   8    0.34    0.66
   2   4  -8    8.12    0.97
   2   4  -8    7.87    0.94
   2   4  -8    8.81    1.19
  -2  -4   8    8.82    0.91
  -2  -4   8    7.88    0.90
  -2  -4   8    7.79    0.84
   1   4  -8   19.04    1.51
   1   4  -8   19.03    1.72
   1   4  -8   22.54    1.47
   0   4  -8    1.82    0.64
   0   4  -8    0.85    0.17
   0   4  -8    0.67    0.18
   0   4  -8    0.90    0.34
  -1   4  -8    0.96    0.63
  -1   4  -8    0.27    0.25
  -2   4  -8   -0.89    0.39
  -2   4  -8    0.41    0.30
  -2   4  -8    0.30    1.17
  -2   4  -8   -0.43    0.40
  -2   4  -8    0.66    0.73
  -2   4  -8   -0.52    0.80
  -2   4  -8   -0.67    0.50
  -2   4  -8    0.03    0.23
  -3   4  -8    1.06    0.14
  -3   4  -8    0.86    0.53
  -3   4  -8    0.87    0.13
  -3   4  -8    0.40    0.55
  -3   4  -8    0.45    0.44
  -3   4  -8    0.15    1.35
  -3   4  -8    1.12    0.37
  -3   4  -8    1.14    0.32
  -3   4  -8    0.32    1.20
  -3   4  -8    0.82    0.41
  -4   4  -8    0.87    1.19
  -4   4  -8    0.34    0.65
   5   3  -8    0.37    0.41
   4   3  -8    2.11    0.66
  -4  -3   8    3.49    0.64
   3   3  -8    0.17    0.64
   3   3  -8   -0.53    0.63
  -3  -3   8   -0.04    0.46
  -3  -3   8   -0.58    0.51
  -3  -3   8    0.83    0.32
   2   3  -8    1.21    0.51
   2   3  -8    1.01    0.50
  -2  -3   8    1.18    0.55
  -2  -3   8    1.41    0.49
   1   3  -8    2.33    0.36
   1   3  -8    2.89    0.43
   0   3  -8   -0.15    0.58
   0   3  -8    0.02    0.29
   0   3  -8   -0.65    0.47
  -1   3  -8    5.35    0.52
  -1   3  -8    6.63    0.94
  -2   3  -8   17.23    1.21
  -2   3  -8   16.37    1.95
  -2   3  -8   13.94    1.15
  -2   3  -8   16.31    1.15
  -2   3  -8   18.96    1.71
  -2   3  -8   15.11    1.84
  -2   3  -8   16.73    1.12
  -2   3  -8   15.41    1.31
  -2   3  -8   17.44    1.13
  -2   3  -8   15.05    1.17
  -2   3  -8   16.09    1.21
  -3   3  -8    7.16    0.65
  -3   3  -8    7.89    1.49
  -3   3  -8    7.22    0.70
  -3   3  -8    7.30    0.66
  -3   3  -8    6.01    1.62
  -3   3  -8    7.00    0.90
  -3   3  -8    8.40    0.62
  -3   3  -8    7.61    0.62
  -3   3  -8    7.42    0.71
  -4   3  -8   -0.77    0.55
  -4   3  -8    0.40    1.22
   5   2  -8    2.75    0.54
   4   2  -8    8.29    1.02
  -4  -2   8    8.91    1.08
  -4  -2   8    8.10    0.79
   3   2  -8   32.67    2.28
   3   2  -8   29.82    2.28
  -3  -2   8   25.75    2.15
  -3  -2   8   33.64    2.24
  -3  -2   8   32.24    2.22
   2   2  -8    1.57    0.46
   2   2  -8    1.01    0.48
   2   2  -8    1.16    0.50
  -2  -2   8    0.93    0.49
  -2  -2   8    1.25    0.46
   1   2  -8   -0.13    0.29
   1   2  -8    0.02    0.25
   1   2  -8   -0.42    0.51
   0   2  -8    2.86    0.38
   0   2  -8    2.48    0.57
   0   2  -8    1.91    0.56
  -1   2  -8    9.57    1.17
  -1   2  -8    9.43    0.72
  -1   2  -8    9.70    1.01
  -2   2  -8    0.61    0.17
  -2   2  -8    0.43    0.15
  -2   2  -8   -0.11    0.34
  -2   2  -8    0.39    0.31
  -2   2  -8    0.66    0.24
  -2   2  -8    0.31    0.21
  -2   2  -8    0.70    1.05
  -2   2  -8    0.14    0.82
  -2   2  -8    0.45    0.81
  -2   2  -8    0.37    0.16
  -2   2  -8    0.72    0.27
  -3   2  -8    1.23    1.19
  -3   2  -8    0.23    0.20
  -3   2  -8    0.07    0.27
  -3   2  -8   -0.49    1.51
  -4   2  -8    2.62    1.35
  -4   2  -8    1.48    0.50
   5   1  -8    6.70    0.77
  -5  -1   8    7.39    0.70
  -5  -1   8    5.61    0.69
   4   1  -8   14.72    1.35
   4   1  -8   15.57    1.37
  -4  -1   8   15.09    1.22
   3   1  -8    0.50    0.56
   3   1  -8    1.41    0.63
  -3  -1   8    1.00    0.54
  -3  -1   8    1.36    0.42
  -3  -1   8    1.70    0.61
   2   1  -8    7.07    0.74
   2   1  -8    6.23    0.79
  -2  -1   8    6.79    0.84
   1   1  -8   36.66    2.42
   1   1  -8   34.88    2.53
   1   1  -8   36.31    2.39
   0   1  -8    2.89    0.59
   0   1  -8    3.07    0.38
   0   1  -8    3.80    0.64
  -1   1  -8    6.14    0.84
  -1   1  -8    6.44    0.93
  -1   1  -8    5.33    0.48
  -2   1  -8    0.08    0.27
  -2   1  -8    0.83    0.80
  -2   1  -8    0.73    0.26
  -2   1  -8    0.83    0.19
  -2   1  -8    0.66    0.22
  -2   1  -8    0.39    0.19
  -2   1  -8    1.83    0.80
  -2   1  -8    1.09    0.98
  -2   1  -8    0.99    0.92
  -3   1  -8    6.83    1.62
  -3   1  -8    5.28    1.31
  -4   1  -8   10.34    0.88
   5   0  -8    0.48    0.42
  -5   0   8    0.94    0.46
  -5   0   8    0.57    0.41
   4   0  -8   -0.40    0.56
   4   0  -8    0.72    0.59
  -4   0   8    0.19    0.50
   3   0  -8    7.03    0.89
   3   0  -8    4.29    0.73
  -3   0   8    5.84    0.78
  -3   0   8    6.48    0.82
  -3   0   8    6.66    0.80
   2   0  -8    1.62    0.62
   2   0  -8    1.35    0.63
   2   0  -8    0.36    0.34
   2   0  -8    0.67    0.44
  -2   0   8    0.88    0.50
  -2   0   8    0.92    0.52
   1   0  -8   16.85    1.22
   1   0  -8   18.57    1.44
   1   0  -8   17.91    1.27
   0   0  -8   14.31    1.22
   0   0  -8   13.78    1.01
  -1   0  -8   -0.22    0.61
  -1   0  -8    0.17    0.20
  -1   0  -8    0.14    0.66
  -1   0  -8    0.01    0.21
  -2   0  -8    3.59    0.33
  -2   0  -8    3.62    0.39
  -2   0  -8    2.53    0.81
  -2   0  -8    3.60    1.09
  -2   0  -8    4.11    0.37
  -2   0  -8    3.24    1.11
  -2   0  -8    3.23    0.31
  -3   0  -8    0.90    1.21
   5  -1  -8    0.05    0.54
   5  -1  -8   -0.51    0.37
  -5   1   8   -0.27    0.38
   4  -1  -8   -0.31    0.56
   4  -1  -8   -0.34    0.55
  -4   1   8    0.10    0.52
   3  -1  -8    9.18    1.03
   3  -1  -8   10.29    1.10
   3  -1  -8    8.13    1.09
  -3   1   8    9.51    0.98
  -3   1   8    8.29    0.92
  -3   1   8    9.05    1.00
   2  -1  -8    0.39    0.62
   2  -1  -8    0.13    0.46
   2  -1  -8    0.03    0.32
   2  -1  -8    0.08    0.46
  -2   1   8    0.11    0.46
  -2   1   8   -0.19    0.55
   1  -1  -8    0.43    0.31
   1  -1  -8    0.02    0.36
   1  -1  -8    0.18    0.52
   1  -1  -8   -0.32    0.19
   0  -1  -8    0.37    0.56
   0  -1  -8    0.17    0.25
  -1  -1  -8   37.54    2.41
  -1  -1  -8   38.16    2.40
  -1  -1  -8   34.05    2.41
  -1  -1  -8   34.62    2.45
  -1  -1  -8   33.43    2.46
  -1  -1  -8   33.98    2.49
  -1  -1  -8   41.20    2.41
  -1  -1  -8   38.89    2.70
  -2  -1  -8    2.19    0.84
  -2  -1  -8    2.61    1.09
  -2  -1  -8    4.11    0.35
  -2  -1  -8    4.37    1.15
  -2  -1  -8    4.05    0.36
  -2  -1  -8    2.59    0.32
   5  -2  -8    4.73    0.61
  -5   2   8    3.92    0.63
   4  -2  -8    2.45    0.63
   4  -2  -8    4.55    0.74
  -4   2   8    4.24    0.65
   3  -2  -8    0.58    0.62
   3  -2  -8    0.08    0.81
   3  -2  -8   -0.36    0.59
  -3   2   8    0.53    0.55
  -3   2   8    0.53    0.57
  -3   2   8    0.98    0.56
   2  -2  -8    1.41    0.75
   2  -2  -8    1.25    0.53
   2  -2  -8    1.45    0.54
  -2   2   8    1.88    0.59
  -2   2   8    2.21    0.65
   1  -2  -8    2.24    0.66
   1  -2  -8    2.06    0.39
   1  -2  -8    2.61    0.44
   0  -2  -8    2.89    0.37
   0  -2  -8    1.54    0.46
   0  -2  -8    3.23    0.79
   0  -2  -8    2.67    0.37
  -1  -2  -8    1.29    0.27
  -1  -2  -8    1.24    0.36
  -1  -2  -8    1.07    0.36
  -1  -2  -8    0.68    0.41
  -1  -2  -8    1.02    0.34
  -1  -2  -8    0.36    0.71
  -1  -2  -8    1.23    0.37
  -1  -2  -8    0.98    0.30
  -2  -2  -8    4.37    0.44
  -2  -2  -8    4.03    0.43
  -2  -2  -8    3.76    0.42
  -2  -2  -8    4.78    1.04
  -2  -2  -8    4.14    0.41
  -2  -2  -8    5.92    0.61
  -3  -2  -8    0.29    0.29
   5  -3  -8   -0.07    0.32
   4  -3  -8   -0.31    0.51
   4  -3  -8    0.04    0.54
  -4   3   8   -0.13    0.49
   3  -3  -8   -0.03    0.58
   3  -3  -8   -0.10    0.62
  -3   3   8   -0.25    0.59
  -3   3   8   -0.46    0.49
   2  -3  -8   -0.14    0.50
   2  -3  -8   -0.23    0.73
   2  -3  -8   -0.11    0.52
  -2   3   8   -0.03    0.54
  -2   3   8    1.58    0.77
   1  -3  -8   37.88    2.50
   1  -3  -8   36.67    2.68
   1  -3  -8   36.21    2.47
  -1   3   8   35.83    2.79
   0  -3  -8   10.28    0.89
   0  -3  -8   10.03    1.23
   0  -3  -8   11.95    0.98
   0  -3  -8   10.71    0.87
   0  -3  -8   11.43    0.95
   0  -3  -8   11.78    1.18
  -1  -3  -8    1.13    0.44
  -1  -3  -8    1.22    0.49
  -1  -3  -8    1.21    0.39
  -1  -3  -8    0.95    0.41
  -1  -3  -8    1.18    0.42
  -1  -3  -8    0.68    0.78
  -1  -3  -8    1.58    0.35
  -2  -3  -8   -0.21    0.27
  -2  -3  -8   -0.16    0.29
  -2  -3  -8    0.09    0.27
  -2  -3  -8   -0.55    0.21
  -2  -3  -8    0.19    0.41
  -2  -3  -8   -0.15    0.18
  -3  -3  -8    2.42    0.42
   4  -4  -8    0.27    0.49
   4  -4  -8    0.25    0.47
  -4   4   8    0.36    0.45
   3  -4  -8   -0.05    0.54
   3  -4  -8    1.24    0.59
  -3   4   8    1.15    0.64
  -3   4   8    0.80    0.50
   2  -4  -8    6.15    0.98
   2  -4  -8    6.83    0.85
   2  -4  -8    7.28    1.17
  -2   4   8    6.77    0.90
  -2   4   8    7.56    0.98
   1  -4  -8   -0.05    0.41
   1  -4  -8    1.21    0.39
   1  -4  -8    0.25    0.67
  -1   4   8   -0.19    0.56
   0  -4  -8    3.59    0.45
   0  -4  -8    3.11    0.84
   0  -4  -8    2.91    0.59
   0  -4  -8    3.24    0.74
   0  -4  -8    2.88    0.42
  -1  -4  -8    5.00    0.60
  -1  -4  -8    5.93    0.58
  -1  -4  -8    5.52    0.58
  -1  -4  -8    4.96    0.94
  -1  -4  -8    4.30    0.67
  -1  -4  -8    4.59    0.69
  -2  -4  -8    0.05    0.31
  -2  -4  -8    0.01    0.28
  -2  -4  -8    0.26    0.46
  -2  -4  -8    0.38    0.24
  -2  -4  -8    0.25    0.29
  -3  -4  -8    4.63    0.64
   4  -5  -8    4.87    0.65
   4  -5  -8    4.85    0.60
  -4   5   8    4.76    0.58
   3  -5  -8   14.28    1.17
   3  -5  -8   13.70    1.18
  -3   5   8   14.62    1.21
  -3   5   8   11.13    1.18
   2  -5  -8    4.05    0.65
  -2   5   8    6.93    0.96
  -2   5   8    5.95    0.86
   1  -5  -8    1.89    0.71
  -1   5   8    1.16    0.63
   0  -5  -8   -0.04    0.51
   0  -5  -8    1.35    0.77
   0  -5  -8    0.30    0.29
   0  -5  -8    0.25    0.30
   0  -5  -8   -0.36    0.65
  -1  -5  -8    4.08    0.56
  -1  -5  -8    4.30    0.86
  -1  -5  -8    4.09    0.48
  -1  -5  -8    3.71    0.49
  -1  -5  -8    3.85    0.67
  -2  -5  -8    1.08    0.50
  -2  -5  -8    1.23    0.28
  -2  -5  -8    0.94    0.29
  -2  -5  -8    0.90    0.26
  -2  -5  -8    1.23    0.28
  -3  -5  -8   -0.31    0.57
   4  -6  -8    1.26    0.40
  -4   6   8    1.38    0.44
   3  -6  -8    0.35    0.44
  -3   6   8   -0.06    0.45
  -3   6   8    0.07    0.43
   2  -6  -8    0.29    0.39
  -2   6   8    0.21    0.54
  -2   6   8    1.33    0.65
  -1   6   8    8.76    1.06
   0  -6  -8    6.83    0.93
   0  -6  -8    5.97    0.76
  -1  -6  -8    1.40    0.42
  -1  -6  -8    0.82    0.31
  -1  -6  -8    1.61    0.55
  -1  -6  -8    1.64    0.34
  -2  -6  -8    1.31    0.23
  -2  -6  -8    1.02    0.19
  -2  -6  -8    0.95    0.22
  -2  -6  -8    0.52    0.52
   3  -7  -8    0.00    0.31
  -3   7   8    0.13    0.34
  -3   7   8    0.08    0.37
  -2   7   8    0.19    0.48
  -2   7   8    0.11    0.48
   1  -7  -8    1.93    0.39
   1  -7  -8    2.70    0.43
  -1   7   8    2.19    0.60
   0  -7  -8    7.27    0.91
  -1  -7  -8    0.03    0.45
  -1  -7  -8   -0.12    0.27
  -1  -7  -8   -0.18    0.14
  -1  -7  -8    0.23    0.15
   2  -8  -8    1.25    0.36
  -2   8   8    0.76    0.39
  -1   8   8    0.10    0.44
   0  -8  -8    0.44    0.27
   0  -8  -8    0.49    0.48
   0  -8  -8    0.01    0.40
   1  11  -9    0.01    0.44
  -1 -11   9    0.19    0.25
   0  11  -9    0.19    0.36
   0 -11   9   -0.02    0.40
   0 -11   9   -0.30    0.34
  -1  11  -9    1.20    0.88
   1 -11   9    0.74    0.39
   1 -11   9    1.03    0.48
  -2  11  -9    0.90    0.73
   2 -11   9    0.54    0.37
   2  10  -9    4.32    0.60
   2  10  -9    2.40    0.55
   1  10  -9    0.66    0.54
   1  10  -9    2.32    0.75
   1  10  -9    0.53    0.59
  -1 -10   9    0.98    0.42
  -1 -10   9    0.87    0.45
  -1 -10   9    1.08    0.90
   0  10  -9    0.17    0.54
   0 -10   9   -0.10    0.49
   0 -10   9    0.18    0.53
  -1  10  -9   -0.23    1.14
   1 -10   9    0.87    0.50
   1 -10   9    0.22    0.51
  -2  10  -9    0.36    0.35
  -2  10  -9   -0.72    1.09
  -2  10  -9    0.45    0.33
   2 -10   9    0.18    0.51
  -3  10  -9    0.83    0.53
  -3  10  -9    1.93    0.83
   3   9  -9    0.37    0.37
  -3  -9   9    0.34    0.54
   2   9  -9    0.41    0.63
   2   9  -9    0.18    0.55
   2   9  -9    0.56    0.70
  -2  -9   9   -0.03    0.39
  -2  -9   9    0.04    0.48
   1   9  -9    0.70    0.71
   1   9  -9   -0.38    0.58
   1   9  -9    0.24    0.84
  -1  -9   9    0.08    0.52
  -1  -9   9   -0.36    0.52
   0   9  -9    0.74    0.68
   0   9  -9    0.68    0.91
   0  -9   9    0.67    0.56
   0  -9   9    0.97    0.65
  -1   9  -9    1.13    0.52
   1  -9   9    3.18    0.72
  -2   9  -9    1.61    0.43
  -2   9  -9    1.37    0.45
  -2   9  -9    0.35    1.20
   2  -9   9    1.80    0.62
  -3   9  -9    0.29    0.33
  -3   9  -9    0.70    0.39
  -3   9  -9    0.33    0.95
  -3   9  -9    0.99    0.66
   3   8  -9    2.73    0.62
   3   8  -9    2.23    0.68
   3   8  -9    0.31    0.51
  -3  -8   9    1.69    0.85
  -3  -8   9    2.36    0.76
   2   8  -9    0.45    0.69
   2   8  -9    0.94    0.65
   2   8  -9    0.99    0.86
  -2  -8   9    1.20    0.60
  -2  -8   9    0.32    0.51
  -2  -8   9    1.08    0.49
   1   8  -9    9.16    1.24
   1   8  -9    8.65    1.07
   1   8  -9    7.71    1.07
  -1  -8   9    7.92    0.97
  -1  -8   9    8.09    1.00
   0   8  -9    3.56    1.01
   0   8  -9    3.44    0.77
   0  -8   9    3.31    0.74
   0  -8   9    2.71    0.74
  -1   8  -9    1.48    0.59
  -1   8  -9   -0.47    1.08
   1  -8   9    2.03    0.65
  -2   8  -9    3.98    1.42
  -2   8  -9    5.00    0.59
  -2   8  -9    6.46    0.62
  -3   8  -9    4.92    0.55
  -3   8  -9    5.22    0.71
  -3   8  -9    4.87    1.24
  -3   8  -9    7.73    1.02
  -4   8  -9    3.80    0.42
  -4   8  -9    4.08    0.40
  -4   8  -9    2.52    0.76
   3   7  -9    0.39    0.82
   3   7  -9   -0.26    0.57
   3   7  -9   -0.26    0.60
  -3  -7   9   -0.25    0.52
  -3  -7   9    0.68    0.37
   2   7  -9   23.14    2.12
   2   7  -9   23.41    1.92
   2   7  -9   25.09    1.90
  -2  -7   9   23.49    1.77
  -2  -7   9   20.56    1.78
  -2  -7   9   25.25    1.88
   1   7  -9   18.00    1.76
   1   7  -9   19.24    1.62
   1   7  -9   14.44    1.35
   1   7  -9   21.22    1.61
  -1  -7   9   19.29    1.55
  -1  -7   9   18.30    1.46
   0   7  -9    4.51    0.94
   0   7  -9    5.59    0.88
   0   7  -9    5.15    0.47
   0   7  -9    7.73    1.12
   0  -7   9    6.59    0.85
  -1   7  -9    3.01    0.98
  -1   7  -9    4.89    1.34
  -1   7  -9    1.41    1.30
  -1   7  -9    3.96    1.21
   1  -7   9    3.26    0.68
  -2   7  -9    1.54    1.36
  -2   7  -9    3.78    0.47
  -2   7  -9    5.67    0.98
  -2   7  -9    2.22    1.25
  -2   7  -9    6.96    1.20
  -2   7  -9    4.23    0.49
  -2   7  -9    4.69    0.77
  -3   7  -9    0.43    0.31
  -3   7  -9    0.69    0.78
  -3   7  -9   -0.31    1.18
  -3   7  -9    1.02    0.51
  -3   7  -9    0.40    0.52
  -4   7  -9    6.66    0.55
  -4   7  -9    4.65    0.51
  -4   7  -9    5.91    0.53
   4   6  -9   -0.03    0.66
   4   6  -9    0.13    0.41
  -4  -6   9    0.74    0.47
  -4  -6   9   -0.05    0.32
   3   6  -9   -0.11    0.93
   3   6  -9   -0.54    0.67
   3   6  -9    0.76    0.62
  -3  -6   9    0.52    0.48
  -3  -6   9   -0.40    0.56
   2   6  -9   16.91    1.49
   2   6  -9   16.77    1.53
   2   6  -9   17.86    1.82
  -2  -6   9   15.77    1.41
  -2  -6   9   16.70    1.35
   1   6  -9   18.22    1.53
   1   6  -9   18.59    1.49
   1   6  -9   17.50    1.32
   1   6  -9   17.13    1.71
  -1  -6   9   18.54    1.44
  -1  -6   9   16.10    1.48
   0   6  -9    0.85    0.87
   0   6  -9    1.45    0.62
   0   6  -9    1.13    0.86
   0   6  -9    0.98    0.19
   0  -6   9    0.67    0.49
  -1   6  -9    1.07    1.08
  -1   6  -9    0.77    0.33
  -1   6  -9    1.94    1.18
  -1   6  -9    2.52    0.87
  -1   6  -9    0.84    0.91
  -2   6  -9    2.98    1.25
  -2   6  -9    2.05    1.47
  -2   6  -9    3.26    0.68
  -2   6  -9    3.35    0.84
  -3   6  -9    4.58    0.88
  -3   6  -9    3.18    0.43
  -3   6  -9    2.97    0.62
  -3   6  -9    3.80    1.37
  -3   6  -9    4.04    0.88
  -3   6  -9    3.41    0.80
  -3   6  -9    3.76    0.41
  -3   6  -9    3.99    1.46
  -4   6  -9    2.35    0.26
  -4   6  -9    3.52    0.69
  -4   6  -9    1.99    0.92
  -4   6  -9    1.43    0.27
  -4   6  -9    2.42    0.25
   4   5  -9    1.50    0.64
   4   5  -9    1.89    0.57
   4   5  -9    0.76    0.73
  -4  -5   9    1.61    0.47
   3   5  -9    0.66    0.68
   3   5  -9    1.39    0.98
   3   5  -9    0.84    0.64
  -3  -5   9    1.15    0.66
  -3  -5   9    0.75    0.54
   2   5  -9    5.30    0.85
   2   5  -9    7.87    1.15
   2   5  -9    7.31    1.02
  -2  -5   9    7.88    0.93
  -2  -5   9    6.65    0.83
  -2  -5   9    7.21    0.91
   1   5  -9    0.40    0.29
   1   5  -9    1.14    0.81
   1   5  -9    0.23    0.54
   1   5  -9    0.96    0.56
  -1  -5   9    0.58    0.55
  -1  -5   9    0.70    0.52
   0   5  -9   12.36    1.01
   0   5  -9   12.68    1.42
   0   5  -9   13.46    1.15
   0   5  -9   13.08    1.37
  -1   5  -9    2.47    0.55
  -1   5  -9    2.79    0.81
  -1   5  -9    2.95    1.17
  -1   5  -9    2.63    0.40
  -1   5  -9    1.58    1.14
  -1   5  -9    0.88    0.45
  -1   5  -9    2.84    0.94
  -1   5  -9    2.77    0.70
  -2   5  -9   12.80    1.10
  -2   5  -9    8.65    1.56
  -2   5  -9   12.50    0.97
  -2   5  -9   13.54    1.48
  -2   5  -9   12.58    1.34
  -2   5  -9   10.14    1.37
  -2   5  -9   15.34    1.91
  -3   5  -9    0.48    0.19
  -3   5  -9    0.46    0.35
  -3   5  -9   -0.22    1.21
  -3   5  -9    0.27    0.59
  -3   5  -9    0.55    0.18
  -3   5  -9   -0.07    0.65
  -3   5  -9    1.06    1.32
  -3   5  -9   -0.06    0.46
  -4   5  -9    3.67    1.12
  -4   5  -9    3.86    0.75
   4   4  -9    1.95    0.61
   4   4  -9    0.43    0.80
   4   4  -9    1.44    0.57
  -4  -4   9    1.92    0.56
   3   4  -9    5.07    0.85
   3   4  -9    4.60    0.82
   3   4  -9    6.37    1.10
  -3  -4   9    6.65    0.78
  -3  -4   9    5.63    0.75
  -3  -4   9    4.73    0.82
   2   4  -9    3.53    0.94
   2   4  -9    3.91    0.71
   2   4  -9    2.50    0.64
  -2  -4   9    2.63    0.62
  -2  -4   9    2.50    0.58
   1   4  -9    7.64    0.90
   1   4  -9    7.91    1.09
   1   4  -9    6.34    0.80
   1   4  -9    7.15    0.67
  -1  -4   9    6.96    0.82
   0   4  -9   -0.04    0.62
   0   4  -9   -0.05    0.30
   0   4  -9   -0.28    0.43
   0   4  -9   -0.21    0.80
  -1   4  -9    4.58    1.16
  -1   4  -9    4.86    1.19
  -1   4  -9    4.87    0.52
  -1   4  -9    4.87    0.68
  -1   4  -9    4.47    0.54
  -1   4  -9    4.81    0.53
  -1   4  -9    5.22    0.88
  -1   4  -9    6.63    0.68
  -1   4  -9    6.06    0.83
  -2   4  -9    0.01    1.18
  -2   4  -9   -0.30    0.23
  -2   4  -9   -0.63    0.99
  -2   4  -9   -0.21    0.46
  -2   4  -9    0.24    0.32
  -2   4  -9    0.40    0.38
  -2   4  -9    0.33    0.82
  -2   4  -9   -0.13    0.56
  -2   4  -9   -0.05    0.45
  -2   4  -9   -0.41    0.34
  -3   4  -9    0.18    0.32
  -3   4  -9    0.26    0.28
  -3   4  -9   -0.48    0.34
  -3   4  -9   -0.46    0.35
  -3   4  -9   -0.29    0.54
  -3   4  -9   -0.07    0.37
  -3   4  -9    0.69    1.22
  -3   4  -9    0.07    1.49
  -4   4  -9    6.66    0.81
  -4   4  -9    4.89    1.25
   4   3  -9   -0.38    0.57
   4   3  -9    0.03    0.55
  -4  -3   9    0.67    0.56
  -4  -3   9   -0.33    0.49
   3   3  -9    1.27    0.64
   3   3  -9    2.59    0.71
  -3  -3   9    2.41    0.59
  -3  -3   9    1.77    0.61
   2   3  -9    5.46    0.73
   2   3  -9    4.08    0.57
   2   3  -9    4.42    0.72
  -2  -3   9    4.74    0.69
  -2  -3   9    5.01    0.71
   1   3  -9   15.08    1.14
   1   3  -9   17.87    1.20
   1   3  -9   13.47    1.44
   1   3  -9   16.16    1.37
   1   3  -9   16.38    1.24
   1   3  -9   15.23    1.49
   0   3  -9    2.88    0.57
   0   3  -9    3.05    0.42
   0   3  -9    3.60    0.71
  -1   3  -9   -0.11    0.62
  -1   3  -9    0.13    0.23
  -1   3  -9   -0.22    0.39
  -1   3  -9    0.13    0.26
  -1   3  -9    0.12    1.09
  -1   3  -9   -0.02    0.23
  -2   3  -9    0.67    0.29
  -2   3  -9    0.93    0.26
  -2   3  -9    0.70    0.31
  -2   3  -9   -0.05    0.87
  -2   3  -9    0.69    0.49
  -2   3  -9    2.07    0.84
  -2   3  -9    0.47    0.30
  -2   3  -9    0.85    0.41
  -2   3  -9    0.79    0.23
  -2   3  -9    1.15    0.42
  -2   3  -9    0.43    0.39
  -2   3  -9    0.50    1.13
  -3   3  -9    2.93    1.56
  -3   3  -9    2.26    0.26
  -3   3  -9    2.87    1.29
  -3   3  -9    2.57    0.31
  -3   3  -9    2.35    0.53
  -3   3  -9    2.40    0.28
  -3   3  -9    2.65    0.34
  -4   3  -9    0.89    0.53
  -4   3  -9    1.85    1.20
   5   2  -9   -0.16    0.35
   4   2  -9   -0.28    0.54
   4   2  -9    0.28    0.54
  -4  -2   9    0.08    0.42
  -4  -2   9   -0.34    0.59
   3   2  -9    6.85    0.85
   3   2  -9    7.13    0.90
  -3  -2   9    6.66    0.83
  -3  -2   9    7.07    0.87
  -3  -2   9    4.47    0.83
   2   2  -9    1.34    0.56
   2   2  -9    0.21    0.35
   2   2  -9    0.54    0.47
  -2  -2   9    0.91    0.58
  -2  -2   9    0.85    0.47
   1   2  -9    6.56    0.90
   1   2  -9    6.22    0.69
   1   2  -9    5.83    0.57
   1   2  -9    6.92    0.64
   0   2  -9    1.69    0.34
   0   2  -9    1.79    0.57
   0   2  -9    2.80    0.65
  -1   2  -9    1.32    0.69
  -1   2  -9    0.96    0.26
  -1   2  -9    0.87    0.34
  -1   2  -9    1.30    0.67
  -2   2  -9    4.87    0.57
  -2   2  -9    5.96    0.51
  -2   2  -9    5.07    0.40
  -2   2  -9    5.90    0.59
  -2   2  -9    5.90    1.31
  -2   2  -9    3.66    1.04
  -2   2  -9    4.81    0.57
  -2   2  -9    5.62    0.54
  -2   2  -9    7.18    1.16
  -2   2  -9    4.86    0.49
  -3   2  -9    6.31    0.71
  -3   2  -9    5.58    1.50
  -3   2  -9    6.85    1.35
  -4   2  -9    2.03    0.44
  -4   2  -9    1.38    1.22
   5   1  -9   -0.04    0.36
  -5  -1   9   -0.25    0.38
   4   1  -9   12.06    1.10
  -4  -1   9    8.70    0.96
   3   1  -9   15.67    1.40
   3   1  -9   15.21    1.32
  -3  -1   9   14.93    1.30
  -3  -1   9   16.61    1.36
  -3  -1   9   16.08    1.36
   2   1  -9   26.02    1.86
   2   1  -9   25.23    1.82
   2   1  -9   25.90    1.98
   2   1  -9   25.39    1.90
  -2  -1   9   24.97    1.91
  -2  -1   9   25.59    1.89
   1   1  -9   17.38    1.21
   1   1  -9   17.10    1.31
   1   1  -9   18.01    1.51
   1   1  -9   18.98    1.30
   0   1  -9    0.81    0.56
   0   1  -9   -0.16    0.52
   0   1  -9    0.19    0.25
  -1   1  -9    0.60    0.62
  -1   1  -9    0.35    0.21
  -1   1  -9   -0.01    0.38
  -1   1  -9    0.44    0.31
  -1   1  -9    0.41    0.28
  -1   1  -9    0.56    0.71
  -1   1  -9    0.17    0.29
  -2   1  -9    2.48    0.32
  -2   1  -9    2.92    1.23
  -2   1  -9    3.11    0.93
  -2   1  -9    3.42    0.38
  -2   1  -9    2.24    0.29
  -2   1  -9    1.99    0.33
  -2   1  -9    2.75    0.30
  -2   1  -9    2.56    0.99
  -2   1  -9    3.31    0.36
  -3   1  -9    2.02    1.37
  -3   1  -9    1.51    1.26
   5   0  -9    0.16    0.32
   4   0  -9    6.19    0.84
   4   0  -9    9.68    0.94
  -4   0   9    6.22    0.78
   3   0  -9    1.57    0.62
   3   0  -9    3.20    0.94
   3   0  -9    2.93    0.70
  -3   0   9    2.94    0.64
  -3   0   9    3.73    0.62
  -3   0   9    2.46    0.62
   2   0  -9    3.37    0.61
   2   0  -9    2.97    0.46
   2   0  -9    3.40    0.87
   2   0  -9    3.17    0.61
  -2   0   9    3.96    0.67
  -2   0   9    4.11    0.70
   1   0  -9   15.46    1.37
   1   0  -9   15.65    1.14
   1   0  -9   14.38    1.16
   0   0  -9   38.31    2.69
   0   0  -9   37.02    2.50
  -1   0  -9    5.29    0.50
  -1   0  -9    4.85    0.43
  -1   0  -9    4.49    0.59
  -1   0  -9    5.11    0.92
  -1   0  -9    3.49    0.53
  -1   0  -9    5.04    0.86
  -1   0  -9    4.03    0.45
  -1   0  -9    4.70    1.15
  -1   0  -9    4.90    0.52
  -1   0  -9    4.31    0.46
  -1   0  -9    5.18    0.97
  -2   0  -9    0.13    0.95
  -2   0  -9    1.65    1.18
  -2   0  -9    0.50    0.24
  -2   0  -9    0.96    0.81
  -2   0  -9    0.95    0.22
  -2   0  -9    0.32    0.19
  -2   0  -9    0.06    0.20
  -2   0  -9    0.15    0.21
  -3   0  -9    1.14    1.33
   5  -1  -9    1.52    0.41
   4  -1  -9    1.91    0.63
   4  -1  -9    1.59    0.59
  -4   1   9    1.34    0.53
   3  -1  -9    0.03    0.55
   3  -1  -9   -0.19    0.73
   3  -1  -9    0.84    0.63
  -3   1   9    0.73    0.52
  -3   1   9    0.00    0.59
   2  -1  -9    7.93    0.84
   2  -1  -9   10.40    0.97
   2  -1  -9    8.73    1.10
   2  -1  -9   11.58    1.00
  -2   1   9   10.25    0.99
  -2   1   9   10.90    1.01
   1  -1  -9    2.67    0.46
   1  -1  -9    3.27    0.71
   1  -1  -9    2.24    0.39
   0  -1  -9    4.56    0.81
   0  -1  -9    4.53    0.47
   0  -1  -9    6.08    0.61
   0  -1  -9    4.45    0.49
   0  -1  -9    3.28    0.55
   0  -1  -9    3.93    0.70
   0  -1  -9    4.34    0.45
  -1  -1  -9    1.20    0.38
  -1  -1  -9    1.44    0.30
  -1  -1  -9    1.70    1.16
  -1  -1  -9    1.15    0.35
  -1  -1  -9    1.12    0.27
  -1  -1  -9    0.16    0.73
  -1  -1  -9    1.29    0.42
  -1  -1  -9    1.62    0.34
  -2  -1  -9    1.16    0.22
  -2  -1  -9    0.54    0.22
  -2  -1  -9    1.63    0.86
  -2  -1  -9    1.01    0.22
  -2  -1  -9    2.26    1.23
  -2  -1  -9    1.31    0.25
  -2  -1  -9    1.62    0.33
  -2  -1  -9    1.15    0.25
  -3  -1  -9    5.41    0.52
   5  -2  -9    1.10    0.39
   4  -2  -9    1.24    0.53
   4  -2  -9    0.31    0.51
  -4   2   9    1.22    0.51
   3  -2  -9    0.28    0.59
   3  -2  -9    0.16    0.72
   3  -2  -9    1.10    0.62
  -3   2   9    0.15    0.60
  -3   2   9    0.47    0.49
   2  -2  -9    7.16    1.01
   2  -2  -9    9.27    0.91
   2  -2  -9    9.73    0.93
  -2   2   9    9.05    1.02
  -2   2   9    9.64    1.06
   1  -2  -9    2.57    0.44
   1  -2  -9    2.80    0.45
   1  -2  -9    1.54    0.69
   0  -2  -9    0.46    0.31
   0  -2  -9    0.39    0.29
   0  -2  -9   -0.07    0.62
   0  -2  -9    0.50    0.45
   0  -2  -9    0.37    0.32
   0  -2  -9   -0.09    0.54
  -1  -2  -9    2.47    0.44
  -1  -2  -9    2.12    0.47
  -1  -2  -9    1.75    0.49
  -1  -2  -9    1.18    0.76
  -1  -2  -9    2.40    0.41
  -1  -2  -9    2.10    0.35
  -1  -2  -9    2.09    0.41
  -2  -2  -9   13.80    1.01
  -2  -2  -9   14.78    1.02
  -2  -2  -9   13.78    1.04
  -2  -2  -9   14.49    1.00
  -2  -2  -9   15.76    1.15
  -3  -2  -9    0.03    0.29
   4  -3  -9    3.03    0.58
   4  -3  -9    2.93    0.56
   3  -3  -9    4.79    0.76
   3  -3  -9    5.52    0.77
  -3   3   9    7.97    0.88
  -3   3   9    4.32    0.71
   2  -3  -9   -0.25    0.73
   2  -3  -9   -0.02    0.50
  -2   3   9    0.03    0.85
  -2   3   9   -0.14    0.55
   1  -3  -9    3.12    0.49
   1  -3  -9    3.82    0.82
   0  -3  -9    5.14    0.57
   0  -3  -9    4.09    0.77
   0  -3  -9    5.13    0.59
   0  -3  -9    6.26    1.03
   0  -3  -9    5.48    0.67
  -1  -3  -9    5.63    0.60
  -1  -3  -9    3.32    0.88
  -1  -3  -9    6.55    0.57
  -1  -3  -9    6.02    0.88
  -1  -3  -9    6.25    0.85
  -1  -3  -9    5.73    0.63
  -1  -3  -9    6.09    0.62
  -2  -3  -9    0.14    0.25
  -2  -3  -9    0.09    0.23
  -2  -3  -9    0.02    0.41
  -2  -3  -9    0.14    0.21
  -2  -3  -9   -0.29    0.22
  -3  -3  -9    0.39    0.33
   4  -4  -9   -0.36    0.42
   4  -4  -9    0.14    0.41
  -4   4   9    0.02    0.39
   3  -4  -9    1.21    0.54
   3  -4  -9    1.11    0.51
  -3   4   9    0.85    0.58
  -3   4   9    0.70    0.48
   2  -4  -9    0.61    0.47
   2  -4  -9    1.51    0.96
  -2   4   9    0.48    0.59
   1  -4  -9    0.45    0.75
  -1   4   9    0.68    0.64
   0  -4  -9   19.80    1.86
   0  -4  -9   21.82    1.49
   0  -4  -9   24.01    1.50
   0  -4  -9   24.44    1.89
   0  -4  -9   22.53    1.67
  -1  -4  -9    1.81    0.67
  -1  -4  -9    1.21    0.42
  -1  -4  -9    1.61    0.53
  -1  -4  -9    0.89    0.53
  -1  -4  -9    1.56    0.33
  -1  -4  -9    1.33    0.35
  -1  -4  -9    1.85    0.47
  -2  -4  -9    0.04    0.20
  -2  -4  -9    0.08    0.21
  -2  -4  -9    0.40    0.21
  -2  -4  -9    0.11    0.23
  -2  -4  -9   -0.14    0.45
  -3  -4  -9   -0.22    0.31
   4  -5  -9    0.98    0.37
  -4   5   9    1.51    0.35
   3  -5  -9    0.39    0.43
  -3   5   9    0.64    0.44
  -3   5   9    0.41    0.48
   2  -5  -9    3.87    0.55
  -2   5   9    5.69    0.76
   1  -5  -9    6.09    0.74
   1  -5  -9    8.72    1.00
  -1   5   9    7.06    0.99
   0  -5  -9    0.20    0.65
   0  -5  -9    2.24    0.70
   0  -5  -9    0.30    0.47
  -1  -5  -9   -0.18    0.35
  -1  -5  -9   -0.23    0.25
  -1  -5  -9    0.06    0.48
  -1  -5  -9    0.25    0.27
  -1  -5  -9    1.01    0.44
  -2  -5  -9    1.83    0.25
  -2  -5  -9    1.96    0.24
  -2  -5  -9    1.55    0.48
   3  -6  -9    3.62    0.48
  -3   6   9    5.10    0.59
  -2   6   9   11.79    1.42
  -2   6   9   11.04    1.10
   1  -6  -9    0.84    0.36
   1  -6  -9    0.80    0.37
  -1   6   9    0.80    0.55
   0  -6  -9    0.57    0.41
   0  -6  -9    0.87    0.62
   0  -6  -9    0.36    0.61
  -1  -6  -9    0.48    0.37
  -1  -6  -9   -0.13    0.44
  -1  -6  -9   -0.32    0.28
  -3   7   9    0.10    0.25
   2  -7  -9    0.65    0.49
  -2   7   9    0.01    0.54
  -2   7   9   -0.42    0.37
  -1   7   9   -0.07    0.48
   0  -7  -9    7.43    0.64
   0  -7  -9    6.22    0.68
   0  -7  -9    8.87    1.04
  -1  -7  -9    3.88    0.39
  -1  -7  -9    4.59    0.44
  -1  -7  -9    2.94    0.38
   0  11 -10    3.86    1.04
   0 -11  10    2.23    0.42
   0 -11  10    1.51    0.45
   1 -11  10    5.01    0.63
   1 -11  10    3.93    0.61
  -2  11 -10    1.82    0.85
   2 -11  10    0.14    0.31
   2  10 -10    0.97    0.41
   1  10 -10    0.96    0.51
   1  10 -10    0.24    0.39
   1  10 -10    1.69    0.70
  -1 -10  10    0.99    0.42
  -1 -10  10    0.94    0.44
   0  10 -10    0.35    0.44
   0  10 -10    2.71    0.99
   0 -10  10    0.14    0.50
   0 -10  10    0.50    0.49
  -1  10 -10    0.22    1.04
   1 -10  10    0.30    0.51
  -2  10 -10   -0.27    0.86
   2 -10  10    0.29    0.43
   2   9 -10    0.75    0.65
   2   9 -10    0.16    0.52
   2   9 -10   -0.16    0.46
  -2  -9  10    0.48    0.38
  -2  -9  10    0.45    0.51
   1   9 -10    4.65    0.71
   1   9 -10    3.44    0.87
   1   9 -10    3.17    0.69
  -1  -9  10    1.67    0.61
  -1  -9  10    3.74    0.66
   0   9 -10    0.27    0.85
   0   9 -10    0.79    0.58
   0  -9  10    0.75    0.61
   0  -9  10    0.63    0.60
  -1   9 -10   -0.72    1.10
   1  -9  10   -0.10    0.53
  -2   9 -10    2.03    1.20
   2  -9  10    2.96    0.66
  -3   9 -10    0.85    0.55
  -3   9 -10    0.57    0.91
  -3   9 -10    0.41    0.25
  -3   9 -10    1.20    0.35
  -3   9 -10    0.80    0.30
   3   8 -10    1.08    0.52
   3   8 -10    1.05    0.46
   3   8 -10    1.13    0.60
  -3  -8  10    1.33    0.66
   2   8 -10    2.63    0.69
   2   8 -10    3.48    0.77
   2   8 -10    2.18    0.83
  -2  -8  10    1.84    0.60
  -2  -8  10    1.29    0.49
  -2  -8  10    2.21    0.58
   1   8 -10    0.14    0.65
   1   8 -10    0.37    0.60
   1   8 -10    0.33    0.84
  -1  -8  10   -0.26    0.56
  -1  -8  10    0.23    0.60
   0   8 -10   12.45    1.65
   0   8 -10    9.66    1.44
   0   8 -10    7.84    1.26
   0   8 -10    6.44    0.91
   0  -8  10    7.59    0.94
   0  -8  10    8.60    1.05
  -1   8 -10    7.50    1.43
  -1   8 -10    5.89    1.16
   1  -8  10    7.20    0.95
  -2   8 -10    1.70    1.31
  -2   8 -10    2.92    0.90
  -3   8 -10    1.00    0.42
  -3   8 -10    0.16    0.26
  -3   8 -10   -0.26    0.65
  -3   8 -10    0.54    0.97
  -3   8 -10    0.45    0.28
   3   7 -10    1.51    0.61
   3   7 -10    0.44    0.75
   3   7 -10    0.98    0.57
  -3  -7  10    1.13    0.41
  -3  -7  10    1.60    0.53
   2   7 -10    0.26    0.61
   2   7 -10    0.38    0.87
   2   7 -10   -0.14    0.64
  -2  -7  10    0.37    0.54
  -2  -7  10   -0.38    0.56
   1   7 -10    0.71    0.64
   1   7 -10    0.87    0.68
   1   7 -10    0.92    0.86
  -1  -7  10    0.92    0.67
  -1  -7  10    0.83    0.59
   0   7 -10   14.77    1.67
   0   7 -10   14.40    1.33
   0   7 -10   22.35    3.34
   0  -7  10   15.23    1.38
  -1   7 -10   -0.62    0.97
  -1   7 -10   -0.26    1.18
  -1   7 -10   -1.64    1.07
  -2   7 -10   -0.06    0.72
  -2   7 -10   -1.72    1.24
  -2   7 -10   -0.14    1.20
  -2   7 -10    1.08    0.65
  -3   7 -10    6.50    0.67
  -3   7 -10    5.48    0.81
  -3   7 -10    5.73    1.29
  -3   7 -10    4.65    0.47
  -3   7 -10    5.05    0.50
  -3   7 -10    1.67    1.14
  -4   7 -10    6.51    1.05
   4   6 -10   -0.04    0.39
   3   6 -10    0.77    0.62
   3   6 -10    0.77    0.86
   3   6 -10    0.22    0.55
  -3  -6  10   -0.08    0.55
  -3  -6  10    0.66    0.49
   2   6 -10    2.73    0.71
   2   6 -10    2.99    0.95
   2   6 -10    2.14    0.67
  -2  -6  10    2.56    0.64
  -2  -6  10    3.07    0.71
   1   6 -10   53.23    3.84
   1   6 -10   52.38    3.68
   1   6 -10   56.62    3.97
   1   6 -10   57.89    3.81
  -1  -6  10   57.79    3.88
  -1  -6  10   58.30    3.84
   0   6 -10   28.11    2.13
   0   6 -10   22.05    1.86
   0   6 -10   26.82    2.19
   0  -6  10   24.90    1.97
  -1   6 -10    0.07    0.84
  -1   6 -10   -1.48    1.17
  -1   6 -10    0.20    0.75
  -1   6 -10   -1.25    1.18
  -1   6 -10    0.45    0.47
  -2   6 -10    2.99    1.37
  -2   6 -10    2.82    0.46
  -2   6 -10    2.31    0.64
  -2   6 -10    3.12    1.39
  -2   6 -10    2.44    0.81
  -3   6 -10    1.35    1.30
  -3   6 -10    1.03    0.38
  -3   6 -10    0.76    1.24
  -3   6 -10    0.40    0.58
  -3   6 -10    0.89    0.16
  -3   6 -10    0.23    0.45
  -3   6 -10    0.69    0.17
  -3   6 -10    1.37    0.71
  -4   6 -10    0.34    0.83
  -4   6 -10    2.23    0.58
   4   5 -10   -0.06    0.65
   4   5 -10    0.04    0.41
   4   5 -10   -0.50    0.41
   3   5 -10   -0.01    0.79
   3   5 -10   -0.65    0.59
   3   5 -10   -0.25    0.53
  -3  -5  10   -0.12    0.51
  -3  -5  10   -0.08    0.59
  -3  -5  10   -0.36    0.45
   2   5 -10    2.28    0.68
   2   5 -10    2.82    0.71
   2   5 -10    3.23    0.96
  -2  -5  10    3.32    0.74
  -2  -5  10    2.99    0.67
   1   5 -10    7.04    0.67
   1   5 -10    9.18    1.22
   1   5 -10    6.48    1.13
   1   5 -10    8.37    0.92
   1   5 -10    7.73    0.94
  -1  -5  10    7.93    0.92
  -1  -5  10    8.37    0.91
   0   5 -10    0.88    0.50
   0   5 -10    1.40    0.77
   0   5 -10    0.51    0.35
   0   5 -10    2.05    0.93
   0  -5  10    0.98    0.59
  -1   5 -10    0.68    1.09
  -1   5 -10    1.92    0.72
  -1   5 -10    1.70    1.16
  -1   5 -10    1.41    0.41
  -1   5 -10    1.72    0.85
  -1   5 -10    2.41    0.84
  -1   5 -10    2.34    0.47
  -1   5 -10    1.68    0.38
  -1   5 -10    2.87    0.60
  -2   5 -10   10.65    1.58
  -2   5 -10    9.50    0.81
  -2   5 -10   10.61    1.65
  -2   5 -10    7.25    1.01
  -2   5 -10   10.13    1.21
  -2   5 -10    9.31    0.96
  -3   5 -10    2.75    0.46
  -3   5 -10    2.59    0.73
  -3   5 -10    2.36    0.46
  -3   5 -10    2.70    0.51
  -3   5 -10    3.18    1.56
  -3   5 -10    2.48    0.39
  -3   5 -10    3.50    1.32
  -4   5 -10    1.75    0.60
  -4   5 -10    0.70    0.91
   4   4 -10    1.31    0.72
   4   4 -10    1.68    0.53
   4   4 -10    0.58    0.48
  -4  -4  10    0.12    0.52
   3   4 -10    8.97    1.00
   3   4 -10    6.43    1.10
   3   4 -10    8.30    1.01
  -3  -4  10    7.70    0.89
  -3  -4  10    7.64    0.89
   2   4 -10    3.76    0.98
   2   4 -10    2.85    0.69
   2   4 -10    2.58    0.69
   2   4 -10    1.40    0.41
  -2  -4  10    3.32    0.67
  -2  -4  10    2.53    0.63
   1   4 -10    0.83    0.84
   1   4 -10   -0.19    0.48
   1   4 -10    0.12    0.23
   1   4 -10   -0.51    0.62
   1   4 -10    0.54    0.52
   1   4 -10   -0.60    0.69
  -1  -4  10    0.06    0.47
   0   4 -10    0.90    0.80
   0   4 -10    2.74    0.84
   0   4 -10    2.07    0.78
   0   4 -10    1.50    0.39
  -1   4 -10   31.62    2.08
  -1   4 -10   32.24    2.34
  -1   4 -10   33.63    2.48
  -1   4 -10   29.74    2.57
  -1   4 -10   30.09    2.10
  -1   4 -10   31.25    2.17
  -1   4 -10   32.03    2.09
  -1   4 -10   29.95    2.74
  -1   4 -10   28.47    2.32
  -2   4 -10    0.46    1.20
  -2   4 -10    0.44    0.59
  -2   4 -10    0.81    0.33
  -2   4 -10    0.94    0.38
  -2   4 -10    0.86    0.49
  -2   4 -10    0.39    0.53
  -2   4 -10    0.60    0.34
  -2   4 -10   -0.02    1.21
  -3   4 -10    0.89    0.60
  -3   4 -10    1.27    1.18
  -3   4 -10    1.15    0.32
  -3   4 -10    1.09    0.25
  -3   4 -10    1.36    0.31
  -3   4 -10    0.79    1.29
  -3   4 -10    1.22    0.30
  -4   4 -10    0.37    0.95
  -4   4 -10    0.29    0.51
   4   3 -10    0.52    0.49
   4   3 -10    0.55    0.54
   4   3 -10   -0.17    0.75
  -4  -3  10   -0.21    0.38
  -4  -3  10    0.32    0.51
   3   3 -10    0.68    0.57
   3   3 -10    0.58    0.58
  -3  -3  10    0.59    0.57
  -3  -3  10    0.56    0.53
   2   3 -10    0.12    0.35
   2   3 -10    2.43    0.95
   2   3 -10    1.07    0.58
   2   3 -10    0.95    0.56
  -2  -3  10    1.01    0.64
  -2  -3  10    0.46    0.51
   1   3 -10    3.38    0.41
   1   3 -10    3.34    0.57
   1   3 -10    4.06    0.76
   1   3 -10    4.18    0.93
   1   3 -10    4.72    0.62
  -1  -3  10    4.00    0.66
   0   3 -10    8.94    1.13
   0   3 -10    7.22    0.69
  -1   3 -10    1.98    1.03
  -1   3 -10    1.50    0.91
  -1   3 -10    1.55    0.52
  -1   3 -10    2.00    0.33
  -1   3 -10    1.47    0.58
  -1   3 -10    2.32    0.44
  -1   3 -10    1.37    0.44
  -1   3 -10    2.47    0.84
  -2   3 -10   -0.26    1.16
  -2   3 -10    0.30    0.21
  -2   3 -10    0.08    0.36
  -2   3 -10    1.63    1.33
  -2   3 -10   -0.32    0.48
  -2   3 -10    1.20    1.16
  -2   3 -10   -0.24    0.44
  -2   3 -10   -0.16    0.21
  -2   3 -10   -0.26    0.30
  -2   3 -10   -0.02    0.41
  -2   3 -10    0.04    0.32
  -3   3 -10   -0.21    0.47
  -3   3 -10    1.82    1.14
  -3   3 -10   -0.06    0.21
  -3   3 -10    0.32    1.23
  -4   3 -10    0.86    0.44
  -4   3 -10    0.46    1.00
   4   2 -10    0.89    0.54
   4   2 -10    1.61    0.56
  -4  -2  10    1.06    0.45
  -4  -2  10    1.17    0.57
   3   2 -10    0.78    0.57
   3   2 -10    0.83    0.59
  -3  -2  10    0.86    0.52
  -3  -2  10    1.00    0.59
   2   2 -10    1.42    0.56
   2   2 -10    0.42    0.50
   2   2 -10    0.87    0.67
   2   2 -10    0.12    0.33
  -2  -2  10    1.43    0.57
  -2  -2  10    0.83    0.56
   1   2 -10   10.93    1.03
   1   2 -10   12.10    1.18
   1   2 -10   13.04    1.00
  -1  -2  10   13.37    1.12
   0   2 -10   24.03    1.58
   0   2 -10   22.07    1.61
   0   2 -10   18.29    1.93
   0   2 -10   24.83    1.85
   0   2 -10   23.08    1.77
  -1   2 -10    0.17    0.33
  -1   2 -10    0.01    0.96
  -1   2 -10    0.57    0.66
  -1   2 -10   -0.01    0.35
  -1   2 -10   -0.33    0.88
  -1   2 -10    0.20    0.41
  -1   2 -10    0.17    0.24
  -1   2 -10   -0.12    0.46
  -2   2 -10    0.96    0.32
  -2   2 -10    0.57    0.28
  -2   2 -10    0.52    0.41
  -2   2 -10    1.45    1.12
  -2   2 -10    0.90    0.28
  -2   2 -10    0.77    0.38
  -2   2 -10    0.24    0.38
  -2   2 -10    1.67    1.14
  -3   2 -10    1.44    1.19
  -3   2 -10    2.66    0.46
  -3   2 -10    4.08    1.30
  -4   2 -10    5.83    0.58
   4   1 -10    0.84    0.54
   4   1 -10   -0.12    0.48
  -4  -1  10    2.16    0.51
   3   1 -10    0.50    0.74
   3   1 -10    1.46    0.65
   3   1 -10    0.76    0.56
  -3  -1  10    1.09    0.54
  -3  -1  10    2.07    0.62
   2   1 -10    4.70    0.66
   2   1 -10    8.89    1.12
   2   1 -10    7.00    0.82
   2   1 -10    6.75    0.83
  -2  -1  10    7.16    0.90
  -2  -1  10    7.03    0.86
   1   1 -10    0.23    0.67
   1   1 -10    0.87    0.34
   1   1 -10    1.17    0.43
  -1  -1  10    0.59    0.50
   0   1 -10   20.89    1.62
   0   1 -10   18.90    1.61
   0   1 -10   19.89    1.44
   0   1 -10   20.34    1.73
   0   1 -10   21.14    1.48
  -1   1 -10    0.12    0.70
  -1   1 -10    0.22    0.23
  -1   1 -10    0.65    0.70
  -1   1 -10   -0.13    0.33
  -1   1 -10   -0.07    0.35
  -1   1 -10    0.34    0.32
  -1   1 -10    0.06    0.29
  -1   1 -10   -0.26    0.29
  -1   1 -10   -0.03    0.79
  -1   1 -10   -0.29    0.87
  -1   1 -10    0.24    0.43
  -2   1 -10    2.01    0.30
  -2   1 -10    3.01    1.25
  -2   1 -10    1.76    0.28
  -2   1 -10    1.72    0.35
  -2   1 -10    2.05    0.29
  -2   1 -10    1.61    0.37
  -2   1 -10    1.87    1.18
  -3   1 -10    2.58    1.24
  -3   1 -10    1.83    0.35
   4   0 -10    1.58    0.55
   4   0 -10    1.68    0.55
  -4   0  10    2.19    0.54
   3   0 -10   15.94    1.33
   3   0 -10   11.42    1.43
   3   0 -10   13.94    1.27
  -3   0  10   15.77    1.29
  -3   0  10   14.65    1.27
   2   0 -10   15.67    1.56
   2   0 -10   18.17    1.39
   2   0 -10   14.46    1.22
   2   0 -10   17.87    1.37
  -2   0  10   17.14    1.41
  -2   0  10   18.19    1.40
   1   0 -10    7.10    0.70
   1   0 -10    7.14    0.73
   1   0 -10    7.88    0.95
   0   0 -10   30.15    2.03
   0   0 -10   32.07    2.08
   0   0 -10   29.88    2.02
   0   0 -10   28.58    2.21
   0   0 -10   29.89    2.03
   0   0 -10   28.67    2.26
  -1   0 -10    2.62    0.42
  -1   0 -10    2.69    0.42
  -1   0 -10    2.59    0.32
  -1   0 -10    2.05    0.46
  -1   0 -10    3.26    0.38
  -1   0 -10    1.83    0.75
  -1   0 -10    2.40    1.10
  -1   0 -10    2.23    0.49
  -1   0 -10    2.89    0.37
  -2   0 -10   -0.35    0.19
  -2   0 -10    0.14    0.20
  -2   0 -10    1.02    1.26
  -2   0 -10    0.25    0.21
  -2   0 -10    0.15    0.33
  -2   0 -10   -0.14    0.24
  -2   0 -10    0.28    0.99
  -2   0 -10    1.61    0.71
  -3   0 -10    0.79    0.26
   4  -1 -10    0.24    0.47
   4  -1 -10    0.31    0.52
  -4   1  10    0.14    0.45
   3  -1 -10    7.67    0.97
   3  -1 -10    9.06    0.97
  -3   1  10    7.31    0.93
  -3   1  10    7.91    0.91
   2  -1 -10    1.99    0.56
   2  -1 -10    2.55    0.79
   2  -1 -10    1.71    0.75
  -2   1  10    2.79    0.73
  -2   1  10    3.31    0.66
   1  -1 -10    6.78    0.99
   1  -1 -10    5.17    0.88
   1  -1 -10    6.19    0.64
   0  -1 -10   14.77    1.08
   0  -1 -10   15.85    1.19
   0  -1 -10   14.96    1.42
   0  -1 -10   14.91    1.37
   0  -1 -10   14.21    1.09
  -1  -1 -10   11.75    0.87
  -1  -1 -10   11.22    0.97
  -1  -1 -10    8.64    1.15
  -1  -1 -10   11.96    0.85
  -1  -1 -10   10.75    1.04
  -1  -1 -10   11.17    0.89
  -1  -1 -10   11.40    1.05
  -2  -1 -10    2.85    0.77
  -2  -1 -10    0.58    0.37
  -2  -1 -10    0.40    0.22
  -2  -1 -10    0.37    0.20
  -2  -1 -10    0.38    0.21
  -3  -1 -10    0.12    0.26
   4  -2 -10    0.90    0.46
   4  -2 -10    0.50    0.45
  -4   2  10    1.51    0.46
   3  -2 -10    1.00    0.70
   3  -2 -10    2.37    0.61
   3  -2 -10    1.57    0.57
  -3   2  10    1.41    0.51
  -3   2  10    1.34    0.60
   2  -2 -10    4.03    0.64
   2  -2 -10    3.12    0.86
  -2   2  10    4.88    0.77
   1  -2 -10    1.62    0.70
   0  -2 -10    2.75    0.83
   0  -2 -10    1.02    0.63
   0  -2 -10    1.36    0.27
   0  -2 -10    2.18    0.55
   0  -2 -10    1.93    0.29
  -1  -2 -10    0.21    0.69
  -1  -2 -10    0.60    0.37
  -1  -2 -10    0.27    0.46
  -1  -2 -10    0.39    0.27
  -1  -2 -10    0.43    0.37
  -1  -2 -10    0.26    0.32
  -1  -2 -10   -0.12    0.47
  -2  -2 -10    5.73    0.50
  -2  -2 -10    6.08    0.76
  -2  -2 -10    4.88    0.46
  -3  -2 -10    1.30    0.32
   4  -3 -10    1.27    0.42
   4  -3 -10    1.33    0.46
  -4   3  10    0.58    0.38
   3  -3 -10    5.51    0.72
   3  -3 -10    5.05    0.72
  -3   3  10    5.54    0.75
  -3   3  10    6.62    0.80
   2  -3 -10    1.49    0.69
   2  -3 -10    0.94    0.48
  -2   3  10    1.61    0.61
   1  -3 -10    2.22    0.72
   0  -3 -10    1.28    0.66
   0  -3 -10    1.76    0.52
   0  -3 -10    1.08    0.67
  -1  -3 -10    0.06    0.51
  -1  -3 -10   -0.33    0.47
  -1  -3 -10   -0.51    0.25
  -1  -3 -10    0.08    0.36
  -1  -3 -10    0.31    0.25
  -1  -3 -10    0.69    0.60
  -2  -3 -10    2.38    0.49
  -2  -3 -10    2.25    0.27
  -2  -3 -10    1.55    0.25
  -3  -3 -10    2.31    0.34
   4  -4 -10    0.00    0.34
  -4   4  10    0.24    0.26
   3  -4 -10    0.50    0.44
  -3   4  10    0.79    0.51
  -3   4  10    0.37    0.41
   2  -4 -10    3.08    0.52
  -2   4  10    3.41    0.67
   1  -4 -10    2.59    0.72
   1  -4 -10    0.36    0.43
  -1   4  10    0.39    0.63
   0  -4 -10    7.24    1.12
   0  -4 -10   10.83    1.20
   0  -4 -10    9.47    1.10
   0  -4 -10    9.31    0.90
  -1  -4 -10    2.88    0.29
  -1  -4 -10    2.84    0.54
  -1  -4 -10    2.95    0.30
  -1  -4 -10    2.51    0.61
  -1  -4 -10    3.33    0.47
  -2  -4 -10    2.73    0.28
  -2  -4 -10    3.14    0.30
  -2  -4 -10    2.96    0.51
   3  -5 -10    0.50    0.33
  -3   5  10    0.17    0.35
  -3   5  10    0.16    0.42
  -2   5  10    0.84    0.53
   1  -5 -10    0.22    0.33
   1  -5 -10    0.06    0.35
  -1   5  10    0.10    0.55
   0  -5 -10   -0.40    0.40
   0  -5 -10    0.11    0.60
   0  -5 -10    0.41    0.40
  -1  -5 -10    6.82    0.67
  -1  -5 -10    8.13    0.78
  -1  -5 -10    7.85    0.81
  -2  -5 -10    0.10    0.09
  -2  -5 -10    0.15    0.09
  -3   6  10    0.09    0.27
  -3   6  10    0.69    0.36
   2  -6 -10    2.38    0.47
  -2   6  10    1.71    0.50
  -1   6  10    5.70    0.79
   0  -6 -10    3.14    0.43
   0  -6 -10    3.73    0.63
   0  -6 -10    2.72    0.46
  -1  -6 -10    0.42    0.26
  -1  -6 -10    0.28    0.24
  -2   7  10    2.11    0.43
  -1   7  10    1.99    0.44
   0  -7 -10    0.57    0.27
   0  -7 -10    0.36    0.16
   0  -7 -10    0.61    0.18
   0  -7 -10    0.27    0.41
   0 -11  11    0.13    0.35
  -1  11 -11    8.89    1.24
   1 -11  11    5.31    0.70
   1  10 -11   -0.44    0.31
   1  10 -11    0.76    0.58
  -1 -10  11    0.17    0.36
  -1 -10  11    0.11    0.37
   0 -10  11    0.15    0.43
   0 -10  11   -0.56    0.49
  -1  10 -11    0.89    0.38
  -1  10 -11    1.29    0.90
   1 -10  11    0.45    0.45
  -2  10 -11    1.80    0.86
   2 -10  11    1.90    0.46
   2   9 -11    0.12    0.44
   2   9 -11    0.00    0.60
   2   9 -11   -0.02    0.39
  -2  -9  11   -0.04    0.34
   1   9 -11    4.31    0.66
   1   9 -11    5.00    0.90
  -1  -9  11    5.08    0.71
  -1  -9  11    3.63    0.67
   0   9 -11    3.89    0.59
   0   9 -11    6.38    1.03
   0  -9  11    4.05    0.74
   0  -9  11    2.67    0.65
  -1   9 -11    0.58    1.10
  -1   9 -11    0.70    0.45
   1  -9  11    0.36    0.55
  -2   9 -11    0.05    1.08
  -2   9 -11    0.71    0.70
  -3   9 -11    1.64    0.31
  -3   9 -11    2.84    0.53
  -3   9 -11    1.46    0.77
   3   8 -11   -0.03    0.41
   3   8 -11    0.14    0.38
  -3  -8  11    1.32    0.58
   2   8 -11   -0.29    0.69
   2   8 -11    0.17    0.56
   2   8 -11    0.07    0.51
  -2  -8  11    0.40    0.44
  -2  -8  11   -0.27    0.47
   1   8 -11   -0.64    0.78
   1   8 -11    1.49    0.61
  -1  -8  11    0.91    0.62
  -1  -8  11    0.66    0.60
   0   8 -11    0.29    0.52
   0   8 -11    0.97    0.95
   0   8 -11    0.64    0.90
   0  -8  11    0.46    0.62
  -1   8 -11    0.60    1.01
  -1   8 -11    0.34    0.46
  -1   8 -11   -0.58    1.17
   1  -8  11    0.03    0.59
  -2   8 -11   -0.04    0.50
  -2   8 -11    0.69    0.70
  -2   8 -11    0.13    1.18
  -3   8 -11    1.36    0.36
  -3   8 -11    2.03    0.94
  -3   8 -11    3.19    0.59
   3   7 -11    1.00    0.68
   3   7 -11    2.58    0.58
   3   7 -11    0.73    0.47
  -3  -7  11    1.36    0.40
   2   7 -11    1.48    0.61
   2   7 -11    2.85    0.92
   2   7 -11    3.24    0.71
  -2  -7  11    2.12    0.61
  -2  -7  11    1.83    0.59
   1   7 -11    2.87    0.87
   1   7 -11    0.37    0.54
   1   7 -11    2.31    0.67
  -1  -7  11    2.56    0.68
  -1  -7  11    1.67    0.69
   0   7 -11    4.07    0.66
   0   7 -11    4.80    1.24
   0   7 -11    5.84    1.13
   0  -7  11    6.07    0.87
  -1   7 -11   15.83    1.54
  -1   7 -11   15.90    1.81
  -1   7 -11   18.85    2.12
  -1   7 -11   17.87    2.16
  -1   7 -11   18.68    1.40
  -2   7 -11    8.97    0.82
  -2   7 -11   10.69    0.98
  -2   7 -11    6.42    1.33
  -2   7 -11   10.56    1.34
  -2   7 -11    7.72    1.54
  -3   7 -11    1.14    0.34
  -3   7 -11    0.23    1.01
  -3   7 -11    2.01    0.54
  -3   7 -11    1.24    0.37
  -3   7 -11   -0.15    0.96
   3   6 -11    2.74    0.62
   3   6 -11    2.38    0.80
   3   6 -11    1.71    0.55
  -3  -6  11    1.12    0.54
  -3  -6  11    2.28    0.51
   2   6 -11    0.51    0.58
   2   6 -11    0.73    0.91
   2   6 -11    0.64    0.59
  -2  -6  11   -0.12    0.56
  -2  -6  11   -0.53    0.54
   1   6 -11    6.05    1.13
   1   6 -11    5.99    0.81
  -1  -6  11    5.91    0.86
  -1  -6  11    5.03    0.86
   0   6 -11    1.06    1.16
   0   6 -11   -0.71    0.88
   0   6 -11   -0.47    0.65
   0  -6  11   -0.25    0.52
  -1   6 -11   11.35    1.65
  -1   6 -11   11.51    1.03
  -1   6 -11   11.75    1.46
  -1   6 -11   12.88    1.84
  -1   6 -11   11.50    0.99
  -1   6 -11    9.37    1.46
  -2   6 -11    2.33    1.28
  -2   6 -11    2.18    1.31
  -2   6 -11    2.79    0.45
  -2   6 -11    2.21    0.73
  -2   6 -11    1.71    0.60
  -3   6 -11    1.19    0.44
  -3   6 -11    1.03    0.36
  -3   6 -11    1.68    1.23
  -3   6 -11    1.75    0.39
  -3   6 -11    1.13    0.33
  -3   6 -11    1.63    1.08
  -3   6 -11    2.75    0.72
  -4   6 -11    1.57    1.01
   4   5 -11    0.54    0.38
   4   5 -11    0.06    0.53
   4   5 -11   -0.03    0.41
   3   5 -11    0.23    0.85
   3   5 -11   -0.14    0.50
   3   5 -11   -0.31    0.55
  -3  -5  11    0.16    0.45
  -3  -5  11    0.47    0.58
  -3  -5  11   -0.16    0.50
   2   5 -11    1.53    0.97
   2   5 -11   -0.10    0.55
   2   5 -11   -0.10    0.57
  -2  -5  11    0.63    0.59
  -2  -5  11    0.69    0.66
   1   5 -11    6.81    1.63
   1   5 -11    9.09    1.24
   1   5 -11    6.87    0.86
  -1  -5  11    8.08    0.96
   0   5 -11   54.82    4.19
   0   5 -11   62.43    4.35
   0   5 -11   64.19    4.28
  -1   5 -11   20.46    1.53
  -1   5 -11   19.89    2.26
  -1   5 -11   20.24    1.39
  -1   5 -11   18.34    1.77
  -1   5 -11   17.54    2.04
  -1   5 -11   19.80    1.38
  -2   5 -11    2.05    0.69
  -2   5 -11    1.40    1.31
  -2   5 -11    2.10    0.70
  -2   5 -11    1.73    0.39
  -2   5 -11    2.03    1.32
  -2   5 -11    1.93    0.38
  -2   5 -11    1.57    0.53
  -3   5 -11    2.06    0.33
  -3   5 -11    2.89    1.41
  -3   5 -11    2.46    0.36
  -3   5 -11    2.04    0.68
  -3   5 -11    1.63    0.33
  -3   5 -11    1.75    0.30
  -3   5 -11    2.48    1.15
  -4   5 -11   -0.33    0.77
  -4   5 -11    1.21    0.61
   4   4 -11    0.13    0.40
   4   4 -11    0.17    0.37
   4   4 -11   -0.04    0.59
   3   4 -11    0.49    0.85
   3   4 -11    0.51    0.55
   3   4 -11    0.42    0.55
  -3  -4  11   -0.11    0.49
  -3  -4  11    0.83    1.06
  -3  -4  11    0.34    0.53
   2   4 -11   -0.13    0.54
   2   4 -11   -0.41    0.69
   2   4 -11    0.29    0.58
   2   4 -11    1.45    0.85
  -2  -4  11    0.55    0.64
  -2  -4  11    0.22    0.54
   1   4 -11    2.50    0.58
   1   4 -11    2.48    0.92
   1   4 -11    1.33    0.69
  -1  -4  11    2.05    0.61
   0   4 -11    0.01    1.06
   0   4 -11    0.03    0.31
   0   4 -11    1.27    0.78
  -1   4 -11    5.58    0.71
  -1   4 -11    4.63    1.33
  -1   4 -11    5.93    0.86
  -1   4 -11    5.75    1.24
  -1   4 -11    6.38    1.01
  -1   4 -11    6.16    0.75
  -2   4 -11    2.93    1.25
  -2   4 -11    1.78    0.63
  -2   4 -11    2.11    0.32
  -2   4 -11    2.61    0.43
  -2   4 -11    2.15    0.62
  -2   4 -11    2.35    0.32
  -2   4 -11    2.44    1.15
  -2   4 -11    2.51    0.52
  -3   4 -11    8.76    1.45
  -3   4 -11    5.11    1.35
  -3   4 -11    7.34    0.61
  -3   4 -11    8.27    1.08
  -4   4 -11   -0.66    0.81
  -4   4 -11    1.31    0.41
   4   3 -11    0.13    0.68
   4   3 -11   -0.13    0.44
   4   3 -11    0.37    0.44
  -4  -3  11   -0.08    0.33
  -4  -3  11    0.39    0.50
   3   3 -11    1.38    0.95
   3   3 -11    1.61    0.62
   3   3 -11    1.37    0.59
  -3  -3  11    2.42    0.64
  -3  -3  11    2.41    0.60
   2   3 -11   12.87    1.44
   2   3 -11    9.98    1.29
   2   3 -11   13.80    1.14
   2   3 -11   12.02    1.16
  -2  -3  11   12.27    1.19
  -2  -3  11   12.19    1.15
   1   3 -11    2.76    0.79
   1   3 -11    2.84    0.89
   1   3 -11    3.02    0.56
  -1  -3  11    2.45    0.64
   0   3 -11    3.42    0.47
   0   3 -11    1.95    0.47
   0   3 -11    5.05    0.92
   0   3 -11    3.76    0.96
   0   3 -11    3.13    1.19
  -1   3 -11    0.42    0.57
  -1   3 -11    1.62    0.75
  -1   3 -11    0.70    0.55
  -1   3 -11    0.57    0.44
  -1   3 -11    1.03    1.10
  -1   3 -11   -0.20    0.96
  -1   3 -11    0.53    0.42
  -2   3 -11   15.68    1.39
  -2   3 -11   15.74    1.20
  -2   3 -11   14.78    2.03
  -2   3 -11   17.20    1.23
  -2   3 -11   15.72    1.22
  -2   3 -11   16.65    1.32
  -2   3 -11   16.18    1.18
  -2   3 -11   15.14    2.13
  -3   3 -11   -0.39    1.17
  -3   3 -11   -0.27    0.48
  -3   3 -11   -0.12    1.16
  -4   3 -11    0.68    0.30
   4   2 -11   -0.04    0.45
   4   2 -11    0.28    0.47
   4   2 -11   -0.04    0.68
  -4  -2  11   -0.12    0.50
  -4  -2  11    0.49    0.39
   3   2 -11   -0.93    0.59
   3   2 -11    0.31    0.53
   3   2 -11    0.48    0.53
  -3  -2  11   -0.07    0.49
  -3  -2  11   -0.81    0.53
   2   2 -11    0.79    0.85
   2   2 -11   -0.24    0.31
   2   2 -11    1.01    0.56
   2   2 -11    0.53    0.53
   2   2 -11    0.63    0.73
  -2  -2  11    0.33    0.59
  -2  -2  11    0.43    0.52
   1   2 -11    1.20    0.37
   1   2 -11    1.59    0.47
   1   2 -11    0.85    0.64
  -1  -2  11    1.75    0.56
   0   2 -11    5.72    0.78
   0   2 -11    4.68    0.54
   0   2 -11    4.25    0.69
   0   2 -11    3.80    0.59
   0   2 -11    5.96    1.11
   0   2 -11    4.16    0.80
   0   2 -11    4.42    0.52
  -1   2 -11    2.78    0.43
  -1   2 -11    2.36    0.60
  -1   2 -11    3.42    0.49
  -1   2 -11    4.14    0.85
  -1   2 -11    2.67    0.58
  -1   2 -11    3.30    1.03
  -1   2 -11    1.91    1.14
  -2   2 -11    2.67    1.23
  -2   2 -11    0.96    0.32
  -2   2 -11    1.34    0.29
  -2   2 -11    0.95    0.31
  -2   2 -11    0.74    0.28
  -2   2 -11    1.26    1.10
  -2   2 -11    1.59    0.48
  -2   2 -11    1.33    0.37
  -3   2 -11    1.25    1.22
  -3   2 -11    1.19    1.12
  -3   2 -11   -0.05    0.41
   4   1 -11    4.39    0.58
   4   1 -11    1.24    0.50
  -4  -1  11    2.96    0.50
   3   1 -11    4.53    0.69
   3   1 -11    2.56    0.64
  -3  -1  11    2.69    0.64
  -3  -1  11    2.87    0.64
   2   1 -11   10.33    0.92
   2   1 -11    7.21    0.96
   2   1 -11    7.39    1.14
  -2  -1  11    9.19    1.01
  -2  -1  11    8.71    0.97
   1   1 -11    0.95    0.36
   1   1 -11    0.27    0.40
   1   1 -11    1.46    0.66
  -1  -1  11    0.48    0.50
   0   1 -11    3.45    0.71
   0   1 -11    3.66    0.46
   0   1 -11    3.51    0.43
   0   1 -11    5.42    0.62
   0   1 -11    4.05    1.00
   0   1 -11    4.59    0.87
   0   1 -11    3.68    0.47
  -1   1 -11    9.30    0.76
  -1   1 -11    6.82    1.33
  -1   1 -11    9.58    0.85
  -1   1 -11    9.49    0.80
  -1   1 -11    8.86    1.28
  -1   1 -11    8.65    1.07
  -1   1 -11    7.88    0.94
  -1   1 -11    9.15    0.98
  -1   1 -11    8.91    0.73
  -2   1 -11    1.22    0.25
  -2   1 -11    1.44    0.27
  -2   1 -11    1.85    1.09
  -2   1 -11    2.77    1.23
  -2   1 -11    1.94    0.32
  -2   1 -11    1.06    0.24
  -3   1 -11    0.22    0.35
   4   0 -11    0.63    0.46
   4   0 -11    0.87    0.48
  -4   0  11    0.51    0.42
   3   0 -11   14.49    1.53
   3   0 -11   17.72    1.38
  -3   0  11   17.69    1.40
  -3   0  11   17.28    1.40
   2   0 -11    7.47    1.11
   2   0 -11    8.76    0.90
  -2   0  11    9.75    1.22
  -2   0  11    9.15    0.99
   1   0 -11    1.10    0.67
   1   0 -11    2.48    0.59
   0   0 -11    0.16    0.27
   0   0 -11    0.09    0.57
   0   0 -11   -0.07    0.59
   0   0 -11   -0.04    0.25
   0   0 -11    0.24    0.45
  -1   0 -11    9.46    1.01
  -1   0 -11    9.61    0.76
  -1   0 -11    9.94    0.91
  -1   0 -11    9.41    0.82
  -1   0 -11    9.52    1.15
  -1   0 -11   10.03    1.01
  -1   0 -11    9.82    0.76
  -1   0 -11    8.67    1.56
  -2   0 -11    0.76    0.21
  -2   0 -11    1.65    1.21
  -2   0 -11    0.12    0.38
  -2   0 -11   -1.00    1.01
  -2   0 -11    0.26    0.22
  -2   0 -11   -0.03    0.17
  -3   0 -11    1.21    0.34
   4  -1 -11    0.46    0.41
   4  -1 -11    1.80    0.47
  -4   1  11    0.63    0.39
   3  -1 -11    4.88    0.68
   3  -1 -11    4.46    0.65
  -3   1  11    3.79    0.61
  -3   1  11    3.33    0.67
   2  -1 -11    3.15    0.87
   2  -1 -11    4.11    0.62
  -2   1  11    3.73    0.70
   1  -1 -11    6.98    0.95
   0  -1 -11    0.18    0.69
   0  -1 -11   -0.26    0.58
   0  -1 -11    0.01    0.45
  -1  -1 -11   17.33    1.42
  -1  -1 -11   17.21    1.18
  -1  -1 -11   15.62    1.25
  -1  -1 -11   16.13    1.53
  -1  -1 -11   17.66    1.29
  -1  -1 -11   17.24    1.19
  -1  -1 -11   17.58    1.37
  -2  -1 -11    3.59    0.38
  -2  -1 -11    3.89    0.52
  -2  -1 -11    3.90    0.38
  -3  -1 -11    0.62    0.31
   4  -2 -11    4.46    0.51
  -4   2  11    3.58    0.50
   3  -2 -11    0.30    0.46
  -3   2  11   -0.05    0.39
  -3   2  11    0.30    0.52
   2  -2 -11    4.14    0.58
   2  -2 -11    4.70    0.90
  -2   2  11    5.70    0.80
   1  -2 -11    7.87    1.07
   1  -2 -11    8.90    0.97
   0  -2 -11    4.20    0.77
   0  -2 -11    3.10    0.65
   0  -2 -11    5.81    0.92
   0  -2 -11    3.82    0.60
  -1  -2 -11    9.14    0.95
  -1  -2 -11    9.21    0.76
  -1  -2 -11    7.66    0.63
  -1  -2 -11    9.35    0.84
  -1  -2 -11    9.60    1.03
  -1  -2 -11    8.03    0.62
  -2  -2 -11    1.25    0.19
  -2  -2 -11    0.90    0.19
  -2  -2 -11    0.67    0.42
  -3  -2 -11    0.04    0.27
   4  -3 -11    0.84    0.40
  -4   3  11    3.87    0.44
   3  -3 -11    0.30    0.41
  -3   3  11   -0.12    0.47
  -3   3  11    0.20    0.40
   2  -3 -11    1.77    0.93
  -2   3  11    1.20    0.57
   1  -3 -11    4.45    0.53
   1  -3 -11    3.67    0.77
   0  -3 -11   -0.05    0.42
   0  -3 -11   -0.46    0.60
   0  -3 -11    0.27    0.45
   0  -3 -11    0.82    0.60
  -1  -3 -11    0.32    0.43
  -1  -3 -11    0.81    0.35
  -1  -3 -11    0.12    0.32
  -1  -3 -11    0.26    0.51
  -2  -3 -11    0.07    0.40
  -2  -3 -11    0.51    0.13
  -2  -3 -11    0.53    0.13
   3  -4 -11    5.84    0.63
  -3   4  11    5.17    0.66
  -3   4  11    6.60    0.67
  -2   4  11    6.24    0.82
   1  -4 -11    0.33    0.30
   1  -4 -11    1.09    0.32
  -1   4  11    0.61    0.56
   0  -4 -11    0.58    0.42
   0  -4 -11   -0.10    0.40
   0  -4 -11   -0.85    0.57
  -1  -4 -11    0.17    0.31
  -1  -4 -11    0.18    0.35
  -1  -4 -11    0.16    0.28
  -2  -4 -11    0.71    0.36
  -3   5  11    0.42    0.30
  -3   5  11    0.76    0.44
   2  -5 -11    0.59    0.34
  -2   5  11    0.07    0.40
  -1   5  11    0.75    0.51
   0  -5 -11   -0.51    0.31
   0  -5 -11    0.40    0.34
   0  -5 -11   -0.01    0.53
   0  -5 -11    0.19    0.35
  -1  -5 -11    7.61    0.59
  -1  -5 -11    6.18    0.56
  -1  -5 -11    7.87    0.61
   2  -6 -11    1.08    0.16
   2  -6 -11    1.47    0.19
  -2   6  11    1.19    0.39
  -1   6  11   -0.12    0.35
   0  -6 -11    0.42    0.25
   0  -6 -11    0.47    0.17
   0  -6 -11    0.60    0.19
   0  -6 -11    0.81    0.45
   1  10 -12    1.66    1.01
  -1 -10  12    0.04    0.34
  -1 -10  12    0.85    0.34
   0 -10  12   -0.12    0.36
   0 -10  12    0.15    0.44
  -1  10 -12    1.91    0.81
  -1  10 -12    0.60    0.23
  -1  10 -12    0.52    0.16
   1 -10  12    0.06    0.42
  -2  10 -12    7.75    1.20
   2   9 -12    3.05    0.99
   2   9 -12    1.29    0.34
   2   9 -12    1.67    0.72
  -2  -9  12    0.77    0.33
   1   9 -12    0.86    0.69
   1   9 -12   -0.79    0.61
   1   9 -12   -0.11    0.36
  -1  -9  12   -0.22    0.45
  -1  -9  12   -0.35    0.46
   0   9 -12   -0.04    0.73
   0  -9  12   -0.49    0.49
   0  -9  12   -0.39    0.48
  -1   9 -12    0.92    0.93
  -1   9 -12   -0.20    0.29
  -1   9 -12   -0.16    0.30
   1  -9  12   -0.10    0.47
  -2   9 -12    0.06    0.31
  -2   9 -12    0.53    0.53
  -2   9 -12   -0.20    0.86
   2   8 -12    0.46    0.66
   2   8 -12    0.97    0.46
  -2  -8  12    0.17    0.38
  -2  -8  12   -0.15    0.40
   1   8 -12    0.42    0.48
   1   8 -12   -0.19    0.79
  -1  -8  12    0.07    0.54
  -1  -8  12    0.33    0.58
   0   8 -12    7.08    1.26
   0  -8  12    7.10    0.96
  -1   8 -12    8.10    1.27
  -1   8 -12    8.04    0.76
  -1   8 -12    7.75    0.72
  -1   8 -12    7.62    1.29
   1  -8  12    7.03    0.95
  -2   8 -12    0.12    0.41
  -2   8 -12    0.21    0.59
  -2   8 -12    0.89    0.96
  -2   8 -12    0.07    0.34
  -2   8 -12    0.43    0.83
  -3   8 -12    0.83    0.30
  -3   8 -12    0.42    0.22
  -3   8 -12    0.35    0.21
  -3   8 -12   -0.14    0.73
   3   7 -12    0.25    0.40
   3   7 -12    0.49    0.39
   3   7 -12    0.69    0.53
  -3  -7  12    0.10    0.38
   2   7 -12   -0.43    0.71
   2   7 -12   -0.18    0.45
   2   7 -12    0.36    0.53
  -2  -7  12   -0.32    0.48
  -2  -7  12    0.14    0.49
   1   7 -12    2.57    0.61
   1   7 -12    2.48    0.91
  -1  -7  12    3.41    0.75
  -1  -7  12    2.93    0.69
   0   7 -12    1.07    1.07
   0   7 -12    0.51    0.81
   0  -7  12    0.59    0.59
  -1   7 -12    2.02    0.35
  -1   7 -12    1.44    1.09
  -1   7 -12    1.42    0.32
  -1   7 -12    2.18    1.09
  -2   7 -12    0.59    0.33
  -2   7 -12    0.43    0.62
  -2   7 -12    0.39    1.03
  -2   7 -12    0.67    0.48
  -2   7 -12    0.88    1.10
  -3   7 -12    1.69    0.30
  -3   7 -12    1.39    0.29
  -3   7 -12    1.85    0.93
  -3   7 -12    0.67    0.80
  -3   7 -12    1.79    0.27
   3   6 -12    2.49    0.50
   3   6 -12    2.29    0.74
   3   6 -12    1.87    0.50
  -3  -6  12    2.08    0.45
  -3  -6  12    2.33    0.83
   2   6 -12    3.03    0.86
   2   6 -12    2.41    0.61
   2   6 -12    5.48    0.71
  -2  -6  12    4.17    0.73
  -2  -6  12    3.64    0.71
   1   6 -12    2.78    0.63
  -1  -6  12    3.40    0.69
  -1  -6  12    5.11    0.80
   0   6 -12    1.48    1.12
   0   6 -12    0.55    0.79
   0  -6  12    0.44    0.62
  -1   6 -12   15.69    1.06
  -1   6 -12   16.50    1.60
  -1   6 -12   16.30    1.91
  -1   6 -12   15.91    1.32
  -1   6 -12   15.86    2.03
  -1   6 -12   14.88    1.06
  -2   6 -12    7.75    0.93
  -2   6 -12   10.31    1.58
  -2   6 -12   10.71    1.20
  -2   6 -12    8.55    0.75
  -2   6 -12    8.92    0.77
  -2   6 -12   11.60    1.62
  -3   6 -12    3.28    0.32
  -3   6 -12    4.74    0.73
  -3   6 -12    2.17    1.06
  -3   6 -12    2.63    0.35
  -3   6 -12    3.64    0.34
  -3   6 -12    3.13    1.00
  -3   6 -12    2.74    0.33
   3   5 -12    0.09    0.48
   3   5 -12    0.72    0.52
   3   5 -12    0.98    0.79
  -3  -5  12    0.98    0.45
  -3  -5  12    1.47    0.80
  -3  -5  12    0.80    0.43
   2   5 -12    1.62    0.57
   2   5 -12    3.29    0.64
   2   5 -12    3.19    0.96
  -2  -5  12    2.72    0.67
  -2  -5  12    2.81    0.66
   1   5 -12    2.48    0.58
   1   5 -12    3.15    0.93
  -1  -5  12    2.91    0.71
   0   5 -12   28.74    2.36
   0   5 -12   24.09    2.14
  -1   5 -12    3.01    0.63
  -1   5 -12    2.87    1.14
  -1   5 -12    1.91    0.74
  -1   5 -12    2.70    1.35
  -2   5 -12    2.76    0.65
  -2   5 -12    3.31    0.47
  -2   5 -12    1.84    1.20
  -2   5 -12    3.12    0.71
  -2   5 -12    2.05    0.52
  -2   5 -12    1.89    0.31
  -2   5 -12    2.74    1.27
  -2   5 -12    2.44    0.33
  -3   5 -12    1.82    0.27
  -3   5 -12    2.74    0.64
  -3   5 -12    1.20    0.96
  -3   5 -12    2.69    1.17
   4   4 -12    2.33    0.74
   4   4 -12    1.87    0.45
   4   4 -12    3.81    0.49
   3   4 -12    0.40    0.81
   3   4 -12    0.20    0.51
   3   4 -12    0.34    0.50
  -3  -4  12    0.32    0.49
  -3  -4  12    0.12    0.48
   2   4 -12    0.85    0.54
   2   4 -12    1.15    0.57
   2   4 -12   -0.14    0.68
   2   4 -12    1.40    0.87
  -2  -4  12    1.17    0.62
  -2  -4  12    1.52    0.60
   1   4 -12    2.03    0.51
   1   4 -12    0.87    0.79
  -1  -4  12    2.37    0.63
   0   4 -12    5.69    1.32
   0   4 -12    4.97    0.61
  -1   4 -12   24.97    2.40
  -1   4 -12   25.22    1.99
  -1   4 -12   24.53    1.80
  -1   4 -12   25.05    1.76
  -1   4 -12   22.99    2.26
  -2   4 -12    3.72    1.29
  -2   4 -12    3.80    0.71
  -2   4 -12    4.42    0.50
  -2   4 -12    4.60    0.54
  -2   4 -12    4.86    0.58
  -2   4 -12    4.12    0.64
  -2   4 -12    5.72    1.32
  -3   4 -12    2.86    0.62
  -3   4 -12    2.82    1.19
  -3   4 -12    3.89    1.19
   4   3 -12    0.03    0.34
   4   3 -12    0.41    0.41
   4   3 -12   -0.39    0.50
  -4  -3  12    0.45    0.35
   3   3 -12    0.31    0.50
   3   3 -12    0.44    0.51
   3   3 -12    0.66    0.83
  -3  -3  12    0.56    0.48
  -3  -3  12    0.33    0.50
   2   3 -12    4.52    0.65
   2   3 -12    2.33    0.78
  -2  -3  12    4.18    0.69
  -2  -3  12    3.53    0.68
   1   3 -12   -0.55    0.67
   1   3 -12   -0.18    0.42
  -1  -3  12    0.40    0.55
   0   3 -12   -0.55    0.66
   0   3 -12    0.26    0.41
   0   3 -12    0.64    0.36
   0   3 -12   -0.05    0.71
   0   3 -12   -0.60    0.90
  -1   3 -12    0.52    0.38
  -1   3 -12    1.13    0.62
  -1   3 -12    0.78    0.45
  -1   3 -12    0.54    1.10
  -1   3 -12    0.60    0.59
  -1   3 -12    1.02    1.04
  -2   3 -12   10.77    1.16
  -2   3 -12   10.48    0.85
  -2   3 -12    9.83    1.54
  -2   3 -12    9.66    0.82
  -2   3 -12    9.18    0.84
  -2   3 -12   12.71    1.87
  -2   3 -12   10.36    0.87
  -2   3 -12   10.85    0.90
  -3   3 -12    2.12    1.05
  -3   3 -12    2.40    0.54
  -3   3 -12    2.60    1.11
   4   2 -12    0.21    0.56
   4   2 -12    0.59    0.41
   4   2 -12    0.59    0.39
  -4  -2  12    0.34    0.33
   3   2 -12    1.27    0.53
   3   2 -12    0.62    0.52
   3   2 -12   -0.76    0.73
  -3  -2  12    0.89    0.54
  -3  -2  12    0.63    0.48
   2   2 -12    0.35    0.70
   2   2 -12    0.79    0.51
  -2  -2  12    0.97    0.57
  -2  -2  12    1.41    0.66
   1   2 -12    4.27    0.78
   0   2 -12    0.03    0.28
   0   2 -12    0.13    0.88
   0   2 -12    0.15    0.65
   0   2 -12    0.23    0.62
   0   2 -12   -0.43    0.30
   0   2 -12   -0.03    0.46
  -1   2 -12    4.51    0.48
  -1   2 -12    4.29    0.49
  -1   2 -12    4.62    1.05
  -1   2 -12    6.07    0.88
  -1   2 -12    3.99    0.70
  -1   2 -12    3.39    1.18
  -1   2 -12    5.09    0.59
  -1   2 -12    4.21    0.69
  -2   2 -12    0.18    0.27
  -2   2 -12    0.62    0.26
  -2   2 -12   -0.01    0.22
  -2   2 -12    0.51    0.25
  -2   2 -12   -0.12    1.04
  -2   2 -12    1.04    1.20
  -2   2 -12    0.24    0.48
  -3   2 -12    2.80    0.50
  -3   2 -12    3.91    1.18
   4   1 -12   -0.13    0.37
   4   1 -12   -0.27    0.56
   4   1 -12    0.13    0.39
  -4  -1  12    0.31    0.32
   3   1 -12    1.05    0.50
   3   1 -12    0.60    0.50
   3   1 -12   -0.19    1.13
  -3  -1  12    1.25    0.49
  -3  -1  12    0.73    0.55
   2   1 -12   -0.58    0.59
   2   1 -12   -0.33    0.47
  -2  -1  12   -0.04    0.47
  -2  -1  12   -0.04    0.62
   1   1 -12    2.48    0.71
  -1  -1  12    3.61    0.66
   0   1 -12    4.13    0.45
   0   1 -12    2.78    0.55
   0   1 -12    3.16    0.69
   0   1 -12    4.29    0.44
   0   1 -12    2.79    0.73
  -1   1 -12    5.45    0.53
  -1   1 -12    4.85    0.68
  -1   1 -12    4.18    1.35
  -1   1 -12    5.40    0.60
  -1   1 -12    4.59    1.02
  -1   1 -12    6.50    0.55
  -1   1 -12    5.68    0.60
  -1   1 -12    6.11    0.78
  -2   1 -12    0.99    0.18
  -2   1 -12    2.25    1.29
  -2   1 -12    0.82    0.20
  -2   1 -12    0.99    0.23
  -2   1 -12    1.18    0.48
  -2   1 -12    1.15    1.07
  -3   1 -12    0.48    0.36
   4   0 -12    7.83    0.70
   4   0 -12    5.74    0.69
  -4   0  12    6.25    0.63
   3   0 -12    0.89    0.47
  -3   0  12    1.13    0.46
  -3   0  12    0.96    0.51
   2   0 -12    1.50    0.48
   2   0 -12    1.16    0.67
  -2   0  12    2.37    0.59
   1   0 -12   13.20    1.33
   0   0 -12    1.21    0.62
   0   0 -12    1.66    0.50
   0   0 -12    0.85    0.60
  -1   0 -12   -0.01    0.46
  -1   0 -12   -0.17    0.24
  -1   0 -12    0.25    0.35
  -1   0 -12    0.48    0.38
  -1   0 -12    1.53    0.61
  -1   0 -12   -0.20    0.22
  -2   0 -12    0.52    0.18
  -2   0 -12    0.55    0.47
  -2   0 -12    0.45    0.18
  -3   0 -12    1.84    0.33
   4  -1 -12   -0.03    0.31
  -4   1  12   -0.30    0.28
   3  -1 -12    0.38    0.43
  -3   1  12    0.70    0.43
  -3   1  12    0.50    0.49
   2  -1 -12   23.83    2.10
   2  -1 -12   28.40    1.92
  -2   1  12   29.04    2.05
   1  -1 -12   15.16    1.18
   1  -1 -12   13.60    1.38
   0  -1 -12    0.53    0.42
   0  -1 -12    0.26    0.45
   0  -1 -12   -0.11    0.57
   0  -1 -12    0.87    0.64
  -1  -1 -12    2.43    0.40
  -1  -1 -12    2.14    0.39
  -1  -1 -12    1.68    0.61
  -1  -1 -12    1.74    0.46
  -1  -1 -12    1.20    0.55
  -1  -1 -12    2.82    1.03
  -2  -1 -12    0.56    0.42
  -2  -1 -12    0.35    0.15
  -2  -1 -12    0.42    0.14
   3  -2 -12    0.46    0.36
  -3   2  12    0.65    0.46
  -3   2  12    0.43    0.39
  -2   2  12    6.58    0.84
   1  -2 -12    0.03    0.36
   1  -2 -12    0.60    0.59
   1  -2 -12    0.37    0.36
   0  -2 -12    0.04    0.40
   0  -2 -12    1.27    0.59
   0  -2 -12   -0.17    0.42
   0  -2 -12    0.73    0.60
  -1  -2 -12    2.09    0.36
  -1  -2 -12    2.00    0.57
  -1  -2 -12    1.94    0.35
  -1  -2 -12    2.03    0.42
  -1  -2 -12    1.67    0.36
  -2  -2 -12    3.91    0.52
  -3   3  12    4.52    0.58
  -3   3  12    4.40    0.59
  -2   3  12    0.51    0.48
   1  -3 -12    1.64    0.29
   1  -3 -12    1.53    0.29
   0  -3 -12    3.94    0.50
   0  -3 -12    3.06    0.51
   0  -3 -12    3.48    0.68
  -1  -3 -12    0.92    0.29
  -1  -3 -12    1.14    0.59
  -1  -3 -12    1.21    0.31
  -1  -3 -12    0.80    0.28
  -1  -3 -12    1.18    0.30
  -2  -3 -12    1.92    0.39
  -3   4  12    0.29    0.29
  -3   4  12    0.52    0.49
   2  -4 -12    0.61    0.33
  -2   4  12    0.25    0.39
   0  -4 -12    1.28    0.37
   0  -4 -12    0.91    0.54
   0  -4 -12    0.68    0.32
   0  -4 -12    1.22    0.29
  -1  -4 -12    0.21    0.21
  -1  -4 -12    0.51    0.20
  -1  -4 -12    0.44    0.20
  -1  -4 -12    0.30    0.20
  -2   5  12    5.42    0.63
   1  -5 -12    2.25    0.58
  -1   5  12    2.93    0.58
   0  -5 -12    0.10    0.13
   0  -5 -12    0.39    0.44
   0  -5 -12    0.06    0.23
   0  -5 -12    0.07    0.10
   0 -10  13    0.48    0.33
   1 -10  13    0.67    0.34
   1   9 -13    1.30    0.56
   1   9 -13    0.81    0.56
  -1  -9  13    0.36    0.39
  -1  -9  13    0.21    0.42
   0   9 -13   -0.05    0.33
   0   9 -13    1.04    0.63
   0  -9  13    0.00    0.45
  -1   9 -13    1.25    0.80
   1  -9  13    0.40    0.41
  -2   9 -13    0.98    0.32
  -2   9 -13    1.14    0.75
  -2   9 -13    1.37    0.47
  -2   9 -13    0.51    0.21
   2   8 -13   -0.16    0.31
   2   8 -13    0.16    0.51
  -2  -8  13   -0.08    0.34
  -2  -8  13   -0.25    0.31
   1   8 -13    0.32    0.67
   1   8 -13    0.88    0.83
  -1  -8  13    0.86    0.51
  -1  -8  13   -0.17    0.47
   0   8 -13    1.57    0.48
   0   8 -13    1.71    0.73
   0   8 -13    3.54    1.04
   0  -8  13    2.34    0.61
  -1   8 -13    1.23    0.85
  -1   8 -13    2.09    0.95
   1  -8  13    1.08    0.58
  -2   8 -13    0.11    0.23
  -2   8 -13   -0.12    0.52
  -2   8 -13    0.14    0.69
  -2   8 -13    0.43    0.90
  -2   8 -13    0.21    0.29
  -2   8 -13    0.07    0.23
   2   7 -13   -0.35    0.61
   2   7 -13   -0.03    0.38
  -2  -7  13   -0.17    0.41
  -2  -7  13   -0.05    0.47
   1   7 -13   -0.08    0.56
   1   7 -13    0.64    0.79
   1   7 -13    0.85    1.05
  -1  -7  13    0.83    0.54
  -1  -7  13    0.73    0.53
   0   7 -13    0.72    1.08
   0   7 -13    0.76    0.72
   0   7 -13    1.09    0.45
   0  -7  13    1.12    0.61
  -1   7 -13    0.79    0.65
  -1   7 -13    1.30    1.02
  -1   7 -13    3.10    1.02
  -2   7 -13    2.13    0.44
  -2   7 -13    2.80    1.07
  -2   7 -13    2.84    0.59
  -2   7 -13    1.32    0.89
  -2   7 -13    2.14    0.30
  -2   7 -13    2.09    0.28
  -3   7 -13   -0.16    0.70
  -3   7 -13   -0.97    0.64
   3   6 -13    0.14    0.36
   3   6 -13    0.03    0.47
  -3  -6  13    0.35    0.32
   2   6 -13   -0.06    0.46
   2   6 -13    0.31    0.72
  -2  -6  13    0.13    0.48
  -2  -6  13   -0.08    0.44
   1   6 -13    0.98    0.79
   1   6 -13    1.08    0.65
  -1  -6  13    1.10    0.61
   0   6 -13    5.35    0.62
   0   6 -13    5.73    0.91
   0   6 -13    8.15    1.40
   0  -6  13    5.02    0.80
  -1   6 -13    0.93    1.03
  -1   6 -13    0.84    0.68
  -1   6 -13    0.49    1.11
  -1   6 -13    0.31    0.50
  -2   6 -13    4.41    0.40
  -2   6 -13    6.20    0.71
  -2   6 -13    5.92    1.18
  -2   6 -13    3.73    1.14
  -2   6 -13    4.33    0.39
  -2   6 -13    5.32    0.59
  -2   6 -13    5.35    0.55
  -3   6 -13    0.78    0.83
  -3   6 -13    0.34    0.76
   3   5 -13    2.92    0.69
   3   5 -13    2.26    0.46
  -3  -5  13    4.32    0.52
   2   5 -13    2.10    0.81
   2   5 -13    2.57    0.55
  -2  -5  13    4.72    0.67
   1   5 -13    1.40    0.73
  -1  -5  13    1.95    0.63
   0   5 -13    3.19    1.23
   0   5 -13    2.63    0.46
   0   5 -13    1.95    0.47
  -1   5 -13    0.29    0.39
  -1   5 -13   -1.05    1.06
  -1   5 -13    0.61    0.63
  -1   5 -13    0.28    0.49
  -1   5 -13   -0.26    1.08
  -2   5 -13   12.89    1.09
  -2   5 -13   10.87    0.96
  -2   5 -13   11.85    1.75
  -2   5 -13   11.63    0.98
  -2   5 -13   11.59    1.68
  -3   5 -13    2.76    0.55
  -3   5 -13    1.92    0.95
  -3   5 -13    1.77    0.90
   3   4 -13   -0.09    0.38
   3   4 -13    0.60    0.62
   3   4 -13    0.16    0.40
  -3  -4  13    0.74    0.41
  -3  -4  13    0.42    0.42
   2   4 -13   -0.76    0.71
   2   4 -13   -0.15    0.45
  -2  -4  13   -0.06    0.50
  -2  -4  13    0.16    0.53
  -1  -4  13    2.92    0.65
   0   4 -13   10.95    1.56
   0   4 -13   12.06    0.98
   0   4 -13   11.93    1.00
  -1   4 -13   37.97    2.53
  -1   4 -13   40.05    2.72
  -1   4 -13   34.49    2.58
  -1   4 -13   37.87    3.03
  -2   4 -13    4.95    0.61
  -2   4 -13    6.82    0.71
  -2   4 -13    7.61    0.70
  -2   4 -13    8.40    1.41
  -2   4 -13    6.67    0.69
  -2   4 -13    8.03    1.34
  -2   4 -13    7.63    1.08
  -3   4 -13    0.19    0.95
  -3   4 -13    0.31    0.87
  -3   4 -13    0.59    0.48
   3   3 -13    3.36    0.53
   3   3 -13    1.86    0.74
  -3  -3  13    2.85    0.56
  -3  -3  13    2.70    0.53
   2   3 -13    0.01    0.47
  -2  -3  13    0.46    0.57
  -2  -3  13    0.07    0.51
   1   3 -13    0.00    0.65
   1   3 -13    0.70    1.10
  -1  -3  13    0.85    0.55
   0   3 -13    1.41    0.30
   0   3 -13    1.83    0.53
   0   3 -13    1.71    0.70
   0   3 -13    1.81    0.32
   0   3 -13    2.34    1.09
  -1   3 -13    1.61    0.47
  -1   3 -13    2.44    0.39
  -1   3 -13    1.77    0.40
  -1   3 -13    1.33    0.97
  -1   3 -13    1.90    0.61
  -2   3 -13    0.31    0.24
  -2   3 -13    0.55    0.25
  -2   3 -13    0.57    0.28
  -2   3 -13    0.49    1.17
  -2   3 -13    0.56    0.98
  -2   3 -13    0.74    0.55
  -2   3 -13    0.60    0.26
  -3   3 -13   -0.85    0.93
  -3   3 -13    0.71    0.43
   3   2 -13   -0.19    0.43
  -3  -2  13    0.38    0.46
  -3  -2  13   -0.10    0.41
   2   2 -13    0.99    0.74
   2   2 -13    2.42    0.49
  -2  -2  13    1.83    0.61
  -2  -2  13    2.20    0.57
   1   2 -13    9.90    1.38
  -1  -2  13    9.56    1.04
   0   2 -13    1.66    0.66
   0   2 -13    2.18    0.50
   0   2 -13    1.56    0.90
   0   2 -13    0.98    0.64
  -1   2 -13   -0.09    0.28
  -1   2 -13   -0.31    0.38
  -1   2 -13    0.17    0.27
  -1   2 -13    0.60    0.60
  -1   2 -13    0.70    0.98
  -1   2 -13    0.53    0.44
  -1   2 -13   -0.38    0.50
  -2   2 -13    0.55    1.19
  -2   2 -13    0.60    0.17
  -2   2 -13    0.53    1.01
  -2   2 -13    0.48    0.22
  -2   2 -13    0.94    0.52
  -3   2 -13    5.42    0.66
   3   1 -13    0.01    0.39
  -3  -1  13    0.68    0.48
  -3  -1  13    0.56    0.44
   2   1 -13    1.17    0.48
   2   1 -13   -0.19    0.68
  -2  -1  13    0.48    0.48
   1   1 -13    0.16    0.42
   1   1 -13    0.48    0.55
  -1  -1  13   -0.14    0.53
   0   1 -13    0.89    0.47
   0   1 -13    1.62    0.67
   0   1 -13    0.97    0.60
  -1   1 -13    4.98    0.74
  -1   1 -13    4.02    0.61
  -1   1 -13    3.13    0.49
  -1   1 -13    4.07    0.38
  -1   1 -13    4.29    0.39
  -1   1 -13    4.97    0.53
  -2   1 -13    2.60    0.55
  -2   1 -13    1.71    0.22
  -2   1 -13    2.30    0.23
  -2   1 -13    0.36    0.88
  -3   1 -13    0.66    0.31
   3   0 -13    0.98    0.37
  -3   0  13    0.49    0.42
  -3   0  13    0.75    0.40
  -2   0  13    1.63    0.56
   1   0 -13    0.07    0.40
   1   0 -13    0.45    0.59
   1   0 -13    0.34    0.38
   0   0 -13    5.82    0.82
   0   0 -13    4.10    0.72
   0   0 -13    3.79    0.58
   0   0 -13    4.27    0.54
  -1   0 -13    0.39    0.42
  -1   0 -13    0.44    0.59
  -1   0 -13    0.55    0.34
  -1   0 -13    0.28    0.33
  -1   0 -13   -0.03    0.32
  -2   0 -13    1.79    0.50
   3  -1 -13    1.90    0.43
  -3   1  13    1.46    0.45
  -3   1  13    2.21    0.44
  -2   1  13    0.05    0.47
   1  -1 -13   -0.04    0.30
   1  -1 -13    0.20    0.30
   0  -1 -13   12.00    1.01
   0  -1 -13   12.01    1.04
   0  -1 -13   13.26    1.25
  -1  -1 -13    0.45    0.29
  -1  -1 -13    0.56    0.30
  -1  -1 -13    0.30    0.34
  -1  -1 -13    0.28    0.29
  -1  -1 -13    0.49    0.60
  -2  -1 -13    0.20    0.43
  -3   2  13    0.09    0.33
  -3   2  13   -0.12    0.32
   2  -2 -13    2.76    0.55
  -2   2  13    3.62    0.57
   0  -2 -13    8.31    0.76
   0  -2 -13   10.04    1.08
   0  -2 -13    8.75    0.81
   0  -2 -13    8.79    0.83
  -1  -2 -13    0.05    0.24
  -1  -2 -13   -0.22    0.55
  -1  -2 -13    0.12    0.24
  -1  -2 -13    0.21    0.24
  -1  -2 -13    0.64    0.24
  -3   3  13    0.45    0.28
   2  -3 -13    0.00    0.27
   2  -3 -13    0.29    0.30
  -2   3  13    0.07    0.39
   1  -3 -13    4.04    0.81
   0  -3 -13    1.66    0.30
   0  -3 -13    0.48    0.31
   0  -3 -13    1.66    0.51
   0  -3 -13    1.32    0.26
  -1  -3 -13    1.32    0.22
  -1  -3 -13    1.46    0.20
  -1  -3 -13    1.30    0.15
  -1  -3 -13    1.41    0.22
  -1  -3 -13    1.08    0.14
  -2   4  13    1.19    0.37
   1  -4 -13    2.06    0.55
   1  -4 -13    1.39    0.49
   0  -4 -13   -0.19    0.21
   0  -4 -13   -0.04    0.38
  -1  -9  14    0.20    0.38
   0   9 -14   -0.20    0.14
   0   9 -14    0.03    0.18
   0   9 -14    0.31    0.52
   0  -9  14   -0.07    0.38
   1  -9  14    0.66    0.39
   1   8 -14   10.03    1.06
   1   8 -14   11.67    1.22
  -1  -8  14    7.29    0.84
  -1  -8  14   10.05    0.97
   0   8 -14    0.07    0.27
   0   8 -14    0.33    0.71
   0   8 -14    0.54    0.27
   0  -8  14    0.66    0.48
  -1   8 -14    0.66    0.68
  -1   8 -14    0.26    0.49
  -2   8 -14   -0.42    0.59
  -2   8 -14    0.34    0.20
  -2   8 -14   -0.09    0.38
  -2   8 -14   -0.45    0.95
   2   7 -14    5.28    0.73
  -2  -7  14    5.04    0.59
   1   7 -14    0.49    0.90
   1   7 -14    0.10    0.58
  -1  -7  14   -0.07    0.45
  -1  -7  14    0.57    0.44
   0   7 -14   -0.61    1.02
   0   7 -14    0.70    0.61
   0   7 -14   -0.22    0.29
   0   7 -14   -0.05    0.28
   0  -7  14   -0.22    0.48
  -1   7 -14    3.87    0.46
  -1   7 -14    2.14    0.89
  -1   7 -14    2.30    0.46
  -2   7 -14    3.17    0.87
  -2   7 -14    1.47    0.73
  -2   7 -14    3.19    0.36
  -2   7 -14    4.60    0.63
   2   6 -14   -0.34    0.37
   2   6 -14   -0.05    0.53
  -2  -6  14    0.20    0.40
  -2  -6  14    0.23    0.39
   1   6 -14    0.06    0.66
   1   6 -14    0.41    0.94
  -1  -6  14   -0.08    0.50
   0   6 -14    0.05    0.28
   0   6 -14    0.04    0.29
   0   6 -14   -0.10    1.00
   0  -6  14   -0.01    0.50
  -1   6 -14    2.61    0.67
  -1   6 -14    1.71    0.45
  -1   6 -14    4.42    1.12
  -1   6 -14    2.85    0.43
  -2   6 -14   -0.56    0.78
  -2   6 -14    0.15    0.28
  -2   6 -14    0.00    0.38
  -2   6 -14   -0.54    0.86
  -2   6 -14    0.47    0.28
  -2   6 -14    0.15    0.35
  -3  -5  14    0.02    0.31
  -3  -5  14    0.01    0.28
   2   5 -14    0.01    0.60
   2   5 -14    0.05    0.40
  -2  -5  14    0.24    0.44
  -2  -5  14   -0.03    0.44
   1   5 -14    0.81    0.96
  -1  -5  14    1.10    0.57
   0   5 -14    1.29    1.01
   0   5 -14    1.30    0.26
   0   5 -14    1.35    0.28
  -1   5 -14    4.56    1.11
  -1   5 -14    8.27    1.06
  -1   5 -14    6.43    0.73
  -1   5 -14    7.06    0.62
  -2   5 -14   -0.05    0.95
  -2   5 -14   -0.03    0.26
  -2   5 -14   -0.07    0.27
  -2   5 -14    0.08    0.24
  -2   5 -14   -0.08    0.97
   3   4 -14    0.15    0.29
   3   4 -14   -0.39    0.51
  -3  -4  14    0.15    0.31
  -3  -4  14    0.40    0.31
   2   4 -14    5.08    0.70
  -2  -4  14    6.74    0.79
  -2  -4  14    7.32    0.82
   1   4 -14    5.43    1.18
  -1  -4  14    5.43    0.80
   0   4 -14    0.16    0.96
   0   4 -14    0.58    0.63
  -1   4 -14    0.43    0.31
  -1   4 -14   -0.40    0.87
  -1   4 -14    0.12    0.54
  -1   4 -14    0.17    0.30
  -1   4 -14    0.32    0.40
  -2   4 -14    5.00    1.11
  -2   4 -14    4.21    0.63
  -2   4 -14    3.73    0.41
  -2   4 -14    3.13    1.15
  -2   4 -14    2.72    0.34
  -2   4 -14    3.00    0.35
  -2   4 -14    3.37    0.38
   3   3 -14   -0.13    0.27
  -3  -3  14    0.15    0.33
  -3  -3  14    0.19    0.34
   2   3 -14    0.06    0.83
  -2  -3  14   -0.13    0.48
  -2  -3  14    0.30    0.44
   1   3 -14    0.30    0.41
   1   3 -14    0.86    0.90
  -1  -3  14    0.12    0.47
   0   3 -14    0.81    1.03
   0   3 -14    1.28    0.46
   0   3 -14    0.40    0.60
  -1   3 -14    9.30    0.88
  -1   3 -14    6.18    0.54
  -1   3 -14    6.38    0.70
  -1   3 -14    5.97    0.55
  -1   3 -14    6.99    1.21
  -1   3 -14    7.68    0.93
  -2   3 -14   17.01    2.07
  -2   3 -14   18.41    1.77
  -2   3 -14   21.03    1.49
  -2   3 -14   15.18    1.19
   3   2 -14    5.79    0.57
  -3  -2  14    5.76    0.64
  -2  -2  14    0.38    0.47
   1   2 -14    0.03    0.35
   1   2 -14    0.26    0.43
  -1  -2  14   -0.38    0.47
   0   2 -14    0.43    0.89
   0   2 -14   -0.34    0.43
   0   2 -14    0.19    0.43
   0   2 -14   -0.46    0.58
  -1   2 -14    0.18    0.81
  -1   2 -14    0.64    0.39
  -1   2 -14   -0.05    0.45
  -1   2 -14    0.17    0.34
  -2   2 -14    0.87    0.48
  -2   2 -14    0.36    0.14
  -2   2 -14   -0.56    0.76
  -3  -1  14    0.00    0.33
  -3  -1  14   -0.22    0.37
  -2  -1  14    0.53    0.47
   1   1 -14    1.19    0.34
   1   1 -14    0.79    0.32
  -1  -1  14    1.51    0.50
   0   1 -14    4.40    0.73
   0   1 -14    3.53    0.54
   0   1 -14    4.24    0.53
  -1   1 -14    0.55    0.33
  -1   1 -14    1.12    0.40
  -1   1 -14    1.17    0.31
  -1   1 -14    0.18    0.31
  -1   1 -14    1.17    0.63
  -2   1 -14    0.82    0.44
  -3   0  14   -0.05    0.35
  -3   0  14    0.35    0.35
   2   0 -14   -0.43    0.58
  -2   0  14    0.18    0.43
   1   0 -14    0.31    0.18
   1   0 -14    0.25    0.17
   0   0 -14   -0.47    0.52
   0   0 -14   -0.07    0.35
   0   0 -14   -0.44    0.37
  -1   0 -14   -0.29    0.25
  -1   0 -14    0.04    0.32
  -1   0 -14    0.33    0.25
  -1   0 -14    0.60    0.61
  -1   0 -14    0.02    0.25
  -2   0 -14   10.47    0.93
  -3   1  14    4.36    0.52
   2  -1 -14    1.42    0.36
   2  -1 -14    0.90    0.45
  -2   1  14    1.36    0.45
   1  -1 -14    1.04    0.98
   0  -1 -14    0.39    0.31
   0  -1 -14    0.15    0.26
   0  -1 -14   -0.15    0.48
   0  -1 -14    0.41    0.34
  -1  -1 -14    1.67    0.25
  -1  -1 -14    1.62    0.23
  -1  -1 -14    1.92    0.23
  -1  -1 -14    1.56    0.25
  -1  -1 -14    1.48    0.26
   2  -2 -14    0.19    0.21
   2  -2 -14   -0.01    0.22
  -2   2  14    0.21    0.38
   1  -2 -14    1.75    0.57
   0  -2 -14    3.33    0.30
   0  -2 -14    2.34    0.37
   0  -2 -14    3.00    0.31
   0  -2 -14    3.95    0.53
  -1  -2 -14    4.85    0.47
  -2   3  14    0.13    0.30
   1  -3 -14    6.39    0.59
   0  -3 -14    0.64    0.22
   0  -3 -14    1.33    0.28
   0  -3 -14    1.23    0.36
   1   8 -15    1.08    0.59
  -1  -8  15    0.20    0.29
   0   8 -15    0.12    0.56
   0  -8  15    0.82    0.37
  -1   8 -15    0.20    0.59
  -1   8 -15    0.73    0.44
   1   7 -15    2.37    0.81
   1   7 -15    1.54    0.36
   1   7 -15    1.89    0.64
   1   7 -15    2.11    0.33
  -1  -7  15    0.65    0.38
   0   7 -15    3.30    0.80
   0  -7  15    1.67    0.43
  -1   7 -15    0.19    0.26
  -1   7 -15    0.40    0.45
  -1   7 -15   -0.02    0.24
  -1   7 -15    0.28    0.71
  -1   7 -15    0.22    0.21
   2   6 -15    0.61    0.69
  -2  -6  15    0.05    0.31
  -2  -6  15    0.43    0.49
   1   6 -15    1.40    0.33
   1   6 -15    0.58    0.41
   1   6 -15    0.52    0.84
  -1  -6  15    0.61    0.41
   0   6 -15    0.08    0.92
   0  -6  15    0.23    0.40
  -1   6 -15    0.52    0.30
  -1   6 -15    1.01    0.50
  -1   6 -15    1.10    0.24
  -1   6 -15   -0.05    0.77
  -1   6 -15    0.99    0.26
  -2   6 -15    0.86    0.15
  -2   6 -15    0.28    0.64
  -2   6 -15    0.58    0.16
  -2   6 -15    0.63    0.18
   2   5 -15    2.79    0.77
  -2  -5  15    1.35    0.39
  -2  -5  15    0.87    0.42
   1   5 -15   -0.44    0.83
   1   5 -15   -0.09    0.32
   1   5 -15    0.29    0.33
  -1  -5  15    0.12    0.42
   0   5 -15   -0.03    0.53
   0   5 -15    0.08    0.89
  -1   5 -15    1.62    0.53
  -1   5 -15    1.62    0.25
  -1   5 -15    0.78    0.34
  -1   5 -15    2.55    0.94
  -1   5 -15    1.51    0.25
  -2   5 -15    4.43    1.45
  -2   5 -15    2.46    0.75
   2   4 -15    0.23    0.63
  -2  -4  15    0.45    0.40
  -2  -4  15    0.42    0.41
   1   4 -15    2.52    0.38
   1   4 -15    1.57    0.86
   1   4 -15    2.56    0.38
  -1  -4  15    2.80    0.60
   0   4 -15    1.37    0.59
   0   4 -15    1.39    0.87
   0   4 -15    0.77    0.40
  -1   4 -15    0.59    0.39
  -1   4 -15    0.29    0.45
  -1   4 -15    0.21    0.12
  -1   4 -15   -0.69    0.82
  -1   4 -15    0.25    0.30
  -2   4 -15    3.75    0.84
  -2   4 -15    2.73    0.27
  -3  -3  15   -0.06    0.30
  -2  -3  15    0.81    0.40
  -2  -3  15    1.08    0.48
   1   3 -15    3.46    0.36
   1   3 -15    2.69    0.34
   1   3 -15    2.13    0.81
  -1  -3  15    2.67    0.55
   0   3 -15    1.92    0.83
   0   3 -15    2.60    0.62
   0   3 -15    2.24    0.43
   0   3 -15    2.34    0.47
  -1   3 -15    0.50    0.34
  -1   3 -15   -0.17    0.38
  -1   3 -15   -0.11    0.28
  -1   3 -15    0.47    0.73
  -2   3 -15    3.58    0.76
   2   2 -15    0.74    0.36
  -2  -2  15    0.65    0.41
  -1  -2  15    0.49    0.47
   0   2 -15    1.28    0.35
   0   2 -15    1.62    0.58
   0   2 -15    0.97    0.38
  -1   2 -15    0.04    0.28
  -1   2 -15    0.09    0.33
  -1   2 -15    0.05    0.25
  -1   2 -15   -0.09    0.26
   2   1 -15    0.79    0.34
   2   1 -15    1.18    0.32
  -2  -1  15    1.47    0.44
  -1  -1  15    0.03    0.39
   0   1 -15    2.03    0.40
   0   1 -15    1.40    0.31
   0   1 -15    1.76    0.32
   0   1 -15    1.29    0.54
  -1   1 -15    1.11    0.22
  -1   1 -15    1.46    0.23
  -1   1 -15    1.46    0.25
  -1   1 -15    1.03    0.25
   2   0 -15    0.41    0.22
   2   0 -15    0.35    0.22
  -2   0  15    0.40    0.36
   1   0 -15    2.58    0.64
   0   0 -15    0.00    0.20
   0   0 -15   -0.14    0.23
   0   0 -15    0.14    0.27
   0   0 -15    0.14    0.47
  -1   0 -15    0.16    0.16
  -1   0 -15    0.55    0.18
  -1   0 -15   -0.04    0.14
  -1   0 -15    0.11    0.09
  -2   1  15   -0.09    0.31
   1  -1 -15    2.40    0.47
   1  -1 -15    2.08    0.54
   0  -1 -15   -0.45    0.38
   0  -1 -15    0.83    0.38
   0  -1 -15   -0.06    0.22
   1  -2 -15    0.00    0.42
   0  -2 -15    0.31    0.19
   0  -2 -15    0.31    0.36
   0   7 -16    5.62    0.81
   1   6 -16    9.91    1.17
   0   6 -16    1.08    0.40
   0   6 -16    1.18    0.45
   0   6 -16    0.75    0.64
  -1   6 -16    0.63    0.22
  -1   6 -16    0.96    0.38
  -1   6 -16    0.33    0.55
   1   5 -16    0.85    0.65
  -1  -5  16    0.31    0.34
   0   5 -16    0.69    0.69
   0   5 -16   -0.19    0.45
   0   5 -16    0.14    0.28
   0   5 -16    0.59    0.32
  -1   5 -16    0.38    0.36
  -1   5 -16    0.95    0.26
  -1   5 -16    0.28    0.21
  -1   5 -16    0.26    0.63
  -2  -4  16    0.20    0.23
   1   4 -16    0.94    0.61
  -1  -4  16   -0.26    0.31
   0   4 -16    0.31    0.68
   0   4 -16   -0.32    0.28
   0   4 -16   -0.12    0.45
   0   4 -16   -0.22    0.26
  -1   4 -16    0.45    0.63
  -1   4 -16    1.87    0.29
  -1   4 -16    1.31    0.24
  -1   4 -16    1.11    0.26
  -1   4 -16    1.21    0.24
   2   3 -16    1.02    0.22
   2   3 -16    0.49    0.22
  -2  -3  16    0.23    0.32
  -1  -3  16    0.41    0.34
   0   3 -16    4.75    0.46
   0   3 -16    4.41    0.47
   0   3 -16    5.93    0.77
  -1   3 -16    0.45    0.20
  -1   3 -16    0.47    0.18
  -1   3 -16    0.18    0.62
  -1   3 -16    0.31    0.19
  -2  -2  16    0.51    0.32
  -1  -2  16    0.64    0.37
   0   2 -16   -0.18    0.24
   0   2 -16   -0.01    0.20
   0   2 -16    0.18    0.18
   0   2 -16    0.25    0.42
  -1   2 -16    1.33    0.18
  -2  -1  16    6.29    0.64
   1   1 -16    0.12    0.45
   0   1 -16   -0.06    0.37
   0   1 -16    0.02    0.22
   1   0 -16   -0.39    0.39
   0   0 -16    0.12    0.31
   0   0 -16   -0.03    0.18
   0   0   0    0.00    0.00
;
_shelx_hkl_checksum              9739
loop_
_space_group_symop_operation_xyz
'x, y, z'
'-x, -y, -z'
loop_
_atom_site_label
_atom_site_type_symbol
_atom_site_fract_x
_atom_site_fract_y
_atom_site_fract_z
_atom_site_U_iso_or_equiv
_atom_site_adp_type
_atom_site_occupancy
_atom_site_site_symmetry_order
_atom_site_calc_flag
_atom_site_refinement_flags_posn
_atom_site_refinement_flags_adp
C1 C 0.5263(6) 0.6215(4) 0.9308(2) 0.0274(7) Uani 1 1 d . .
C2 C 0.5606(6) 0.4397(3) 0.9941(2) 0.0263(7) Uani 1 1 d . .
C3 C 0.7198(6) 0.4228(3) 0.9158(2) 0.0262(7) Uani 1 1 d . .
C4 C 0.8760(6) 0.3128(3) 0.8796(2) 0.0276(8) Uani 1 1 d . .
C5 C 0.9035(6) 0.2136(4) 0.9259(2) 0.0300(8) Uani 1 1 d . .
H5 H 0.8231 0.2111 0.9845 0.036 Uiso 1 1 calc R U
C6 C 1.0632(7) 0.1169(4) 0.8770(2) 0.0303(8) Uani 1 1 d . .
C7 C 1.1597(7) 0.1399(4) 0.7919(2) 0.0302(8) Uani 1 1 d . .
C8 C 1.3243(7) 0.0424(4) 0.7444(3) 0.0371(9) Uani 1 1 d . .
H8 H 1.4056 0.0423 0.6856 0.045 Uiso 1 1 calc R U
C9 C 1.3505(7) -0.0503(4) 0.7940(3) 0.0386(9) Uani 1 1 d . .
H9 H 1.4539 -0.1234 0.7730 0.046 Uiso 1 1 calc R U
C10 C 0.8351(7) 0.5679(4) 0.7980(2) 0.0303(8) Uani 1 1 d . .
H10A H 1.0194 0.5380 0.7955 0.036 Uiso 1 1 calc R U
H10B H 0.8661 0.6695 0.8121 0.036 Uiso 1 1 calc R U
C11 C 0.6636(7) 0.5011(4) 0.6968(2) 0.0333(8) Uani 1 1 d . .
H11A H 0.4720 0.5219 0.7009 0.040 Uiso 1 1 calc R U
H11B H 0.6519 0.3995 0.6786 0.040 Uiso 1 1 calc R U
C12 C 0.7899(7) 0.5526(4) 0.6162(3) 0.0357(8) Uani 1 1 d . .
H12A H 0.9944 0.5576 0.6255 0.043 Uiso 1 1 calc R U
H12B H 0.7184 0.4845 0.5507 0.043 Uiso 1 1 calc R U
C13 C 0.7270(7) 0.6933(4) 0.6155(3) 0.0357(8) Uani 1 1 d . .
H13A H 0.8113 0.7627 0.6790 0.043 Uiso 1 1 calc R U
H13B H 0.5229 0.6903 0.6114 0.043 Uiso 1 1 calc R U
C14 C 0.8345(7) 0.7397(4) 0.5303(3) 0.0390(9) Uani 1 1 d . .
H14A H 1.0406 0.7590 0.5409 0.047 Uiso 1 1 calc R U
H14B H 0.7777 0.6633 0.4676 0.047 Uiso 1 1 calc R U
C15 C 0.7283(8) 0.8670(4) 0.5198(3) 0.0521(11) Uani 1 1 d . .
H15A H 0.5243 0.8488 0.5094 0.078 Uiso 1 1 calc R U
H15B H 0.8002 0.8902 0.4629 0.078 Uiso 1 1 calc R U
H15C H 0.7917 0.9445 0.5803 0.078 Uiso 1 1 calc R U
N1 N 0.7034(5) 0.5332(3) 0.87882(19) 0.0276(6) Uani 1 1 d . .
O1 O 0.4755(5) 0.7222(2) 0.90704(16) 0.0322(6) Uani 1 1 d . .
S1 S 1.04843(18) 0.28319(10) 0.77241(6) 0.0342(3) Uani 1 1 d . .
S2 S 1.18045(19) -0.02426(9) 0.89796(7) 0.0389(3) Uani 1 1 d . .
loop_
_atom_site_aniso_label
_atom_site_aniso_U_11
_atom_site_aniso_U_22
_atom_site_aniso_U_33
_atom_site_aniso_U_23
_atom_site_aniso_U_13
_atom_site_aniso_U_12
C1 0.0217(16) 0.0320(19) 0.0270(16) 0.0079(14) -0.0018(13) 0.0036(13)
C2 0.0238(16) 0.0231(18) 0.0293(16) 0.0060(13) -0.0026(13) 0.0030(13)
C3 0.0202(15) 0.0297(18) 0.0261(15) 0.0085(14) -0.0039(13) -0.0008(13)
C4 0.0250(17) 0.0287(19) 0.0280(16) 0.0074(14) -0.0010(13) 0.0055(14)
C5 0.0249(17) 0.035(2) 0.0299(17) 0.0087(15) 0.0046(13) 0.0067(15)
C6 0.0280(17) 0.031(2) 0.0322(17) 0.0109(15) 0.0001(14) 0.0046(14)
C7 0.0268(17) 0.033(2) 0.0300(17) 0.0090(15) 0.0005(14) 0.0064(14)
C8 0.0316(19) 0.045(2) 0.0359(18) 0.0095(17) 0.0094(15) 0.0129(16)
C9 0.034(2) 0.037(2) 0.043(2) 0.0065(17) 0.0021(16) 0.0127(16)
C10 0.0288(18) 0.0318(19) 0.0354(18) 0.0173(15) 0.0042(14) 0.0061(14)
C11 0.0298(18) 0.039(2) 0.0324(18) 0.0124(15) -0.0009(14) 0.0088(15)
C12 0.0336(19) 0.042(2) 0.0343(18) 0.0146(16) 0.0035(14) 0.0096(16)
C13 0.0304(19) 0.046(2) 0.0353(18) 0.0177(16) 0.0048(14) 0.0085(16)
C14 0.0327(19) 0.050(2) 0.041(2) 0.0233(18) 0.0063(15) 0.0068(16)
C15 0.052(3) 0.058(3) 0.056(3) 0.033(2) 0.008(2) 0.009(2)
N1 0.0260(14) 0.0317(16) 0.0269(14) 0.0115(12) 0.0027(11) 0.0058(11)
O1 0.0336(13) 0.0329(14) 0.0361(12) 0.0174(11) 0.0034(10) 0.0110(10)
S1 0.0344(5) 0.0395(6) 0.0341(5) 0.0149(4) 0.0081(3) 0.0142(4)
S2 0.0410(5) 0.0366(6) 0.0449(5) 0.0161(4) 0.0092(4) 0.0159(4)
loop_
_atom_type_symbol
_atom_type_description
_atom_type_scat_dispersion_real
_atom_type_scat_dispersion_imag
_atom_type_scat_source
C C 0.0181 0.0091 'International Tables Vol C Tables 4.2.6.8 and 6.1.1.4'
H H 0.0000 0.0000 'International Tables Vol C Tables 4.2.6.8 and 6.1.1.4'
N N 0.0311 0.0180 'International Tables Vol C Tables 4.2.6.8 and 6.1.1.4'
O O 0.0492 0.0322 'International Tables Vol C Tables 4.2.6.8 and 6.1.1.4'
S S 0.3331 0.5567 'International Tables Vol C Tables 4.2.6.8 and 6.1.1.4'
loop_
_geom_angle_atom_site_label_1
_geom_angle_atom_site_label_2
_geom_angle_atom_site_label_3
_geom_angle
_geom_angle_site_symmetry_1
_geom_angle_site_symmetry_3
O1 C1 N1 121.6(3) . .
O1 C1 C2 134.2(3) . 2_667
N1 C1 C2 104.1(3) . 2_667
C3 C2 C2 109.5(4) . 2_667
C3 C2 C1 142.5(3) . 2_667
C2 C2 C1 107.9(4) 2_667 2_667
C2 C3 N1 107.0(3) . .
C2 C3 C4 126.9(3) . .
N1 C3 C4 126.1(3) . .
C5 C4 C3 122.7(3) . .
C5 C4 S1 111.0(2) . .
C3 C4 S1 126.3(3) . .
C4 C5 C6 112.5(3) . .
C4 C5 H5 123.7 . .
C6 C5 H5 123.7 . .
C7 C6 C5 114.1(3) . .
C7 C6 S2 110.6(3) . .
C5 C6 S2 135.3(3) . .
C6 C7 C8 113.2(3) . .
C6 C7 S1 110.6(3) . .
C8 C7 S1 136.2(3) . .
C9 C8 C7 111.1(3) . .
C9 C8 H8 124.4 . .
C7 C8 H8 124.4 . .
C8 C9 S2 114.0(3) . .
C8 C9 H9 123.0 . .
S2 C9 H9 123.0 . .
N1 C10 C11 113.3(3) . .
N1 C10 H10A 108.9 . .
C11 C10 H10A 108.9 . .
N1 C10 H10B 108.9 . .
C11 C10 H10B 108.9 . .
H10A C10 H10B 107.7 . .
C10 C11 C12 112.0(3) . .
C10 C11 H11A 109.2 . .
C12 C11 H11A 109.2 . .
C10 C11 H11B 109.2 . .
C12 C11 H11B 109.2 . .
H11A C11 H11B 107.9 . .
C13 C12 C11 113.9(3) . .
C13 C12 H12A 108.8 . .
C11 C12 H12A 108.8 . .
C13 C12 H12B 108.8 . .
C11 C12 H12B 108.8 . .
H12A C12 H12B 107.7 . .
C12 C13 C14 113.8(3) . .
C12 C13 H13A 108.8 . .
C14 C13 H13A 108.8 . .
C12 C13 H13B 108.8 . .
C14 C13 H13B 108.8 . .
H13A C13 H13B 107.7 . .
C15 C14 C13 113.3(3) . .
C15 C14 H14A 108.9 . .
C13 C14 H14A 108.9 . .
C15 C14 H14B 108.9 . .
C13 C14 H14B 108.9 . .
H14A C14 H14B 107.7 . .
C14 C15 H15A 109.5 . .
C14 C15 H15B 109.5 . .
H15A C15 H15B 109.5 . .
C14 C15 H15C 109.5 . .
H15A C15 H15C 109.5 . .
H15B C15 H15C 109.5 . .
C3 N1 C1 111.4(3) . .
C3 N1 C10 130.0(3) . .
C1 N1 C10 118.6(3) . .
C7 S1 C4 91.79(16) . .
C9 S2 C6 91.05(17) . .
loop_
_geom_bond_atom_site_label_1
_geom_bond_atom_site_label_2
_geom_bond_distance
_geom_bond_site_symmetry_2
C1 O1 1.227(4) .
C1 N1 1.425(4) .
C1 C2 1.446(5) 2_667
C2 C3 1.385(5) .
C2 C2 1.417(6) 2_667
C2 C1 1.446(5) 2_667
C3 N1 1.390(4) .
C3 C4 1.441(5) .
C4 C5 1.379(5) .
C4 S1 1.760(3) .
C5 C6 1.403(5) .
C5 H5 0.9500 .
C6 C7 1.397(5) .
C6 S2 1.724(3) .
C7 C8 1.417(5) .
C7 S1 1.724(3) .
C8 C9 1.351(5) .
C8 H8 0.9500 .
C9 S2 1.716(4) .
C9 H9 0.9500 .
C10 N1 1.462(4) .
C10 C11 1.525(4) .
C10 H10A 0.9900 .
C10 H10B 0.9900 .
C11 C12 1.527(5) .
C11 H11A 0.9900 .
C11 H11B 0.9900 .
C12 C13 1.520(5) .
C12 H12A 0.9900 .
C12 H12B 0.9900 .
C13 C14 1.524(5) .
C13 H13A 0.9900 .
C13 H13B 0.9900 .
C14 C15 1.513(5) .
C14 H14A 0.9900 .
C14 H14B 0.9900 .
C15 H15A 0.9800 .
C15 H15B 0.9800 .
C15 H15C 0.9800 .
loop_
_geom_torsion_atom_site_label_1
_geom_torsion_atom_site_label_2
_geom_torsion_atom_site_label_3
_geom_torsion_atom_site_label_4
_geom_torsion
_geom_torsion_site_symmetry_1
C2 C2 C3 N1 0.8(4) 2_667
C1 C2 C3 N1 -178.7(4) 2_667
C2 C2 C3 C4 -179.7(3) 2_667
C1 C2 C3 C4 0.8(6) 2_667
C2 C3 C4 C5 -5.6(5) .
N1 C3 C4 C5 173.8(3) .
C2 C3 C4 S1 173.1(2) .
N1 C3 C4 S1 -7.5(5) .
C3 C4 C5 C6 179.7(3) .
S1 C4 C5 C6 0.8(3) .
C4 C5 C6 C7 -0.3(4) .
C4 C5 C6 S2 177.6(3) .
C5 C6 C7 C8 179.0(3) .
S2 C6 C7 C8 0.6(4) .
C5 C6 C7 S1 -0.3(3) .
S2 C6 C7 S1 -178.73(16) .
C6 C7 C8 C9 -0.4(4) .
S1 C7 C8 C9 178.7(3) .
C7 C8 C9 S2 0.0(4) .
N1 C10 C11 C12 173.3(3) .
C10 C11 C12 C13 -79.4(4) .
C11 C12 C13 C14 -175.6(3) .
C12 C13 C14 C15 170.0(3) .
C2 C3 N1 C1 -1.7(3) .
C4 C3 N1 C1 178.8(3) .
C2 C3 N1 C10 178.7(3) .
C4 C3 N1 C10 -0.8(5) .
O1 C1 N1 C3 -177.2(3) .
C2 C1 N1 C3 1.8(3) 2_667
O1 C1 N1 C10 2.5(4) .
C2 C1 N1 C10 -178.5(2) 2_667
C11 C10 N1 C3 88.4(4) .
C11 C10 N1 C1 -91.2(3) .
C6 C7 S1 C4 0.6(2) .
C8 C7 S1 C4 -178.5(4) .
C5 C4 S1 C7 -0.8(2) .
C3 C4 S1 C7 -179.7(3) .
C8 C9 S2 C6 0.3(3) .
C7 C6 S2 C9 -0.5(2) .
C5 C6 S2 C9 -178.5(4) .
