#------------------------------------------------------------------------------
#$Date: 2020-10-06 12:25:57 +0300 (Tue, 06 Oct 2020) $
#$Revision: 257626 $
#$URL: file:///home/coder/svn-repositories/cod/cif/7/23/96/7239670.cif $
#------------------------------------------------------------------------------
#
# This file is available in the Crystallography Open Database (COD),
# http://www.crystallography.net/
#
# All data on this site have been placed in the public domain by the
# contributors.
#
data_7239670
loop_
_publ_author_name
'Saini, Sanjeev'
Mayank,
'Kaur, Navneet'
'Singh, Narinder'
_publ_section_title
;
 A cytochrome c-urea functionalized dipeptide conjugate: an efficient HBD
 framework to synthesize 4H-pyrans via one-pot multicomponent reaction
;
_journal_issue                   3
_journal_name_full               'Green Chemistry'
_journal_page_first              956
_journal_page_last               968
_journal_paper_doi               10.1039/C9GC03512E
_journal_volume                  22
_journal_year                    2020
_chemical_formula_moiety         'C16 H13 N3 O4'
_chemical_formula_sum            'C16 H13 N3 O4'
_chemical_formula_weight         311.30
_chemical_name_systematic
2-amino-4-(3-nitrophenyl)-5-oxo-5,6,7,8-tetrahydro-4H-chromene-3-carbonitrile
_space_group_crystal_system      triclinic
_space_group_IT_number           2
_space_group_name_Hall           '-P 1'
_space_group_name_H-M_alt        'P -1'
_symmetry_Int_Tables_number      2
_audit_creation_date             2018-11-01
_audit_creation_method
;
Olex2 1.2
(compiled 2018.05.29 svn.r3508 for OlexSys, GUI svn.r5506)
;
_audit_update_record
;
2018-11-01 deposited with the CCDC.	2019-12-26 downloaded from the CCDC.
;
_cell_angle_alpha                70.923(2)
_cell_angle_beta                 76.940(2)
_cell_angle_gamma                75.474(2)
_cell_formula_units_Z            2
_cell_length_a                   9.0134(4)
_cell_length_b                   9.0528(4)
_cell_length_c                   9.6602(5)
_cell_measurement_reflns_used    7545
_cell_measurement_temperature    273(2)
_cell_measurement_theta_max      28.47
_cell_measurement_theta_min      2.32
_cell_volume                     712.15(6)
_computing_molecular_graphics    'Olex2 (Dolomanov et al., 2009)'
_computing_publication_material  'Olex2 (Dolomanov et al., 2009)'
_computing_structure_refinement  'olex2.refine (Bourhis et al., 2015)'
_computing_structure_solution    'SHELXT 2014/5 (Sheldrick, 2014)'
_diffrn_ambient_temperature      273.15
_diffrn_measured_fraction_theta_full 0.9963
_diffrn_measured_fraction_theta_max 0.9963
_diffrn_measurement_device_type  'APEXII Kappa CCD (Bruker)'
_diffrn_radiation_type           'Mo K\a'
_diffrn_radiation_wavelength     0.71073
_diffrn_reflns_av_R_equivalents  0.0319
_diffrn_reflns_av_unetI/netI     0.0241
_diffrn_reflns_limit_h_max       12
_diffrn_reflns_limit_h_min       -12
_diffrn_reflns_limit_k_max       12
_diffrn_reflns_limit_k_min       -12
_diffrn_reflns_limit_l_max       12
_diffrn_reflns_limit_l_min       -12
_diffrn_reflns_number            17207
_diffrn_reflns_theta_full        28.2789
_diffrn_reflns_theta_max         28.28
_diffrn_reflns_theta_min         2.26
_exptl_absorpt_coefficient_mu    0.107
_exptl_absorpt_correction_T_max  0.7454
_exptl_absorpt_correction_T_min  0.5547
_exptl_absorpt_correction_type   multi-scan
_exptl_absorpt_process_details
'SADABS-2016/2 (Bruker, 2016/2) was used for absorption correction.'
_exptl_crystal_colour            'clear whiteish colourless'
_exptl_crystal_colour_lustre     clear
_exptl_crystal_colour_modifier   whiteish
_exptl_crystal_colour_primary    colourless
_exptl_crystal_density_diffrn    1.4516
_exptl_crystal_description       needle
_exptl_crystal_F_000             324.1788
_exptl_crystal_preparation       'slow evaporation'
_exptl_crystal_recrystallization_method 'slow evaporation'
_exptl_crystal_size_max          0.4
_exptl_crystal_size_mid          0.12
_exptl_crystal_size_min          0.1
_refine_diff_density_max         0.2603
_refine_diff_density_min         -0.3180
_refine_diff_density_rms         0.0453
_refine_ls_d_res_high            0.7501
_refine_ls_d_res_low             9.0159
_refine_ls_goodness_of_fit_ref   1.0960
_refine_ls_hydrogen_treatment    mixed
_refine_ls_matrix_type           full
_refine_ls_number_constraints    19
_refine_ls_number_parameters     216
_refine_ls_number_reflns         3514
_refine_ls_number_restraints     0
_refine_ls_restrained_S_all      1.0960
_refine_ls_R_factor_all          0.0559
_refine_ls_R_factor_gt           0.0440
_refine_ls_shift/su_max          0.0002
_refine_ls_shift/su_mean         0.0000
_refine_ls_structure_factor_coef Fsqd
_refine_ls_weighting_details
'w=1/[\s^2^(Fo^2^)+(0.0488P)^2^+0.2263P] where P=(Fo^2^+2Fc^2^)/3'
_refine_ls_weighting_scheme      calc
_refine_ls_wR_factor_gt          0.1111
_refine_ls_wR_factor_ref         0.1239
_reflns_Friedel_coverage         0.0
_reflns_limit_h_max              12
_reflns_limit_h_min              -11
_reflns_limit_k_max              12
_reflns_limit_k_min              -11
_reflns_limit_l_max              12
_reflns_limit_l_min              0
_reflns_number_gt                2855
_reflns_number_total             3514
_reflns_threshold_expression     I>=2u(I)
_iucr_refine_instructions_details
;
TITL 
CELL 0.71073 9.0134 9.0528 9.6602 70.923 76.94 75.474
ZERR 2 0.0004 0.0004 0.0005 0.002 0.002 0.002
LATT 1
SFAC C H N O
UNIT 36 24 4 6

L.S. 4
PLAN  20
TEMP 0
FMAP 2
WGHT 0.1
FVAR 1
REM <olex2.extras>
REM <HklSrc "%C:\\Users\\pushap\\Downloads\\123_a.hkl">
REM </olex2.extras>

HKLF 4

END
Q1 1 0.065972 0.530439 0.287588 11 0.05 36.87
Q2 1 0.127096 0.980223 0.338618 11 0.05 34.22
Q3 1 0.20433 0.634376 0.378711 11 0.05 30.25
Q4 1 0.115186 0.253279 0.301904 11 0.05 29.43
Q5 1 0.273891 0.22442 0.337108 11 0.05 27.79
Q6 1 0.194493 0.508931 0.351344 11 0.05 27.14
Q7 1 0.134873 0.55676 0.777418 11 0.05 26.36
Q8 1 0.486493 0.945337 0.774167 11 0.05 26.17
Q9 1 0.294601 0.358193 0.378123 11 0.05 25.89
Q10 1 0.023491 0.39457 0.274541 11 0.05 25.68
Q11 1 0.153635 0.126425 0.975405 11 0.05 24.84
Q12 1 0.398765 0.195707 0.204315 11 0.05 23.8
Q13 1 0.372499 0.958073 0.891962 11 0.05 23.67
Q14 1 0.465456 0.679159 0.506498 11 0.05 22.61
Q15 1 0.050519 0.117699 0.304964 11 0.05 22.15
Q16 1 0.398735 0.299169 0.064613 11 0.05 20.83
Q17 1 0.23804 0.189321 0.743132 11 0.05 20.75
Q18 1 0.246837 0.100976 0.874176 11 0.05 20.46
Q19 1 0.109727 0.849628 0.721933 11 0.05 19.13
Q20 1 0.157286 0.681533 0.838174 11 0.05 19
Q21 1 0.370698 0.856018 0.029992 11 0.05 18.72
Q22 1 0.427877 0.349067 0.435293 11 0.05 18.7
Q23 1 0.510353 0.279983 0.950756 11 0.05 18.05
Q24 1 0.115026 0.242605 0.585117 11 0.05 8.8
Q25 1 0.238977 0.846017 0.59341 11 0.05 7.77
;
_cod_data_source_file            c9gc03512e2.cif
_cod_data_source_block           123_a
_cod_depositor_comments
;Adding full bibliography for 7239670.cif.

 Adding full bibliography for 7239670.cif.
;
_cod_database_code               7239670
_olex2_refinement_description
;
;
_iucr_refine_fcf_details
;
data_123_a_CCDC1
_computing_structure_refinement   'olex2.refine (Bourhis et al., 2015)'
_shelx_refln_list_code            4
loop_
  _space_group_symop_id
  _space_group_symop_operation_xyz
  1  x,y,z
  2  -x,-y,-z

_space_group_crystal_system       triclinic
_space_group_IT_number            2
_space_group_name_H-M_alt         'P -1'
_space_group_name_Hall            '-P 1'
_symmetry_space_group_name_H-M    'P -1'
_symmetry_space_group_name_Hall   '-P 1'
_symmetry_Int_Tables_number       2
_cell_length_a                    9.0134(4)
_cell_length_b                    9.0528(4)
_cell_length_c                    9.6602(5)
_cell_angle_alpha                 70.923(2)
_cell_angle_beta                  76.940(2)
_cell_angle_gamma                 75.474(2)
_cell_volume                      712.15(6)
loop_
  _refln_index_h
  _refln_index_k
  _refln_index_l
  _refln_F_squared_calc
  _refln_F_squared_meas
  _refln_F_squared_sigma
  _refln_F_squared_weight
  _refln_observed_status
-11 -4 1 2.131 1.667 0.486 131.266 o
-11 -3 1 1.083 -0.000 0.491 224.437 o
-11 -3 2 4.254 3.760 0.769 58.444 o
-11 -2 1 0.357 0.027 0.769 140.639 o
-11 -2 2 5.417 5.940 1.012 38.479 o
-11 -1 1 0.054 0.018 0.558 283.856 o
-11 -1 2 13.018 10.298 1.344 18.578 o
-11 0 1 6.163 5.941 1.440 25.699 o
-11 0 2 3.438 4.069 0.907 54.180 o
-11 1 1 0.753 0.227 0.632 171.215 o
-10 -6 1 0.925 1.887 1.227 50.817 o
-10 -6 2 0.035 -1.919 0.723 172.123 o
-10 -5 1 0.394 -0.123 0.672 178.213 o
-10 -5 2 0.433 1.667 0.975 79.567 o
-10 -4 1 0.148 0.438 0.485 313.202 o
-10 -4 2 0.979 0.690 1.031 71.957 o
-10 -4 3 21.453 17.378 3.207 5.761 o
-10 -3 1 34.157 36.498 3.253 4.251 o
-10 -3 2 3.448 4.053 0.919 53.457 o
-10 -3 3 8.485 9.711 0.880 30.580 o
-10 -3 4 0.029 -1.195 0.419 505.435 o
-10 -2 1 3.753 1.720 0.639 80.697 o
-10 -2 2 9.244 10.072 0.945 27.884 o
-10 -2 3 0.162 -1.335 0.463 380.277 o
-10 -2 4 0.402 -0.612 0.585 225.633 o
-10 -1 1 22.390 20.186 1.533 10.872 o
-10 -1 2 3.412 1.844 0.925 59.491 o
-10 -1 3 9.268 8.526 0.938 29.212 o
-10 -1 4 3.024 2.130 1.271 40.428 o
-10 0 1 2.837 4.780 0.743 66.442 o
-10 0 2 0.124 -0.130 0.743 159.509 o
-10 0 3 8.987 7.098 1.091 28.020 o
-10 0 4 6.624 7.069 1.334 26.584 o
-10 1 1 1.046 0.338 0.558 183.180 o
-10 1 2 0.695 0.510 0.529 214.276 o
-10 1 3 15.300 12.784 1.523 14.940 o
-10 1 4 23.660 22.807 1.964 8.707 o
-10 2 1 0.234 0.189 0.446 365.870 o
-10 2 2 1.508 1.171 0.695 113.240 o
-10 2 3 0.949 0.100 0.610 173.569 o
-10 3 1 60.372 69.294 1.920 3.298 o
-10 3 2 3.988 4.585 1.069 42.671 o
-9 -8 1 35.441 36.417 2.462 5.289 o
-9 -7 1 1.079 0.920 1.132 59.979 o
-9 -7 2 88.776 90.982 4.749 1.470 o
-9 -6 1 84.231 89.944 5.190 1.419 o
-9 -6 2 15.808 13.807 2.265 9.997 o
-9 -6 3 0.201 -1.195 0.786 140.268 o
-9 -5 1 61.634 60.447 5.394 1.753 o
-9 -5 2 25.002 34.028 3.240 4.864 o
-9 -5 3 0.047 0.013 0.746 161.261 o
-9 -5 4 8.211 8.909 1.892 16.069 o
-9 -4 1 28.917 28.147 3.551 4.322 o
-9 -4 2 5.401 4.689 1.824 19.952 o
-9 -4 3 25.261 26.472 2.225 7.379 o
-9 -4 4 7.736 6.296 0.637 41.855 o
-9 -4 5 8.470 10.323 1.180 24.954 o
-9 -3 1 7.493 9.498 0.782 34.765 o
-9 -3 2 0.017 0.507 0.270 800.646 o
-9 -3 3 7.724 8.160 0.753 36.454 o
-9 -3 4 1.534 2.210 0.432 153.617 o
-9 -3 5 0.494 -0.309 0.569 228.134 o
-9 -2 1 2.414 2.198 0.595 101.462 o
-9 -2 2 1.407 1.713 0.439 168.669 o
-9 -2 3 21.586 21.631 1.126 12.519 o
-9 -2 4 1.097 1.274 0.449 195.239 o
-9 -2 5 4.613 4.146 0.746 56.415 o
-9 -1 1 2.761 3.711 0.644 80.267 o
-9 -1 2 12.961 16.375 1.269 17.246 o
-9 -1 3 0.026 0.593 0.442 373.235 o
-9 -1 4 2.375 2.292 0.696 88.447 o
-9 -1 5 7.468 6.701 0.977 33.558 o
-9 -1 6 0.142 -1.237 0.624 221.114 o
-9 0 1 168.013 172.602 3.607 0.759 o
-9 0 2 3.007 1.688 0.643 90.115 o
-9 0 3 12.575 15.652 1.958 12.376 o
-9 0 4 21.400 22.653 1.562 10.690 o
-9 0 5 0.168 1.688 0.683 146.562 o
-9 0 6 4.151 1.473 0.839 62.044 o
-9 1 1 11.381 13.065 1.443 17.752 o
-9 1 2 93.089 94.577 2.817 1.820 o
-9 1 3 19.306 20.038 1.466 12.157 o
-9 1 4 8.010 5.730 1.079 31.043 o
-9 1 5 51.496 54.772 3.555 2.923 o
-9 1 6 22.560 26.279 2.427 7.206 o
-9 2 1 3.698 6.102 0.774 54.644 o
-9 2 2 5.798 6.219 0.985 37.931 o
-9 2 3 27.199 24.628 1.797 8.391 o
-9 2 4 22.824 27.370 2.290 7.481 o
-9 2 5 13.769 14.345 2.223 10.623 o
-9 3 1 0.033 -0.160 0.399 555.638 o
-9 3 2 0.101 -0.922 0.367 606.507 o
-9 3 3 0.411 0.201 0.532 252.146 o
-9 3 4 11.366 9.309 1.815 15.210 o
-9 3 5 7.205 6.115 3.350 7.064 o
-9 4 1 12.459 12.170 1.129 20.510 o
-9 4 2 1.087 0.556 0.625 151.958 o
-9 4 3 23.523 21.175 1.551 10.357 o
-9 4 4 0.248 0.293 0.611 210.206 o
-9 5 1 0.028 -0.761 0.502 355.621 o
-9 5 2 7.037 7.475 0.840 37.083 o
-8 -9 1 2.103 1.836 0.827 79.148 o
-8 -8 1 8.163 9.642 1.543 20.142 o
-8 -8 2 6.225 5.388 0.495 54.331 o
-8 -7 1 0.424 0.389 0.706 153.609 o
-8 -7 2 6.395 5.722 1.119 33.223 o
-8 -7 3 17.292 15.876 1.014 16.513 o
-8 -6 1 21.835 22.065 2.271 8.079 o
-8 -6 2 59.045 59.142 3.182 2.860 o
-8 -6 3 6.506 7.629 1.620 21.190 o
-8 -6 4 4.831 5.377 0.826 48.490 o
-8 -5 1 9.509 9.475 1.624 18.188 o
-8 -5 2 22.162 20.713 2.800 6.562 o
-8 -5 3 2.376 2.287 1.132 49.829 o
-8 -5 4 0.591 0.476 0.658 162.714 o
-8 -5 5 0.506 -0.497 0.432 346.124 o
-8 -4 1 97.781 98.679 3.713 1.544 o
-8 -4 2 0.339 0.485 0.558 227.724 o
-8 -4 3 19.024 19.485 2.320 8.585 o
-8 -4 4 7.367 7.419 0.867 35.639 o
-8 -4 5 1.583 0.668 0.478 174.516 o
-8 -4 6 13.336 12.937 1.323 17.652 o
-8 -3 1 0.469 0.046 0.326 503.520 o
-8 -3 2 2.492 2.964 0.418 115.012 o
-8 -3 3 6.768 9.588 0.976 32.065 o
-8 -3 4 16.332 16.585 0.979 17.118 o
-8 -3 5 2.080 3.322 0.640 92.000 o
-8 -3 6 11.188 8.497 1.000 25.404 o
-8 -2 1 65.515 70.782 1.905 3.069 o
-8 -2 2 35.641 36.006 1.287 7.108 o
-8 -2 3 17.703 17.111 0.961 16.203 o
-8 -2 4 41.974 39.748 1.704 5.586 o
-8 -2 5 1.242 2.295 0.590 127.278 o
-8 -2 6 18.941 18.198 1.547 12.200 o
-8 -2 7 0.901 0.712 1.426 40.885 o
-8 -1 1 46.254 43.847 1.530 5.184 o
-8 -1 2 12.919 12.873 1.065 20.437 o
-8 -1 3 55.823 56.431 1.769 3.907 o
-8 -1 4 20.900 17.764 1.239 13.056 o
-8 -1 5 16.522 17.165 1.788 11.891 o
-8 -1 6 1.622 1.477 0.599 126.181 o
-8 -1 7 1.278 1.232 0.775 102.171 o
-8 0 1 287.963 306.141 4.627 0.309 o
-8 0 2 40.451 38.889 1.630 5.872 o
-8 0 3 14.595 14.699 1.241 16.974 o
-8 0 4 12.413 11.487 1.283 19.222 o
-8 0 5 0.221 -0.492 0.379 513.587 o
-8 0 6 5.208 5.326 1.145 35.490 o
-8 0 7 4.383 4.645 1.091 40.461 o
-8 1 1 0.307 -0.136 0.330 586.574 o
-8 1 2 8.162 10.854 0.930 29.245 o
-8 1 3 66.647 66.478 2.477 2.863 o
-8 1 4 15.332 17.655 2.278 9.625 o
-8 1 5 0.714 0.872 0.572 181.194 o
-8 1 6 1.449 1.156 0.754 103.475 o
-8 1 7 3.840 4.277 1.038 45.102 o
-8 2 1 55.587 56.436 1.414 4.120 o
-8 2 2 3.629 4.127 0.512 78.781 o
-8 2 3 63.712 62.731 2.087 3.217 o
-8 2 4 11.145 13.301 1.911 13.636 o
-8 2 5 11.776 11.169 2.359 10.700 o
-8 2 6 0.613 0.285 0.600 191.674 o
-8 2 7 0.105 0.281 0.819 128.449 o
-8 3 1 9.847 8.785 0.864 29.264 o
-8 3 2 51.498 51.625 1.570 4.447 o
-8 3 3 124.399 135.816 3.039 1.175 o
-8 3 4 9.497 8.075 0.736 32.766 o
-8 3 5 25.115 30.110 2.868 5.688 o
-8 3 6 0.507 1.919 1.636 31.388 o
-8 4 1 12.775 13.492 0.991 21.011 o
-8 4 2 13.210 12.485 1.062 20.387 o
-8 4 3 5.889 6.238 0.731 45.985 o
-8 4 4 2.196 0.821 0.686 104.399 o
-8 4 5 5.553 6.468 0.939 39.731 o
-8 4 6 0.390 0.997 0.745 132.017 o
-8 5 1 8.236 14.139 1.118 23.893 o
-8 5 2 59.935 65.637 1.910 3.400 o
-8 5 3 0.212 -0.002 1.026 83.874 o
-8 5 4 0.118 0.098 0.522 305.603 o
-8 5 5 23.637 23.586 1.993 8.545 o
-8 6 1 0.968 1.187 0.532 174.399 o
-8 6 2 38.574 47.821 2.225 4.915 o
-8 6 3 12.905 12.033 1.292 18.552 o
-8 6 4 5.391 3.255 1.101 39.167 o
-7 -9 1 4.833 5.009 1.065 39.569 o
-7 -9 2 1.982 1.257 0.957 69.131 o
-7 -8 1 0.427 0.936 1.181 59.481 o
-7 -8 2 30.583 28.757 1.533 8.070 o
-7 -8 3 2.349 0.954 0.631 109.272 o
-7 -7 1 0.758 0.678 0.982 80.467 o
-7 -7 2 12.616 12.336 0.958 22.058 o
-7 -7 3 42.457 40.516 1.662 5.551 o
-7 -7 4 0.444 0.518 0.596 196.934 o
-7 -6 1 6.839 6.886 1.029 33.431 o
-7 -6 2 126.430 125.167 2.721 1.233 o
-7 -6 3 4.819 5.110 7.407 1.624 o
-7 -6 4 10.219 12.321 1.177 21.972 o
-7 -6 5 0.227 0.084 0.401 451.225 o
-7 -5 1 48.545 49.952 2.048 4.330 o
-7 -5 2 15.473 15.273 1.469 14.654 o
-7 -5 3 30.654 35.245 2.165 6.300 o
-7 -5 4 21.641 21.389 1.798 9.870 o
-7 -5 5 0.734 0.981 0.364 285.601 o
-7 -5 6 0.016 -0.397 0.476 397.205 o
-7 -4 1 166.868 169.525 3.192 0.790 o
-7 -4 2 28.996 28.800 1.879 7.537 o
-7 -4 3 78.414 82.229 3.266 2.075 o
-7 -4 4 10.431 11.265 0.969 25.029 o
-7 -4 5 0.823 0.317 0.513 220.714 o
-7 -4 6 18.129 17.456 1.597 12.350 o
-7 -4 7 0.905 0.065 0.986 81.564 o
-7 -3 1 131.200 137.176 3.088 1.110 o
-7 -3 2 7.034 5.422 0.582 47.639 o
-7 -3 3 0.850 0.801 0.300 324.394 o
-7 -3 4 69.885 64.525 1.772 3.073 o
-7 -3 5 12.086 10.522 0.906 24.223 o
-7 -3 6 9.542 8.833 1.168 24.751 o
-7 -3 7 0.791 -0.952 0.613 183.579 o
-7 -2 1 0.176 0.357 0.207 942.502 o
-7 -2 2 4.448 4.133 0.466 73.075 o
-7 -2 3 29.107 26.937 1.314 9.034 o
-7 -2 4 20.047 18.482 1.011 14.328 o
-7 -2 5 3.327 3.408 0.582 80.941 o
-7 -2 6 13.689 11.455 1.092 20.124 o
-7 -2 7 3.877 4.484 1.539 27.311 o
-7 -1 1 4.490 4.082 0.451 73.745 o
-7 -1 2 3.013 3.679 0.460 93.900 o
-7 -1 3 65.524 64.913 1.532 3.333 o
-7 -1 4 5.832 8.446 0.895 37.519 o
-7 -1 5 3.063 2.850 0.524 93.497 o
-7 -1 6 1.661 2.226 0.544 125.909 o
-7 -1 7 3.891 3.210 0.863 56.683 o
-7 -1 8 0.470 -0.455 2.469 14.752 o
-7 0 1 0.016 0.212 0.228 1289.760 o
-7 0 2 0.638 0.217 0.345 391.731 o
-7 0 3 7.173 8.021 0.689 39.656 o
-7 0 4 0.396 0.610 0.301 461.993 o
-7 0 5 3.720 3.733 0.663 69.140 o
-7 0 6 6.352 3.712 0.634 53.143 o
-7 0 7 21.067 20.432 1.669 10.652 o
-7 0 8 0.281 1.156 1.325 48.227 o
-7 1 1 251.695 246.671 3.105 0.423 o
-7 1 2 130.597 133.640 2.675 1.163 o
-7 1 3 112.697 111.905 2.512 1.470 o
-7 1 4 2.428 2.288 0.446 121.035 o
-7 1 5 2.396 1.290 0.531 121.168 o
-7 1 6 15.355 15.843 2.571 8.506 o
-7 1 7 0.000 0.286 0.603 236.280 o
-7 1 8 1.801 1.987 1.028 61.174 o
-7 2 1 268.026 267.217 3.210 0.376 o
-7 2 2 72.753 69.639 1.552 2.944 o
-7 2 3 54.956 53.215 1.280 4.334 o
-7 2 4 22.278 21.172 1.330 11.560 o
-7 2 5 0.021 -0.490 0.540 308.452 o
-7 2 6 1.073 1.305 0.626 138.740 o
-7 2 7 0.336 -0.768 0.916 102.221 o
-7 2 8 6.830 8.941 1.938 16.263 o
-7 3 1 82.327 85.693 1.813 2.347 o
-7 3 2 1.079 1.006 0.329 260.110 o
-7 3 3 144.733 142.325 2.427 1.036 o
-7 3 4 22.878 23.233 1.197 11.521 o
-7 3 5 13.261 14.478 1.061 19.505 o
-7 3 6 16.488 19.558 0.999 15.982 o
-7 3 7 20.079 19.430 2.150 9.045 o
-7 3 8 14.415 21.578 2.232 9.621 o
-7 4 1 15.108 14.285 0.988 18.728 o
-7 4 2 6.586 6.505 0.692 44.038 o
-7 4 3 0.130 -0.886 0.296 848.742 o
-7 4 4 8.630 8.661 0.905 30.826 o
-7 4 5 8.330 11.761 1.182 24.234 o
-7 4 6 49.372 54.491 3.348 3.139 o
-7 4 7 4.619 3.899 0.684 60.460 o
-7 5 1 12.031 10.443 0.906 24.334 o
-7 5 2 2.861 2.259 0.509 103.625 o
-7 5 3 8.043 7.616 0.926 32.558 o
-7 5 4 40.087 37.081 2.957 4.285 o
-7 5 5 10.861 16.031 1.817 13.940 o
-7 5 6 1.221 -0.063 0.613 162.056 o
-7 5 7 50.746 60.241 2.792 3.379 o
-7 6 1 8.127 10.031 1.031 28.175 o
-7 6 2 47.463 51.025 1.992 4.412 o
-7 6 3 64.055 66.509 2.612 2.885 o
-7 6 4 12.786 17.005 1.910 12.393 o
-7 6 5 1.011 1.740 0.791 99.643 o
-7 6 6 5.597 5.484 1.649 22.468 o
-7 7 1 0.951 1.955 0.731 109.747 o
-7 7 2 1.368 0.343 0.561 165.444 o
-7 7 3 3.298 7.055 0.970 45.050 o
-7 7 4 18.860 21.485 1.965 9.829 o
-6 -10 1 0.717 0.598 0.934 88.533 o
-6 -9 1 3.724 3.174 0.843 59.028 o
-6 -9 2 16.656 18.282 1.589 12.775 o
-6 -9 3 0.115 -0.721 0.789 142.212 o
-6 -8 1 6.272 7.277 0.908 37.541 o
-6 -8 2 0.614 -0.566 0.726 146.590 o
-6 -8 3 3.610 2.386 0.554 86.177 o
-6 -8 4 0.375 0.381 0.662 173.807 o
-6 -7 1 19.613 21.939 1.327 12.352 o
-6 -7 2 1.476 2.333 0.524 133.669 o
-6 -7 3 3.571 5.157 0.972 47.594 o
-6 -7 4 4.022 5.517 1.500 27.387 o
-6 -7 5 0.262 -0.931 1.160 65.730 o
-6 -6 1 0.124 -0.035 0.257 1072.290 o
-6 -6 2 7.554 9.400 0.637 37.703 o
-6 -6 3 7.535 8.880 0.610 39.042 o
-6 -6 4 6.563 6.055 0.582 48.331 o
-6 -6 5 0.156 0.347 0.491 313.216 o
-6 -6 6 15.875 17.784 1.015 16.796 o
-6 -5 1 5.591 4.802 0.731 50.346 o
-6 -5 2 0.195 -0.090 0.343 617.662 o
-6 -5 3 15.273 15.499 0.738 19.870 o
-6 -5 4 43.077 40.992 1.206 5.936 o
-6 -5 5 20.878 19.526 1.318 12.371 o
-6 -5 6 1.100 0.481 0.420 238.939 o
-6 -5 7 7.316 8.200 1.060 30.483 o
-6 -4 1 35.747 34.804 1.174 7.343 o
-6 -4 2 10.484 8.291 0.753 30.321 o
-6 -4 3 37.661 38.980 1.048 6.902 o
-6 -4 4 182.929 184.472 3.791 0.668 o
-6 -4 5 7.197 6.817 0.666 42.065 o
-6 -4 6 1.179 1.621 0.631 129.515 o
-6 -4 7 5.145 4.157 0.720 54.681 o
-6 -3 1 11.888 13.183 1.057 21.320 o
-6 -3 2 35.842 34.302 1.381 7.066 o
-6 -3 3 28.142 30.030 1.038 9.516 o
-6 -3 4 6.220 7.329 0.685 44.094 o
-6 -3 5 17.348 15.695 1.220 15.263 o
-6 -3 6 3.078 3.476 0.582 83.434 o
-6 -3 7 5.743 5.161 1.032 37.988 o
-6 -3 8 2.455 2.045 1.038 56.345 o
-6 -2 1 127.100 133.201 1.710 1.265 o
-6 -2 2 0.557 0.695 0.261 443.293 o
-6 -2 3 5.813 5.952 0.653 49.618 o
-6 -2 4 29.497 29.537 1.199 8.927 o
-6 -2 5 0.204 -0.024 0.273 863.786 o
-6 -2 6 2.412 2.802 0.514 106.486 o
-6 -2 7 6.901 9.146 1.048 30.648 o
-6 -2 8 2.606 2.152 0.914 64.711 o
-6 -1 1 178.609 186.244 3.151 0.704 o
-6 -1 2 181.040 188.468 2.821 0.701 o
-6 -1 3 16.914 16.210 0.928 17.171 o
-6 -1 4 100.631 100.678 2.142 1.766 o
-6 -1 5 14.274 14.093 0.967 19.634 o
-6 -1 6 0.000 0.398 0.336 635.089 o
-6 -1 7 1.650 1.822 0.497 142.098 o
-6 -1 8 11.321 17.923 1.962 12.389 o
-6 -1 9 3.915 3.801 1.064 44.464 o
-6 0 1 186.642 187.342 2.895 0.679 o
-6 0 2 111.012 111.082 2.326 1.518 o
-6 0 3 48.946 45.449 1.344 5.037 o
-6 0 4 0.470 0.167 0.326 478.276 o
-6 0 5 166.014 161.590 3.263 0.809 o
-6 0 6 32.711 29.129 2.918 5.050 o
-6 0 7 1.786 1.203 0.512 144.895 o
-6 0 8 12.483 11.441 1.390 18.092 o
-6 0 9 0.127 -0.174 0.692 182.652 o
-6 1 1 40.579 40.784 1.075 6.366 o
-6 1 2 1.632 1.498 0.230 217.693 o
-6 1 3 0.026 -0.628 0.190 2270.750 o
-6 1 4 174.041 165.737 4.403 0.710 o
-6 1 5 42.005 30.782 2.064 5.545 o
-6 1 6 0.971 0.431 0.373 284.819 o
-6 1 7 33.951 33.131 1.610 7.044 o
-6 1 8 0.064 0.251 0.636 210.195 o
-6 1 9 3.093 2.437 1.103 48.200 o
-6 2 1 25.915 28.248 1.007 10.395 o
-6 2 2 522.374 509.239 4.819 0.117 o
-6 2 3 41.075 39.861 1.259 6.176 o
-6 2 4 2.287 1.673 0.309 157.732 o
-6 2 5 4.794 3.186 0.478 73.665 o
-6 2 6 0.041 -0.791 0.249 1331.260 o
-6 2 7 0.277 0.581 0.504 267.954 o
-6 2 8 5.835 6.763 1.151 32.446 o
-6 2 9 4.879 3.292 0.963 46.480 o
-6 3 1 438.500 421.435 4.496 0.161 o
-6 3 2 534.017 515.874 5.720 0.111 o
-6 3 3 0.033 0.474 0.246 895.753 o
-6 3 4 0.851 1.840 0.395 213.371 o
-6 3 5 32.169 31.031 1.303 8.050 o
-6 3 6 0.248 0.597 0.467 302.153 o
-6 3 7 1.104 1.234 0.513 172.979 o
-6 3 8 0.054 0.037 0.421 483.838 o
-6 3 9 0.080 2.923 0.836 97.478 o
-6 4 1 91.066 92.158 1.954 2.047 o
-6 4 2 16.368 18.000 1.001 16.509 o
-6 4 3 0.080 0.115 0.245 1125.530 o
-6 4 4 61.958 61.011 1.893 3.422 o
-6 4 5 3.240 3.024 0.688 74.946 o
-6 4 6 10.812 9.636 1.047 24.505 o
-6 4 7 29.196 33.299 1.627 7.717 o
-6 4 8 5.109 2.963 0.650 62.179 o
-6 5 1 61.733 54.193 1.840 3.618 o
-6 5 2 83.591 79.573 2.208 2.297 o
-6 5 3 1.229 1.841 0.493 158.930 o
-6 5 4 57.698 60.339 2.405 3.343 o
-6 5 5 11.900 11.310 1.177 20.869 o
-6 5 6 16.158 13.030 1.748 12.962 o
-6 5 7 5.601 3.777 0.789 50.197 o
-6 5 8 15.898 21.131 2.846 7.090 o
-6 6 1 17.231 16.281 1.081 16.025 o
-6 6 2 1.374 2.244 0.669 109.588 o
-6 6 3 3.027 4.545 0.783 63.053 o
-6 6 4 0.521 1.217 0.684 142.315 o
-6 6 5 37.764 36.958 2.828 4.587 o
-6 6 6 12.411 11.565 1.553 16.523 o
-6 6 7 27.162 27.667 2.267 6.944 o
-6 7 1 5.685 5.710 0.919 41.182 o
-6 7 2 10.746 9.574 1.116 23.665 o
-6 7 3 16.642 14.215 1.685 12.960 o
-6 7 4 5.024 7.075 1.007 38.166 o
-6 7 5 29.880 28.011 2.529 6.042 o
-6 7 6 3.653 2.040 0.987 53.448 o
-6 8 1 18.072 21.991 1.886 10.296 o
-6 8 2 0.000 -0.308 0.490 379.260 o
-6 8 3 79.923 100.753 3.020 1.945 o
-6 8 4 22.971 27.983 2.598 6.606 o
-6 8 5 0.468 1.761 1.636 31.586 o
-5 -10 1 0.297 0.689 1.179 61.130 o
-5 -10 2 15.201 15.271 1.912 11.888 o
-5 -9 1 0.000 0.588 0.534 275.729 o
-5 -9 2 3.800 4.712 0.999 46.270 o
-5 -9 3 12.265 12.216 1.991 12.825 o
-5 -8 1 0.218 0.756 0.486 278.843 o
-5 -8 2 1.954 0.830 0.529 141.484 o
-5 -8 3 0.021 -0.168 0.536 313.092 o
-5 -8 4 5.736 5.753 0.957 39.673 o
-5 -8 5 2.663 1.806 0.989 59.503 o
-5 -7 1 25.635 26.973 1.235 10.055 o
-5 -7 2 4.810 7.431 1.300 29.805 o
-5 -7 3 0.003 -0.323 0.386 608.262 o
-5 -7 4 3.474 4.155 0.813 59.446 o
-5 -7 5 5.667 4.144 1.130 36.265 o
-5 -7 6 0.245 2.221 1.038 70.874 o
-5 -6 1 7.696 7.906 0.661 38.924 o
-5 -6 2 16.174 15.892 0.588 19.776 o
-5 -6 3 18.575 19.326 0.791 15.876 o
-5 -6 4 24.230 25.389 1.083 11.112 o
-5 -6 5 16.698 15.178 0.820 18.340 o
-5 -6 6 9.626 10.428 1.294 21.944 o
-5 -6 7 3.865 1.658 1.288 38.063 o
-5 -5 1 0.011 -0.130 0.152 3662.900 o
-5 -5 2 28.403 28.506 0.816 10.078 o
-5 -5 3 26.770 24.996 1.517 9.228 o
-5 -5 4 120.252 117.528 2.606 1.343 o
-5 -5 5 4.383 5.777 0.642 58.142 o
-5 -5 6 2.120 1.769 0.487 130.007 o
-5 -5 7 2.014 2.050 1.467 34.739 o
-5 -4 1 27.399 27.662 1.040 9.995 o
-5 -4 2 130.862 132.001 2.341 1.193 o
-5 -4 3 32.088 31.151 1.002 8.582 o
-5 -4 4 48.124 47.982 1.255 5.064 o
-5 -4 5 16.514 15.845 1.202 15.783 o
-5 -4 6 2.725 2.987 0.714 78.082 o
-5 -4 7 13.118 11.144 1.050 21.199 o
-5 -4 8 8.789 7.996 1.055 28.301 o
-5 -3 1 13.156 12.619 0.757 23.262 o
-5 -3 2 17.928 17.315 1.098 15.250 o
-5 -3 3 0.523 0.453 0.151 667.627 o
-5 -3 4 0.012 -0.014 0.438 468.940 o
-5 -3 5 9.652 9.857 0.763 30.261 o
-5 -3 6 101.901 99.697 2.481 1.702 o
-5 -3 7 3.881 2.695 0.682 70.894 o
-5 -3 8 1.178 1.234 0.687 122.017 o
-5 -3 9 0.007 0.929 1.074 74.229 o
-5 -2 1 2.440 1.784 0.301 150.445 o
-5 -2 2 24.218 20.706 0.841 12.655 o
-5 -2 3 3.718 4.197 0.404 84.495 o
-5 -2 4 30.664 26.944 1.429 8.453 o
-5 -2 5 0.901 0.226 0.229 441.149 o
-5 -2 6 5.793 4.931 0.583 54.877 o
-5 -2 7 25.170 25.014 1.580 9.395 o
-5 -2 8 0.308 -0.494 0.896 107.030 o
-5 -2 9 2.988 0.886 0.758 82.307 o
-5 -1 1 132.394 126.806 2.245 1.210 o
-5 -1 2 1023.240 1035.850 7.440 0.032 o
-5 -1 3 7.332 8.887 0.586 40.133 o
-5 -1 4 12.757 13.396 0.973 21.247 o
-5 -1 5 27.766 24.668 1.573 8.897 o
-5 -1 6 0.129 0.385 0.344 544.924 o
-5 -1 7 1.879 1.802 0.437 147.171 o
-5 -1 8 1.793 3.358 0.916 66.160 o
-5 -1 9 19.656 23.278 2.281 8.298 o
-5 0 1 282.587 297.589 3.538 0.331 o
-5 0 2 40.557 44.455 1.209 6.021 o
-5 0 3 30.753 32.337 0.957 8.810 o
-5 0 4 1.387 0.995 0.346 222.999 o
-5 0 5 39.230 36.142 1.341 6.535 o
-5 0 6 13.574 11.589 0.965 21.407 o
-5 0 7 2.091 2.009 0.564 114.441 o
-5 0 8 2.675 1.766 0.669 91.152 o
-5 0 9 2.092 2.343 0.789 80.827 o
-5 0 10 2.474 1.332 0.944 66.135 o
-5 1 1 0.429 0.033 0.128 1085.930 o
-5 1 2 340.734 337.339 3.872 0.248 o
-5 1 3 13.557 13.825 0.737 22.328 o
-5 1 4 20.183 23.302 0.725 14.213 o
-5 1 5 50.186 40.559 1.135 5.296 o
-5 1 6 2.653 1.717 0.449 122.190 o
-5 1 7 10.979 9.703 0.926 25.909 o
-5 1 8 0.444 -0.092 0.690 167.440 o
-5 1 9 0.117 -0.345 0.560 274.503 o
-5 1 10 2.495 2.179 1.079 52.970 o
-5 2 1 1.146 0.415 0.182 380.262 o
-5 2 2 63.802 60.398 1.316 3.600 o
-5 2 3 17.367 15.021 0.653 18.820 o
-5 2 4 5.939 4.285 0.483 59.795 o
-5 2 5 0.253 0.766 0.261 552.408 o
-5 2 6 10.541 13.783 1.072 22.191 o
-5 2 7 4.161 2.624 0.431 87.184 o
-5 2 8 31.499 29.575 1.163 8.579 o
-5 2 9 2.125 3.336 0.523 105.704 o
-5 2 10 0.060 -0.753 0.808 137.589 o
-5 3 1 0.013 -0.136 0.181 2613.450 o
-5 3 2 120.513 117.917 2.163 1.381 o
-5 3 3 7.531 6.143 0.570 44.512 o
-5 3 4 241.493 234.029 3.055 0.456 o
-5 3 5 31.830 37.363 1.404 7.400 o
-5 3 6 10.107 9.822 0.776 29.289 o
-5 3 7 6.858 6.305 0.772 41.125 o
-5 3 8 2.668 2.337 0.512 106.189 o
-5 3 9 4.573 4.096 0.686 60.040 o
-5 3 10 1.022 0.204 0.526 203.368 o
-5 4 1 0.209 0.403 0.244 746.764 o
-5 4 2 113.587 110.767 2.148 1.507 o
-5 4 3 150.179 151.573 2.568 0.960 o
-5 4 4 460.054 459.693 5.465 0.143 o
-5 4 5 12.620 12.037 0.965 22.132 o
-5 4 6 1.603 2.103 0.490 140.406 o
-5 4 7 16.069 13.927 1.573 13.974 o
-5 4 8 0.000 -0.691 0.345 763.965 o
-5 4 9 1.258 1.660 0.566 142.282 o
-5 5 1 2.789 4.458 0.540 84.591 o
-5 5 2 34.426 32.529 1.283 7.572 o
-5 5 3 71.931 73.155 2.066 2.748 o
-5 5 4 8.374 9.652 0.964 29.302 o
-5 5 5 0.018 0.454 0.443 390.300 o
-5 5 6 29.047 32.999 2.689 5.582 o
-5 5 7 7.040 8.524 0.999 32.051 o
-5 5 8 6.188 7.552 1.045 33.694 o
-5 5 9 0.000 -0.163 1.049 82.725 o
-5 6 1 0.291 -0.390 0.331 593.883 o
-5 6 2 0.717 1.543 0.592 157.682 o
-5 6 3 165.694 158.982 3.706 0.795 o
-5 6 4 0.364 1.271 0.681 147.696 o
-5 6 5 7.155 7.510 1.194 28.445 o
-5 6 6 0.445 -0.931 0.598 214.339 o
-5 6 7 13.180 16.660 1.626 14.259 o
-5 6 8 0.021 0.404 0.523 296.210 o
-5 6 9 5.159 4.969 2.265 14.343 o
-5 7 1 7.696 5.814 0.971 34.187 o
-5 7 2 58.181 50.191 4.592 2.219 o
-5 7 3 43.009 40.671 3.019 3.969 o
-5 7 4 5.260 4.412 1.123 37.202 o
-5 7 5 78.484 96.043 4.928 1.508 o
-5 7 6 0.548 1.732 0.943 82.292 o
-5 7 7 19.098 17.586 2.362 8.573 o
-5 7 8 3.932 4.315 1.856 20.669 o
-5 8 1 8.834 11.030 1.213 23.609 o
-5 8 2 2.415 1.546 0.903 69.585 o
-5 8 3 16.314 15.999 2.719 7.784 o
-5 8 4 4.245 3.561 1.856 20.719 o
-5 8 5 50.560 53.762 4.042 2.647 o
-5 8 6 6.693 7.282 1.577 21.872 o
-5 9 1 30.006 40.602 2.136 6.133 o
-5 9 2 1.729 -0.578 0.534 165.603 o
-5 9 3 14.289 15.987 1.914 12.052 o
-5 9 4 0.048 0.205 0.943 99.662 o
-4 -10 1 1.518 2.116 1.415 37.924 o
-4 -10 2 3.579 2.580 1.149 43.736 o
-4 -9 1 15.781 17.300 1.523 13.709 o
-4 -9 2 2.418 3.603 0.940 59.138 o
-4 -9 3 0.015 -0.996 0.563 284.996 o
-4 -9 4 3.096 2.528 1.100 48.179 o
-4 -8 1 8.974 8.669 1.002 28.446 o
-4 -8 2 0.414 0.830 0.393 324.787 o
-4 -8 3 9.065 7.363 0.908 31.161 o
-4 -8 4 33.196 35.482 2.453 5.531 o
-4 -8 5 14.973 19.285 2.588 8.229 o
-4 -7 1 5.847 7.299 0.732 44.070 o
-4 -7 2 31.568 30.627 1.693 7.417 o
-4 -7 3 6.069 5.747 1.048 35.923 o
-4 -7 4 1.540 2.206 1.946 21.689 o
-4 -7 5 33.054 31.293 2.028 6.511 o
-4 -7 6 7.501 7.744 1.469 22.683 o
-4 -6 1 7.861 8.499 0.692 36.970 o
-4 -6 2 21.250 21.330 1.017 13.132 o
-4 -6 3 63.344 60.472 1.837 3.398 o
-4 -6 4 9.889 7.773 1.151 25.251 o
-4 -6 5 0.100 -0.787 0.330 733.169 o
-4 -6 6 6.712 5.989 0.700 44.297 o
-4 -6 7 0.409 1.027 0.828 110.084 o
-4 -5 1 12.917 15.012 0.645 23.100 o
-4 -5 2 110.162 114.382 1.942 1.550 o
-4 -5 3 35.476 33.124 0.898 7.894 o
-4 -5 4 2.615 3.937 0.439 100.332 o
-4 -5 5 12.706 12.744 0.948 21.860 o
-4 -5 6 0.456 -0.495 0.298 576.434 o
-4 -5 7 0.000 -0.222 0.767 154.544 o
-4 -5 8 1.339 0.201 0.909 87.020 o
-4 -4 1 160.693 162.250 1.831 0.894 o
-4 -4 2 53.376 57.748 1.105 4.375 o
-4 -4 3 170.493 185.823 3.115 0.740 o
-4 -4 4 37.164 40.259 1.310 6.575 o
-4 -4 5 54.337 49.580 1.357 4.457 o
-4 -4 6 1.045 1.008 0.362 247.877 o
-4 -4 7 12.845 13.587 1.075 20.102 o
-4 -4 8 16.230 17.682 1.788 11.899 o
-4 -4 9 0.226 -0.431 1.997 22.614 o
-4 -3 1 61.778 74.793 1.435 3.315 o
-4 -3 2 60.394 58.830 1.823 3.580 o
-4 -3 3 76.050 81.032 1.451 2.669 o
-4 -3 4 133.389 136.730 2.107 1.166 o
-4 -3 5 46.971 51.462 1.369 4.934 o
-4 -3 6 54.676 50.212 1.587 4.272 o
-4 -3 7 4.211 4.074 0.668 63.608 o
-4 -3 8 2.996 2.078 0.624 89.646 o
-4 -3 9 0.158 1.052 0.786 126.117 o
-4 -2 1 24.116 23.009 0.935 11.985 o
-4 -2 2 6.500 5.575 0.600 49.105 o
-4 -2 3 0.529 0.219 0.123 813.393 o
-4 -2 4 24.259 24.436 1.086 11.245 o
-4 -2 5 330.603 339.078 3.849 0.256 o
-4 -2 6 41.047 43.767 1.333 5.882 o
-4 -2 7 24.702 22.846 1.430 10.248 o
-4 -2 8 12.949 12.795 1.227 18.871 o
-4 -2 9 27.620 28.124 3.709 4.157 o
-4 -1 1 7.968 10.513 0.848 31.371 o
-4 -1 2 386.589 418.335 3.697 0.190 o
-4 -1 3 47.450 54.023 1.176 4.920 o
-4 -1 4 101.157 108.092 2.006 1.718 o
-4 -1 5 4.235 4.380 0.562 68.452 o
-4 -1 6 4.484 3.592 0.480 74.591 o
-4 -1 7 17.784 17.492 1.088 15.338 o
-4 -1 8 26.271 27.656 1.969 7.822 o
-4 -1 9 49.280 57.969 3.516 2.967 o
-4 -1 10 2.293 1.949 0.979 62.170 o
-4 0 1 0.341 -0.034 0.121 1375.610 o
-4 0 2 37.859 46.348 1.024 6.406 o
-4 0 3 348.592 339.596 3.351 0.243 o
-4 0 4 27.314 27.679 1.026 10.047 o
-4 0 5 1.989 1.481 0.413 154.150 o
-4 0 6 58.702 56.593 1.866 3.694 o
-4 0 7 1.130 1.179 0.376 225.189 o
-4 0 8 95.393 101.422 2.713 1.749 o
-4 0 9 8.740 7.793 1.428 22.116 o
-4 0 10 8.393 13.682 2.356 11.238 o
-4 1 1 38.333 35.107 0.886 7.264 o
-4 1 2 50.022 51.301 1.071 4.884 o
-4 1 3 25.697 22.467 0.724 12.065 o
-4 1 4 27.516 28.275 0.812 10.361 o
-4 1 5 5.450 4.809 0.671 53.498 o
-4 1 6 4.661 4.738 0.456 68.894 o
-4 1 7 1.836 2.458 0.332 156.205 o
-4 1 8 3.023 1.120 0.402 127.108 o
-4 1 9 4.730 7.073 0.778 47.255 o
-4 1 10 0.446 0.341 0.387 374.482 o
-4 2 1 104.269 105.815 1.760 1.717 o
-4 2 2 0.316 0.197 0.136 1121.490 o
-4 2 3 334.750 325.507 3.118 0.262 o
-4 2 4 0.184 1.251 0.256 483.448 o
-4 2 5 0.013 0.081 0.219 1627.040 o
-4 2 6 214.952 209.061 2.947 0.551 o
-4 2 7 12.260 8.524 0.797 26.627 o
-4 2 8 36.565 31.122 1.225 7.431 o
-4 2 9 1.113 1.524 0.619 135.890 o
-4 2 10 1.972 2.345 0.563 113.469 o
-4 3 1 156.331 147.527 2.255 0.949 o
-4 3 2 61.620 59.115 1.399 3.711 o
-4 3 3 10.394 13.350 0.666 27.344 o
-4 3 4 18.905 22.169 0.886 14.527 o
-4 3 5 36.806 40.082 1.333 6.604 o
-4 3 6 10.426 6.726 0.792 31.279 o
-4 3 7 99.776 86.103 2.156 1.903 o
-4 3 8 21.427 24.846 1.478 10.696 o
-4 3 9 0.449 0.485 0.546 225.543 o
-4 3 10 4.664 5.463 1.425 28.388 o
-4 4 1 0.683 0.855 0.271 375.219 o
-4 4 2 83.689 80.680 1.803 2.378 o
-4 4 3 231.885 208.420 3.395 0.500 o
-4 4 4 286.508 275.904 3.392 0.341 o
-4 4 5 25.905 27.599 1.287 9.765 o
-4 4 6 34.155 31.240 1.965 6.502 o
-4 4 7 0.061 0.212 0.409 471.919 o
-4 4 8 8.869 8.229 0.979 29.392 o
-4 4 9 10.196 13.379 1.566 17.163 o
-4 4 10 5.065 5.712 0.997 40.345 o
-4 5 1 0.799 0.461 0.279 388.562 o
-4 5 2 20.518 21.445 1.016 13.420 o
-4 5 3 196.477 185.170 3.223 0.638 o
-4 5 4 306.112 295.863 5.311 0.289 o
-4 5 5 28.840 27.206 1.227 9.267 o
-4 5 6 0.082 0.459 0.329 586.860 o
-4 5 7 6.903 4.910 0.751 43.967 o
-4 5 8 5.133 4.579 0.777 51.062 o
-4 5 9 7.808 6.764 1.276 26.385 o
-4 5 10 9.009 7.462 1.219 25.410 o
-4 6 1 206.748 165.492 3.854 0.618 o
-4 6 2 42.818 38.410 1.744 5.523 o
-4 6 3 57.057 56.874 2.248 3.541 o
-4 6 4 1.909 1.167 0.435 159.061 o
-4 6 5 13.900 13.818 2.190 10.836 o
-4 6 6 5.992 9.323 1.030 32.620 o
-4 6 7 2.978 1.247 0.601 99.073 o
-4 6 8 73.159 78.507 3.054 2.293 o
-4 6 9 9.895 10.926 1.412 19.946 o
-4 7 1 49.289 53.476 3.072 3.366 o
-4 7 2 124.673 123.927 10.694 0.507 o
-4 7 3 124.935 127.690 8.744 0.638 o
-4 7 4 21.056 20.346 1.406 11.781 o
-4 7 5 48.387 44.621 3.013 3.634 o
-4 7 6 13.404 17.424 2.971 7.175 o
-4 7 7 0.003 -0.211 0.676 199.059 o
-4 7 8 0.114 0.766 0.547 243.192 o
-4 7 9 0.001 0.769 0.861 113.804 o
-4 8 1 4.373 1.826 0.697 69.305 o
-4 8 2 0.254 -0.469 0.518 296.820 o
-4 8 3 24.111 23.432 5.504 2.455 o
-4 8 4 19.405 20.785 2.669 7.245 o
-4 8 5 8.479 5.208 1.258 26.873 o
-4 8 6 27.096 23.852 2.718 6.111 o
-4 8 7 6.920 7.975 1.549 21.809 o
-4 8 8 1.650 2.386 1.123 53.563 o
-4 9 1 0.536 0.547 0.692 151.396 o
-4 9 2 0.248 0.521 0.639 187.548 o
-4 9 3 1.593 1.330 0.906 77.987 o
-4 9 4 22.498 38.461 8.445 1.145 o
-4 9 5 28.146 31.311 3.274 4.700 o
-4 9 6 2.381 1.888 1.105 52.431 o
-4 10 2 6.096 5.284 2.013 16.690 o
-3 -11 1 16.015 12.015 4.529 3.736 o
-3 -10 1 18.230 19.451 2.828 6.976 o
-3 -10 2 3.399 1.475 1.398 35.028 o
-3 -10 3 8.327 7.006 1.108 28.792 o
-3 -9 1 18.795 18.125 1.550 12.249 o
-3 -9 2 20.395 22.026 1.733 10.353 o
-3 -9 3 61.190 67.915 2.707 2.909 o
-3 -9 4 4.088 3.197 0.932 51.651 o
-3 -8 1 3.628 3.352 0.575 78.386 o
-3 -8 2 8.774 10.306 1.027 27.075 o
-3 -8 3 51.650 50.247 2.397 3.860 o
-3 -8 4 44.417 43.406 2.599 4.259 o
-3 -8 5 20.323 17.148 2.122 9.334 o
-3 -7 1 44.281 45.212 1.529 5.300 o
-3 -7 2 119.784 132.309 2.714 1.263 o
-3 -7 3 165.134 170.298 3.415 0.786 o
-3 -7 4 103.446 101.303 3.094 1.569 o
-3 -7 5 110.173 114.338 7.044 0.870 o
-3 -7 6 7.702 6.868 1.264 26.696 o
-3 -7 7 10.509 10.977 2.768 8.794 o
-3 -6 1 301.259 300.802 3.982 0.303 o
-3 -6 2 0.827 0.608 0.350 308.907 o
-3 -6 3 4.415 3.832 0.532 71.053 o
-3 -6 4 19.225 19.260 1.357 12.859 o
-3 -6 5 0.212 0.613 0.447 326.838 o
-3 -6 6 0.018 0.049 0.697 184.647 o
-3 -6 7 6.854 6.427 1.530 22.937 o
-3 -5 1 52.334 55.804 1.368 4.375 o
-3 -5 2 5.169 4.081 0.487 65.955 o
-3 -5 3 9.359 11.926 0.853 27.673 o
-3 -5 4 11.877 12.211 0.672 25.939 o
-3 -5 5 3.069 1.898 0.353 121.682 o
-3 -5 6 0.681 0.688 0.429 267.502 o
-3 -5 7 0.422 -0.295 0.499 290.459 o
-3 -5 8 0.537 1.777 1.045 69.461 o
-3 -4 1 123.423 123.672 1.486 1.368 o
-3 -4 2 0.143 0.098 0.135 1926.680 o
-3 -4 3 203.796 211.788 2.333 0.592 o
-3 -4 4 31.596 25.569 0.856 9.561 o
-3 -4 5 28.904 30.188 1.078 9.236 o
-3 -4 6 16.105 15.966 0.925 17.823 o
-3 -4 7 5.454 4.342 0.657 55.349 o
-3 -4 8 22.335 23.124 1.586 10.283 o
-3 -4 9 0.179 0.181 0.623 212.048 o
-3 -3 1 88.980 96.247 1.579 2.111 o
-3 -3 2 245.748 251.384 2.696 0.434 o
-3 -3 3 65.479 67.385 1.159 3.404 o
-3 -3 4 5.549 5.462 0.477 58.718 o
-3 -3 5 46.680 44.548 1.222 5.373 o
-3 -3 6 146.038 145.552 2.587 1.006 o
-3 -3 7 5.756 6.276 0.748 45.838 o
-3 -3 8 10.457 9.435 1.306 21.460 o
-3 -3 9 0.144 1.750 0.768 122.124 o
-3 -2 1 18.382 13.857 0.698 18.254 o
-3 -2 2 11.169 12.982 0.686 26.259 o
-3 -2 3 69.028 74.783 1.603 2.971 o
-3 -2 4 5.004 5.506 0.574 58.180 o
-3 -2 5 331.940 333.507 3.707 0.258 o
-3 -2 6 186.694 175.015 2.700 0.709 o
-3 -2 7 201.146 196.026 3.088 0.609 o
-3 -2 8 0.795 0.294 0.354 338.746 o
-3 -2 9 23.806 20.287 2.007 8.773 o
-3 -2 10 0.017 0.186 0.729 166.061 o
-3 -1 1 236.129 212.179 2.515 0.500 o
-3 -1 2 47.946 47.135 0.835 5.382 o
-3 -1 3 22.288 22.463 0.749 13.365 o
-3 -1 4 0.018 0.165 0.200 1643.230 o
-3 -1 5 96.963 93.327 1.927 1.926 o
-3 -1 6 244.242 252.904 2.526 0.438 o
-3 -1 7 10.635 9.597 0.531 31.779 o
-3 -1 8 15.541 14.991 0.666 20.304 o
-3 -1 9 19.292 17.872 0.889 15.440 o
-3 -1 10 6.974 7.310 3.365 6.972 o
-3 0 1 867.141 833.615 5.168 0.046 o
-3 0 2 64.546 58.857 1.040 3.696 o
-3 0 3 162.590 154.759 1.856 0.904 o
-3 0 4 22.867 20.187 0.585 14.070 o
-3 0 5 11.491 8.939 0.751 28.067 o
-3 0 6 272.355 305.462 3.120 0.343 o
-3 0 7 134.697 129.801 1.988 1.193 o
-3 0 8 25.466 29.070 0.933 10.579 o
-3 0 9 25.355 30.817 1.652 8.553 o
-3 0 10 11.841 11.964 1.164 20.767 o
-3 0 11 7.732 5.908 1.153 29.706 o
-3 1 1 0.130 0.248 0.117 1746.080 o
-3 1 2 211.575 182.052 1.977 0.621 o
-3 1 3 294.490 331.577 3.589 0.297 o
-3 1 4 608.674 624.384 5.298 0.085 o
-3 1 5 88.854 91.305 1.639 2.159 o
-3 1 6 6.969 8.666 0.594 41.487 o
-3 1 7 0.443 0.511 0.226 579.353 o
-3 1 8 96.206 95.889 1.796 1.936 o
-3 1 9 9.608 11.252 0.883 27.367 o
-3 1 10 24.290 27.477 1.732 8.858 o
-3 1 11 0.667 1.123 0.838 102.332 o
-3 2 1 4.248 4.358 0.393 77.924 o
-3 2 2 153.935 179.543 2.033 0.876 o
-3 2 3 37.543 45.937 1.162 6.336 o
-3 2 4 235.547 237.277 3.097 0.464 o
-3 2 5 163.955 173.039 2.439 0.826 o
-3 2 6 4.480 3.447 0.378 81.282 o
-3 2 7 0.704 0.847 0.263 378.575 o
-3 2 8 0.110 -0.453 0.309 811.909 o
-3 2 9 6.747 4.417 0.629 49.663 o
-3 2 10 6.072 7.202 0.757 42.694 o
-3 2 11 0.649 0.048 0.708 150.815 o
-3 3 1 237.715 272.223 3.377 0.421 o
-3 3 2 58.897 60.182 1.377 3.837 o
-3 3 3 205.824 209.088 2.874 0.579 o
-3 3 4 5.465 8.477 0.940 37.190 o
-3 3 5 54.684 51.238 1.511 4.286 o
-3 3 6 9.265 9.965 0.734 31.344 o
-3 3 7 28.739 22.159 0.860 10.796 o
-3 3 8 21.445 21.368 1.102 12.714 o
-3 3 9 0.173 0.839 0.452 309.601 o
-3 3 10 0.828 0.639 0.505 212.044 o
-3 3 11 10.508 12.579 1.679 16.096 o
-3 4 1 72.882 78.337 1.635 2.767 o
-3 4 2 32.548 30.436 1.039 8.502 o
-3 4 3 81.758 97.504 1.967 2.187 o
-3 4 4 33.151 36.294 1.221 7.570 o
-3 4 5 9.136 11.540 0.866 28.139 o
-3 4 6 9.090 12.811 1.026 24.961 o
-3 4 7 14.142 11.280 0.930 21.341 o
-3 4 8 2.674 2.921 0.656 84.843 o
-3 4 9 3.606 3.866 0.730 64.919 o
-3 4 10 26.676 28.781 1.798 8.111 o
-3 4 11 1.938 3.034 0.868 70.707 o
-3 5 1 110.720 113.567 1.990 1.543 o
-3 5 2 3.801 2.952 0.532 82.046 o
-3 5 3 340.365 320.689 4.913 0.249 o
-3 5 4 8.526 7.204 0.918 32.163 o
-3 5 5 68.865 62.723 1.750 3.156 o
-3 5 6 170.145 168.649 2.810 0.792 o
-3 5 7 9.564 7.408 0.900 30.338 o
-3 5 8 3.579 5.101 0.790 57.285 o
-3 5 9 23.456 23.212 1.713 9.550 o
-3 5 10 1.592 1.547 0.673 111.590 o
-3 5 11 6.613 7.499 1.228 28.562 o
-3 6 1 1.699 1.714 0.597 121.573 o
-3 6 2 21.154 21.437 1.461 11.347 o
-3 6 3 106.003 101.583 2.849 1.573 o
-3 6 4 31.322 34.646 1.681 7.180 o
-3 6 5 359.302 358.057 8.829 0.195 o
-3 6 6 0.227 0.195 0.286 694.754 o
-3 6 7 81.079 78.760 2.796 2.200 o
-3 6 8 4.377 4.633 0.937 46.993 o
-3 6 9 1.051 3.114 0.904 74.664 o
-3 6 10 36.132 39.362 2.317 5.324 o
-3 7 1 64.235 61.013 2.388 3.084 o
-3 7 2 10.364 11.960 1.263 20.943 o
-3 7 3 35.728 29.718 1.964 6.407 o
-3 7 4 3.852 3.249 0.927 52.984 o
-3 7 5 23.703 22.846 1.728 9.486 o
-3 7 6 29.701 27.550 2.490 6.164 o
-3 7 7 0.924 3.220 0.975 67.953 o
-3 7 8 9.888 10.159 1.231 22.680 o
-3 7 9 30.536 32.774 3.328 4.441 o
-3 7 10 22.106 21.098 3.315 5.338 o
-3 8 1 0.222 -0.845 0.354 573.877 o
-3 8 2 76.499 70.412 3.813 2.039 o
-3 8 3 58.506 58.498 6.463 1.440 o
-3 8 4 21.130 20.717 1.372 11.842 o
-3 8 5 30.966 37.801 5.551 2.220 o
-3 8 6 14.782 17.881 2.312 9.554 o
-3 8 7 11.311 15.061 2.135 11.701 o
-3 8 8 10.246 9.954 1.871 15.052 o
-3 8 9 10.823 8.496 1.258 22.204 o
-3 9 1 13.287 12.585 1.424 16.890 o
-3 9 2 0.926 1.654 0.638 134.756 o
-3 9 3 0.563 1.717 0.801 106.091 o
-3 9 4 0.927 0.274 0.455 246.745 o
-3 9 5 11.720 17.358 2.417 9.722 o
-3 9 6 25.654 27.520 3.089 5.310 o
-3 9 7 0.282 0.013 0.812 129.562 o
-3 9 8 1.311 3.529 1.415 36.726 o
-3 10 1 13.406 14.599 1.228 17.887 o
-3 10 2 1.572 1.316 0.647 119.638 o
-3 10 3 0.458 1.387 0.828 105.794 o
-3 10 4 18.828 20.476 1.792 10.714 o
-3 10 5 0.394 0.202 1.148 65.321 o
-3 10 6 2.275 2.044 1.856 23.018 o
-2 -11 1 0.277 0.617 0.622 191.281 o
-2 -10 1 1.114 1.471 0.494 172.649 o
-2 -10 2 5.349 3.374 0.559 63.806 o
-2 -10 3 1.873 0.211 0.617 133.155 o
-2 -9 1 236.166 240.380 3.331 0.456 o
-2 -9 2 0.022 -0.449 0.272 1180.280 o
-2 -9 3 14.696 14.136 1.396 15.865 o
-2 -9 4 0.263 0.405 0.750 143.849 o
-2 -8 1 224.700 213.185 2.749 0.523 o
-2 -8 2 68.786 75.881 1.520 2.985 o
-2 -8 3 42.394 43.819 1.112 5.939 o
-2 -8 4 44.931 45.439 2.651 4.120 o
-2 -8 5 26.602 23.547 2.265 7.289 o
-2 -8 6 0.045 -0.234 0.968 96.398 o
-2 -7 1 110.932 116.480 1.797 1.540 o
-2 -7 2 165.047 170.326 2.572 0.822 o
-2 -7 3 196.971 194.582 2.495 0.639 o
-2 -7 4 54.195 59.176 2.368 3.542 o
-2 -7 5 8.856 10.180 1.626 18.365 o
-2 -7 6 22.654 21.031 2.832 6.411 o
-2 -7 7 0.685 -0.162 0.790 124.912 o
-2 -6 1 13.385 14.076 0.607 23.379 o
-2 -6 2 59.806 62.522 1.533 3.657 o
-2 -6 3 22.855 23.856 0.980 12.148 o
-2 -6 4 6.688 6.703 1.352 26.379 o
-2 -6 5 14.110 11.823 1.248 18.183 o
-2 -6 6 61.881 58.937 2.983 2.886 o
-2 -6 7 4.445 8.159 0.969 39.512 o
-2 -6 8 6.325 6.653 1.331 27.363 o
-2 -5 1 5.508 4.584 0.332 67.316 o
-2 -5 2 97.486 104.428 1.450 1.879 o
-2 -5 3 26.152 30.862 0.841 10.324 o
-2 -5 4 1.386 2.995 0.369 156.881 o
-2 -5 5 4.530 3.296 0.484 75.389 o
-2 -5 6 32.131 29.060 1.162 8.506 o
-2 -5 7 3.945 3.042 0.685 68.608 o
-2 -5 8 5.382 4.345 0.755 51.417 o
-2 -5 9 2.419 1.931 0.851 73.005 o
-2 -4 1 1001.820 1021.140 10.607 0.033 o
-2 -4 2 39.007 56.825 1.403 5.366 o
-2 -4 3 75.367 84.228 1.263 2.681 o
-2 -4 4 6.638 7.699 0.404 48.875 o
-2 -4 5 14.855 15.177 0.648 20.965 o
-2 -4 6 16.523 14.706 0.604 19.907 o
-2 -4 7 13.077 12.106 0.580 25.201 o
-2 -4 8 3.973 4.420 0.802 56.297 o
-2 -4 9 18.764 23.194 1.752 10.546 o
-2 -3 1 103.456 95.436 1.281 1.870 o
-2 -3 2 1.304 0.551 0.133 351.906 o
-2 -3 3 2.750 3.631 0.366 107.741 o
-2 -3 4 257.722 260.235 2.654 0.404 o
-2 -3 5 19.751 17.998 0.694 15.979 o
-2 -3 6 8.252 9.726 0.551 36.915 o
-2 -3 7 0.111 -0.181 0.247 1172.860 o
-2 -3 8 1.229 1.474 0.315 227.518 o
-2 -3 9 18.158 18.054 1.053 15.182 o
-2 -3 10 1.264 0.888 1.214 52.445 o
-2 -2 1 570.345 538.809 4.842 0.101 o
-2 -2 2 638.411 649.706 4.691 0.079 o
-2 -2 3 9.988 7.710 0.523 35.480 o
-2 -2 4 293.997 280.237 2.567 0.335 o
-2 -2 5 57.302 59.096 1.218 4.030 o
-2 -2 6 2.367 2.624 0.313 136.314 o
-2 -2 7 12.581 14.699 0.728 22.993 o
-2 -2 8 0.597 1.252 0.313 320.022 o
-2 -2 9 4.792 6.940 0.730 49.134 o
-2 -2 10 4.967 6.931 0.826 44.811 o
-2 -1 1 13.015 14.531 0.524 24.133 o
-2 -1 2 226.270 227.470 2.328 0.508 o
-2 -1 3 50.238 62.650 0.862 4.527 o
-2 -1 4 705.270 699.308 4.883 0.067 o
-2 -1 5 396.020 419.997 3.560 0.184 o
-2 -1 6 109.215 106.760 1.648 1.647 o
-2 -1 7 372.924 376.732 3.737 0.210 o
-2 -1 8 21.548 21.106 1.056 12.907 o
-2 -1 9 0.042 0.266 0.640 208.568 o
-2 -1 10 0.018 -0.610 0.341 766.645 o
-2 -1 11 1.815 1.076 0.562 134.533 o
-2 0 1 3.832 2.422 0.157 112.005 o
-2 0 2 1220.080 1184.850 7.412 0.024 o
-2 0 3 315.520 318.936 2.867 0.285 o
-2 0 4 2241.730 2237.320 17.299 0.007 o
-2 0 5 1010.610 1004.830 6.842 0.034 o
-2 0 6 459.744 454.138 4.241 0.146 o
-2 0 7 0.341 -0.063 0.193 1026.500 o
-2 0 8 107.366 104.211 1.815 1.676 o
-2 0 9 20.250 18.385 1.019 14.217 o
-2 0 10 2.012 1.202 0.477 144.639 o
-2 0 11 0.485 0.468 0.629 180.449 o
-2 1 1 216.236 188.409 1.759 0.598 o
-2 1 2 239.936 231.782 1.959 0.475 o
-2 1 3 1523.600 1601.040 11.895 0.015 o
-2 1 4 1.022 0.395 0.164 428.212 o
-2 1 5 148.903 150.369 2.123 0.994 o
-2 1 6 146.050 162.478 2.339 0.963 o
-2 1 7 0.259 -0.017 0.243 925.420 o
-2 1 8 31.232 32.105 1.045 8.588 o
-2 1 9 0.744 0.383 0.364 331.770 o
-2 1 10 12.030 10.090 1.167 21.418 o
-2 1 11 21.596 21.958 1.348 11.582 o
-2 2 1 454.440 435.647 4.524 0.151 o
-2 2 2 899.699 853.400 6.931 0.043 o
-2 2 3 1324.750 1320.550 10.196 0.020 o
-2 2 4 150.342 141.102 1.931 1.025 o
-2 2 5 18.388 22.476 0.726 15.351 o
-2 2 6 1.294 2.091 0.294 204.265 o
-2 2 7 58.431 54.234 1.313 4.065 o
-2 2 8 10.519 9.658 0.752 29.068 o
-2 2 9 0.176 -0.414 0.316 717.700 o
-2 2 10 6.946 7.989 0.898 35.204 o
-2 2 11 10.354 7.014 0.894 29.404 o
-2 3 1 307.509 331.511 4.106 0.279 o
-2 3 2 385.586 419.248 4.196 0.188 o
-2 3 3 248.336 253.091 3.079 0.423 o
-2 3 4 127.014 111.145 1.984 1.362 o
-2 3 5 0.249 0.775 0.215 636.904 o
-2 3 6 62.601 62.043 1.282 3.631 o
-2 3 7 21.073 22.192 0.838 13.677 o
-2 3 8 0.822 0.875 0.284 334.149 o
-2 3 9 23.620 20.771 1.185 11.724 o
-2 3 10 6.139 5.613 1.158 32.793 o
-2 3 11 13.427 17.143 1.697 13.557 o
-2 4 1 624.935 664.194 7.189 0.078 o
-2 4 2 81.306 83.709 2.000 2.354 o
-2 4 3 51.494 56.270 1.330 4.438 o
-2 4 4 215.807 215.834 3.113 0.537 o
-2 4 5 98.242 104.255 1.907 1.810 o
-2 4 6 15.658 16.079 1.116 16.799 o
-2 4 7 4.658 3.822 0.516 69.843 o
-2 4 8 176.604 173.188 3.705 0.717 o
-2 4 9 11.578 8.797 1.019 24.468 o
-2 4 10 17.542 19.402 2.053 9.986 o
-2 4 11 0.730 -0.159 0.507 247.529 o
-2 5 1 65.636 60.086 1.835 3.308 o
-2 5 2 1.665 1.898 0.398 162.383 o
-2 5 3 2.103 1.135 0.332 174.739 o
-2 5 4 41.886 37.169 1.171 6.332 o
-2 5 5 15.255 12.928 0.759 20.904 o
-2 5 6 38.594 40.515 1.405 6.264 o
-2 5 7 134.131 134.327 3.084 1.099 o
-2 5 8 45.458 43.351 1.831 4.984 o
-2 5 9 2.879 3.162 0.787 69.316 o
-2 5 10 0.453 -0.737 0.722 154.173 o
-2 5 11 2.978 2.545 0.738 75.519 o
-2 6 1 17.140 16.883 1.837 11.478 o
-2 6 2 13.258 11.826 1.997 12.515 o
-2 6 3 51.668 49.352 1.815 4.335 o
-2 6 4 24.317 28.074 1.415 9.734 o
-2 6 5 818.919 811.350 7.722 0.050 o
-2 6 6 20.752 17.809 0.889 14.684 o
-2 6 7 14.816 17.203 1.257 15.980 o
-2 6 8 55.784 58.497 2.846 3.182 o
-2 6 9 17.488 18.495 1.723 11.725 o
-2 6 10 9.077 10.496 1.388 21.136 o
-2 6 11 2.663 0.885 1.387 37.860 o
-2 7 1 4.046 3.751 0.713 63.251 o
-2 7 2 21.910 19.564 1.413 11.603 o
-2 7 3 2.039 2.873 0.597 101.832 o
-2 7 4 168.819 161.396 2.572 0.825 o
-2 7 5 95.868 97.053 2.859 1.748 o
-2 7 6 142.695 146.781 2.987 1.000 o
-2 7 7 23.299 24.606 1.585 9.860 o
-2 7 8 110.483 119.133 3.775 1.290 o
-2 7 9 30.011 36.792 2.063 6.479 o
-2 7 10 8.815 11.121 1.370 21.332 o
-2 8 1 92.842 90.279 3.057 1.808 o
-2 8 2 4.567 4.330 1.017 43.388 o
-2 8 3 3.503 2.138 0.582 86.643 o
-2 8 4 2.626 3.038 0.535 97.853 o
-2 8 5 48.228 50.176 2.258 4.163 o
-2 8 6 9.723 9.162 1.763 16.594 o
-2 8 7 111.191 104.922 4.664 1.216 o
-2 8 8 39.218 39.063 1.892 5.651 o
-2 8 9 11.506 11.610 2.658 9.105 o
-2 8 10 5.258 4.230 0.938 44.395 o
-2 9 1 27.891 30.015 1.434 8.682 o
-2 9 2 28.206 29.149 1.800 7.820 o
-2 9 3 61.571 62.210 3.087 2.790 o
-2 9 4 29.638 33.011 1.568 7.792 o
-2 9 5 3.259 4.530 1.746 23.252 o
-2 9 6 0.906 1.497 0.771 107.493 o
-2 9 7 4.121 3.966 1.166 39.212 o
-2 9 8 1.785 1.339 0.789 91.019 o
-2 9 9 0.034 0.015 0.789 144.575 o
-2 10 1 0.847 -0.402 0.396 318.422 o
-2 10 2 6.705 4.439 1.035 36.356 o
-2 10 3 2.528 4.376 0.782 67.556 o
-2 10 4 0.688 -0.053 0.600 196.089 o
-2 10 5 0.955 0.774 1.010 74.270 o
-2 10 6 1.140 2.080 0.988 69.446 o
-2 10 7 0.040 0.250 0.929 102.363 o
-2 11 3 1.127 1.317 0.931 79.855 o
-1 -11 1 11.948 12.741 1.645 15.618 o
-1 -10 1 12.866 13.823 1.117 19.582 o
-1 -10 2 0.123 0.564 0.472 320.396 o
-1 -10 3 40.425 43.861 1.862 5.353 o
-1 -9 1 19.720 15.097 0.943 15.711 o
-1 -9 2 13.770 16.183 1.047 18.564 o
-1 -9 3 0.338 -0.209 0.292 667.394 o
-1 -9 4 4.061 4.449 0.646 64.667 o
-1 -8 1 126.313 128.750 2.219 1.260 o
-1 -8 2 199.324 205.572 3.101 0.599 o
-1 -8 3 5.154 4.487 0.534 62.375 o
-1 -8 4 5.742 7.324 0.909 38.890 o
-1 -8 5 7.180 7.015 0.940 34.777 o
-1 -8 6 1.270 0.455 0.726 120.427 o
-1 -7 1 634.484 630.323 6.136 0.080 o
-1 -7 2 2.387 2.338 0.454 120.329 o
-1 -7 3 3.483 3.699 0.530 81.577 o
-1 -7 4 24.002 30.756 1.242 9.970 o
-1 -7 5 1.851 2.107 0.471 136.054 o
-1 -7 6 8.836 9.138 0.989 28.513 o
-1 -7 7 1.951 2.370 0.700 93.404 o
-1 -6 1 1.113 1.521 0.277 250.647 o
-1 -6 2 0.166 0.003 0.171 1671.080 o
-1 -6 3 78.225 78.047 1.553 2.625 o
-1 -6 4 50.235 56.617 1.598 4.345 o
-1 -6 5 8.304 7.475 0.839 34.029 o
-1 -6 6 0.607 2.725 0.583 141.962 o
-1 -6 7 5.662 4.279 0.761 49.975 o
-1 -6 8 0.771 0.391 0.817 111.688 o
-1 -5 1 14.963 14.136 0.669 21.234 o
-1 -5 2 40.608 41.762 1.008 6.364 o
-1 -5 3 60.349 58.913 1.819 3.582 o
-1 -5 4 22.193 18.244 0.690 14.584 o
-1 -5 5 22.875 18.115 0.771 14.014 o
-1 -5 6 9.759 8.403 0.734 31.902 o
-1 -5 7 0.029 -0.028 0.312 896.293 o
-1 -5 8 1.464 1.231 0.553 145.756 o
-1 -5 9 1.278 1.087 0.548 157.340 o
-1 -4 1 77.754 82.834 1.269 2.627 o
-1 -4 2 35.634 41.793 0.921 7.129 o
-1 -4 3 106.188 110.095 1.431 1.687 o
-1 -4 4 34.620 39.030 1.086 7.307 o
-1 -4 5 63.954 66.971 1.277 3.448 o
-1 -4 6 8.361 7.606 0.537 39.896 o
-1 -4 7 42.779 46.241 1.234 5.663 o
-1 -4 8 0.192 -0.347 0.338 635.744 o
-1 -4 9 2.071 1.068 0.406 161.066 o
-1 -3 1 43.320 40.617 0.802 6.261 o
-1 -3 2 1262.480 1313.930 7.875 0.021 o
-1 -3 3 16.945 17.754 0.501 18.749 o
-1 -3 4 19.630 19.391 0.629 15.875 o
-1 -3 5 132.894 137.660 1.903 1.179 o
-1 -3 6 12.919 13.411 0.705 23.539 o
-1 -3 7 113.172 110.149 2.164 1.515 o
-1 -3 8 1.127 2.167 0.393 184.581 o
-1 -3 9 9.697 10.224 0.838 28.707 o
-1 -3 10 4.375 5.088 0.741 55.343 o
-1 -2 1 187.017 186.832 1.350 0.714 o
-1 -2 2 176.618 169.862 1.405 0.799 o
-1 -2 3 231.136 256.157 2.448 0.462 o
-1 -2 4 121.063 123.956 1.577 1.387 o
-1 -2 5 44.950 41.750 0.994 5.866 o
-1 -2 6 71.569 70.626 1.418 3.009 o
-1 -2 7 3.058 2.923 0.535 91.987 o
-1 -2 8 0.022 -0.141 0.280 1115.220 o
-1 -2 9 2.003 2.952 0.453 122.417 o
-1 -2 10 23.200 24.140 1.344 10.774 o
-1 -2 11 0.053 -1.494 0.492 363.194 o
-1 -1 1 685.487 609.097 3.813 0.076 o
-1 -1 2 1921.740 1875.380 12.340 0.010 o
-1 -1 3 949.015 969.806 6.904 0.037 o
-1 -1 4 1.267 0.895 0.173 311.871 o
-1 -1 5 9.532 9.100 0.631 33.289 o
-1 -1 6 20.720 19.333 0.802 14.663 o
-1 -1 7 85.302 87.171 1.915 2.235 o
-1 -1 8 12.806 11.674 0.777 24.040 o
-1 -1 9 29.769 30.123 1.285 8.629 o
-1 -1 10 1.589 1.099 0.549 144.720 o
-1 -1 11 0.212 -0.330 0.483 343.327 o
-1 0 1 38.659 24.131 0.348 8.665 o
-1 0 4 382.417 419.402 3.805 0.191 o
-1 0 5 601.017 638.758 5.504 0.085 o
-1 0 6 317.135 302.391 3.514 0.288 o
-1 0 7 382.121 381.282 4.325 0.201 o
-1 0 8 14.764 15.921 0.923 18.849 o
-1 0 9 22.058 21.948 1.178 12.086 o
-1 0 10 1.609 1.010 0.514 154.870 o
-1 0 11 6.017 7.256 1.071 33.679 o
-1 1 2 688.638 672.446 4.815 0.070 o
-1 1 3 279.579 299.144 3.854 0.331 o
-1 1 4 528.077 601.241 5.896 0.103 o
-1 1 5 34.196 34.872 1.104 7.689 o
-1 1 6 154.138 168.349 2.662 0.881 o
-1 1 7 25.408 24.936 1.054 10.904 o
-1 1 8 216.764 218.564 4.164 0.508 o
-1 1 9 2.124 0.731 0.517 140.166 o
-1 1 10 4.067 2.653 0.959 51.563 o
-1 1 11 7.367 7.414 1.173 28.650 o
-1 1 12 0.141 0.274 0.573 246.048 o
-1 2 1 16.024 17.893 0.526 19.342 o
-1 2 2 1.427 3.497 0.565 112.483 o
-1 2 3 358.081 362.277 4.080 0.224 o
-1 2 4 17.268 14.007 0.530 19.923 o
-1 2 5 0.566 0.221 0.177 679.571 o
-1 2 6 181.101 202.254 2.993 0.669 o
-1 2 7 31.018 33.237 1.274 8.113 o
-1 2 8 0.704 0.541 0.314 369.079 o
-1 2 9 11.135 10.274 1.229 21.432 o
-1 2 10 18.206 16.809 1.806 11.336 o
-1 2 11 13.540 11.936 1.422 16.949 o
-1 2 12 3.154 2.648 1.005 53.310 o
-1 3 1 1053.130 1045.060 9.333 0.031 o
-1 3 2 3.718 4.657 0.334 85.655 o
-1 3 3 0.711 2.465 0.290 238.748 o
-1 3 4 110.062 106.283 2.213 1.576 o
-1 3 5 569.580 608.106 5.951 0.093 o
-1 3 6 177.608 192.172 2.521 0.716 o
-1 3 7 2.245 3.392 0.406 117.292 o
-1 3 8 30.773 30.553 1.109 8.728 o
-1 3 9 1.032 1.026 0.575 160.529 o
-1 3 10 1.072 -0.403 0.398 283.156 o
-1 3 11 1.757 -0.240 0.603 143.915 o
-1 3 12 6.871 5.964 0.958 36.283 o
-1 4 1 49.315 46.199 2.274 4.202 o
-1 4 2 62.881 72.574 1.866 3.152 o
-1 4 3 6.037 5.356 0.405 58.344 o
-1 4 4 94.009 108.801 1.717 1.869 o
-1 4 5 0.171 0.151 0.200 1179.850 o
-1 4 6 18.731 19.821 0.972 14.831 o
-1 4 7 34.795 35.589 1.364 7.150 o
-1 4 8 70.900 68.930 1.972 2.884 o
-1 4 9 23.037 24.881 1.849 9.003 o
-1 4 10 12.285 11.987 1.091 21.151 o
-1 4 11 20.569 21.700 1.757 10.255 o
-1 4 12 0.774 -0.125 0.501 246.665 o
-1 5 1 70.498 79.065 2.052 2.705 o
-1 5 2 260.233 251.479 4.612 0.383 o
-1 5 3 0.570 0.319 0.176 642.534 o
-1 5 4 9.739 13.739 0.988 24.113 o
-1 5 5 343.864 341.462 3.767 0.244 o
-1 5 6 0.457 0.964 0.266 426.083 o
-1 5 7 2.126 1.416 0.400 152.594 o
-1 5 8 0.546 -0.012 0.474 296.029 o
-1 5 9 14.729 17.866 2.168 10.264 o
-1 5 10 1.688 1.390 0.721 102.844 o
-1 5 11 1.193 0.431 0.493 198.857 o
-1 5 12 3.849 2.445 0.931 54.862 o
-1 6 1 110.400 113.001 2.620 1.478 o
-1 6 2 416.196 412.350 5.624 0.170 o
-1 6 3 242.445 241.460 3.063 0.446 o
-1 6 4 5.663 5.629 0.623 52.200 o
-1 6 5 0.936 0.702 0.243 357.028 o
-1 6 6 143.130 140.920 2.473 1.050 o
-1 6 7 23.932 23.894 1.631 9.640 o
-1 6 8 67.907 66.650 2.514 2.804 o
-1 6 9 4.959 3.033 0.974 46.168 o
-1 6 10 4.781 3.590 0.800 54.203 o
-1 6 11 6.196 4.570 0.967 39.722 o
-1 7 1 0.013 0.017 0.304 947.710 o
-1 7 2 0.001 -0.496 0.229 1733.730 o
-1 7 3 158.208 153.698 2.522 0.907 o
-1 7 4 343.992 339.727 4.327 0.242 o
-1 7 5 283.623 279.022 4.188 0.336 o
-1 7 6 391.353 382.064 4.446 0.195 o
-1 7 7 0.554 1.269 0.376 282.367 o
-1 7 8 1.158 0.740 0.385 238.491 o
-1 7 9 6.680 8.076 1.124 30.311 o
-1 7 10 2.227 2.480 0.726 85.548 o
-1 7 11 7.557 4.786 1.005 34.785 o
-1 8 1 10.443 11.649 0.746 27.643 o
-1 8 2 77.337 74.645 2.072 2.561 o
-1 8 3 18.987 18.747 1.023 14.729 o
-1 8 4 91.070 84.412 2.045 2.111 o
-1 8 5 181.818 170.598 4.606 0.664 o
-1 8 6 8.709 11.105 1.253 23.105 o
-1 8 7 25.561 29.881 3.554 4.442 o
-1 8 8 73.026 77.060 2.625 2.465 o
-1 8 9 5.779 4.688 0.830 45.868 o
-1 8 10 16.827 14.832 1.560 13.551 o
-1 9 1 30.954 30.435 1.214 8.505 o
-1 9 2 42.674 36.859 1.548 5.843 o
-1 9 3 0.160 -0.292 0.377 547.478 o
-1 9 4 9.683 11.226 1.303 21.390 o
-1 9 5 6.939 7.265 1.269 27.369 o
-1 9 6 10.031 9.355 1.767 16.331 o
-1 9 7 5.340 3.837 2.280 14.326 o
-1 9 8 13.316 13.801 2.175 11.079 o
-1 9 9 0.052 -0.865 0.408 520.975 o
-1 10 1 26.981 30.289 1.259 9.264 o
-1 10 2 7.862 7.603 0.970 31.994 o
-1 10 3 31.789 32.429 2.533 5.651 o
-1 10 4 1.757 2.285 0.690 98.621 o
-1 10 5 0.015 0.477 0.578 243.996 o
-1 10 6 5.273 8.933 2.658 10.538 o
-1 10 7 14.743 16.750 2.257 9.947 o
-1 10 8 27.340 28.215 3.178 5.006 o
-1 11 1 21.608 18.656 4.355 3.692 o
-1 11 2 0.082 -0.935 0.459 406.993 o
-1 11 3 1.523 2.622 0.940 68.973 o
-1 11 4 7.954 5.662 1.124 30.188 o
-1 11 5 2.420 1.214 0.797 82.642 o
-1 11 6 0.678 0.531 0.899 95.638 o
0 -10 1 34.736 36.731 1.650 6.632 o
0 -10 2 2.896 4.180 0.985 52.023 o
0 -10 3 0.116 -0.136 0.470 381.460 o
0 -9 1 42.451 40.581 1.368 5.867 o
0 -9 2 0.390 0.084 0.318 546.106 o
0 -9 3 0.714 1.392 0.456 215.144 o
0 -9 4 5.653 6.876 0.914 39.637 o
0 -8 1 11.873 12.369 0.826 24.253 o
0 -8 2 24.062 20.168 1.540 10.387 o
0 -8 3 70.797 69.653 3.103 2.434 o
0 -8 4 19.682 23.607 1.712 10.420 o
0 -8 5 3.374 4.995 0.728 62.630 o
0 -8 6 0.004 -0.617 0.577 272.523 o
0 -7 1 49.736 49.277 1.407 4.773 o
0 -7 2 330.289 342.012 3.832 0.255 o
0 -7 3 83.677 84.099 2.093 2.269 o
0 -7 4 16.053 16.882 1.226 15.598 o
0 -7 5 3.992 5.431 0.693 59.101 o
0 -7 6 15.419 14.852 1.349 15.632 o
0 -7 7 0.696 0.117 0.682 157.129 o
0 -6 1 26.027 23.774 0.854 11.413 o
0 -6 2 64.335 68.769 1.444 3.332 o
0 -6 3 19.784 23.306 1.107 12.968 o
0 -6 4 2.068 2.312 0.427 133.904 o
0 -6 5 12.657 15.911 1.161 18.543 o
0 -6 6 6.014 8.758 0.714 41.505 o
0 -6 7 4.403 5.318 0.752 54.035 o
0 -6 8 0.574 0.380 0.607 187.963 o
0 -5 1 88.144 89.833 1.557 2.205 o
0 -5 2 30.073 28.137 0.911 9.523 o
0 -5 3 1.772 1.722 0.235 197.849 o
0 -5 4 1.823 2.862 0.320 150.477 o
0 -5 5 17.613 18.354 0.890 16.263 o
0 -5 6 3.054 2.555 0.510 97.444 o
0 -5 7 9.347 5.963 0.692 36.388 o
0 -5 8 0.015 -1.046 0.424 500.458 o
0 -5 9 7.167 9.227 1.038 30.318 o
0 -4 1 1.853 2.879 0.245 160.147 o
0 -4 2 46.658 41.664 0.821 5.802 o
0 -4 3 100.033 116.976 1.561 1.717 o
0 -4 4 12.339 16.032 0.697 22.771 o
0 -4 5 2.534 3.950 0.416 103.988 o
0 -4 6 0.193 0.828 0.291 514.818 o
0 -4 7 46.838 40.666 1.364 5.424 o
0 -4 8 5.543 3.131 0.552 63.603 o
0 -4 9 9.110 11.596 0.965 26.641 o
0 -4 10 7.080 7.285 1.121 30.371 o
0 -3 1 250.670 256.074 2.361 0.424 o
0 -3 2 814.563 861.032 5.453 0.049 o
0 -3 3 673.641 694.725 5.060 0.071 o
0 -3 4 531.502 564.980 4.265 0.108 o
0 -3 5 179.684 200.498 2.255 0.698 o
0 -3 6 0.124 0.703 0.273 619.807 o
0 -3 7 114.492 113.997 2.161 1.475 o
0 -3 8 0.254 -0.086 0.286 755.943 o
0 -3 9 1.823 2.222 0.526 124.824 o
0 -3 10 1.158 0.772 0.912 85.177 o
0 -2 1 140.349 137.182 1.237 1.147 o
0 -2 2 1782.450 1611.290 10.599 0.012 o
0 -2 3 66.117 73.639 0.989 3.281 o
0 -2 4 37.067 46.196 0.852 6.671 o
0 -2 5 137.650 148.551 1.844 1.097 o
0 -2 6 0.035 0.311 0.212 1229.800 o
0 -2 7 0.195 0.136 0.248 895.885 o
0 -2 8 2.598 3.246 0.532 96.909 o
0 -2 9 0.127 0.255 0.339 592.766 o
0 -2 10 3.075 4.106 0.717 69.152 o
0 -2 11 3.982 5.088 1.086 41.194 o
0 -1 2 258.331 253.728 1.840 0.416 o
0 -1 3 118.203 111.315 1.409 1.510 o
0 -1 4 20.949 20.991 0.698 14.490 o
0 -1 5 35.877 37.044 0.918 7.467 o
0 -1 6 12.293 12.203 0.849 23.604 o
0 -1 7 23.771 24.825 0.994 11.614 o
0 -1 8 31.691 34.961 1.179 8.002 o
0 -1 9 0.149 -0.028 0.318 736.417 o
0 -1 10 0.041 -0.867 0.687 190.240 o
0 -1 11 10.769 11.419 1.708 15.989 o
0 0 1 0.254 0.109 0.056 1830.670 o
0 0 3 2089.050 2071.000 23.339 0.008 o
0 0 4 98.906 106.898 1.440 1.832 o
0 0 5 141.235 137.655 2.031 1.102 o
0 0 6 10.769 16.895 0.723 23.860 o
0 0 7 11.876 15.754 0.841 22.184 o
0 0 8 0.031 2.011 0.503 221.374 o
0 0 9 0.425 4.535 0.646 109.428 o
0 0 10 2.432 3.363 0.740 76.705 o
0 0 11 0.853 1.131 0.687 132.305 o
0 0 12 11.147 13.244 3.617 5.652 o
0 1 0 27.285 29.163 0.917 10.093 o
0 1 1 12.134 10.671 0.291 29.896 o
0 1 2 317.940 316.145 4.763 0.272 o
0 1 3 403.181 404.310 5.955 0.177 o
0 1 4 89.422 77.744 1.462 2.337 o
0 1 5 0.370 0.118 0.135 1094.980 o
0 1 6 153.655 157.908 2.391 0.927 o
0 1 7 4.614 3.193 0.415 79.120 o
0 1 8 45.856 44.613 1.469 5.240 o
0 1 9 259.248 260.873 4.279 0.382 o
0 1 10 11.939 10.461 1.380 18.924 o
0 1 11 16.000 13.738 1.913 11.869 o
0 1 12 2.494 2.161 0.960 61.708 o
0 2 0 112.396 103.932 1.229 1.656 o
0 2 1 0.280 0.075 0.117 1473.400 o
0 2 2 0.416 1.582 0.198 408.157 o
0 2 3 805.937 838.797 7.950 0.049 o
0 2 4 157.313 171.049 2.505 0.863 o
0 2 5 50.469 49.360 1.364 4.744 o
0 2 6 0.989 2.494 0.394 182.670 o
0 2 7 27.741 25.103 1.410 9.297 o
0 2 8 181.875 178.207 3.806 0.683 o
0 2 9 174.858 172.708 3.787 0.722 o
0 2 10 0.171 -0.410 0.427 436.573 o
0 2 11 0.000 -0.350 0.979 94.827 o
0 2 12 3.815 5.462 1.824 20.863 o
0 3 0 4.996 13.463 0.579 40.437 o
0 3 1 442.301 429.966 5.160 0.156 o
0 3 2 1180.610 1146.240 8.591 0.025 o
0 3 3 11.801 12.842 0.804 24.286 o
0 3 4 375.908 383.509 4.529 0.203 o
0 3 5 324.306 332.340 3.873 0.265 o
0 3 6 6.016 7.099 0.590 48.177 o
0 3 7 3.916 4.063 0.538 74.319 o
0 3 8 2.340 1.801 0.419 134.655 o
0 3 9 10.467 12.833 1.392 19.005 o
0 3 10 0.174 0.092 0.571 252.992 o
0 3 11 1.469 1.485 0.802 92.702 o
0 3 12 1.758 3.060 0.981 61.873 o
0 4 0 121.984 119.673 1.744 1.389 o
0 4 1 105.521 84.616 1.737 1.877 o
0 4 2 927.334 976.086 7.185 0.038 o
0 4 3 16.086 14.334 0.581 20.592 o
0 4 4 16.670 17.095 0.848 17.506 o
0 4 5 690.011 675.861 6.521 0.069 o
0 4 6 166.776 166.512 3.111 0.801 o
0 4 7 75.789 82.603 2.025 2.507 o
0 4 8 122.181 117.816 3.745 1.196 o
0 4 9 40.546 40.206 2.152 5.147 o
0 4 10 1.641 2.479 0.851 77.942 o
0 4 11 0.649 0.207 1.573 35.163 o
0 4 12 8.292 8.688 2.033 14.654 o
0 5 0 76.608 68.291 1.181 2.926 o
0 5 1 173.088 177.502 3.168 0.745 o
0 5 2 986.507 1005.060 9.071 0.034 o
0 5 3 44.573 39.340 0.997 6.042 o
0 5 4 1.715 2.022 0.320 174.375 o
0 5 5 16.823 21.079 0.929 15.727 o
0 5 6 236.669 236.779 3.522 0.456 o
0 5 7 0.237 -0.216 0.272 826.599 o
0 5 8 49.546 51.482 1.735 4.465 o
0 5 9 0.595 0.062 0.633 183.355 o
0 5 10 27.424 28.618 3.051 5.214 o
0 5 11 0.168 0.485 0.743 148.205 o
0 5 12 1.265 0.006 0.837 101.725 o
0 6 0 300.505 299.825 2.763 0.313 o
0 6 1 197.978 207.745 2.795 0.607 o
0 6 2 14.020 13.048 1.168 18.531 o
0 6 3 5.268 4.723 0.612 57.330 o
0 6 4 15.116 14.795 0.785 19.995 o
0 6 5 0.450 0.784 0.278 443.218 o
0 6 6 8.829 8.023 0.736 34.290 o
0 6 7 22.834 26.503 1.266 10.798 o
0 6 8 0.130 0.357 0.535 273.554 o
0 6 9 32.439 32.808 5.315 2.385 o
0 6 10 39.909 42.385 4.622 2.634 o
0 6 11 0.289 -1.506 0.518 291.753 o
0 6 12 6.636 9.404 1.950 16.104 o
0 7 0 12.025 11.996 0.766 24.928 o
0 7 1 335.102 341.709 4.047 0.250 o
0 7 2 251.333 238.577 3.087 0.431 o
0 7 3 118.532 111.503 2.024 1.454 o
0 7 4 747.876 729.640 6.696 0.060 o
0 7 5 49.784 48.656 1.569 4.675 o
0 7 6 51.860 49.764 1.637 4.439 o
0 7 7 59.148 58.550 2.369 3.341 o
0 7 8 0.215 -0.157 0.510 310.902 o
0 7 9 39.737 44.250 3.996 3.099 o
0 7 10 6.559 7.032 1.620 21.401 o
0 7 11 6.121 5.031 1.698 21.323 o
0 8 0 13.120 14.854 1.202 18.225 o
0 8 1 114.392 107.789 2.057 1.526 o
0 8 2 22.966 19.163 1.019 12.866 o
0 8 3 650.986 650.079 6.315 0.076 o
0 8 4 158.023 150.654 2.597 0.913 o
0 8 5 32.441 29.663 1.162 8.386 o
0 8 6 245.275 255.371 6.989 0.360 o
0 8 7 265.735 273.584 5.683 0.344 o
0 8 8 13.374 13.478 1.377 16.974 o
0 8 9 4.321 2.835 0.733 63.263 o
0 8 10 12.974 16.516 1.693 13.900 o
0 8 11 0.723 -0.478 0.592 197.531 o
0 9 0 2.835 3.269 0.793 68.665 o
0 9 1 0.013 0.015 0.368 657.731 o
0 9 2 3.982 3.156 0.481 82.499 o
0 9 3 9.105 10.186 0.859 29.409 o
0 9 4 1.421 0.621 0.463 189.961 o
0 9 5 2.411 3.867 0.637 84.166 o
0 9 6 206.315 216.522 12.676 0.291 o
0 9 7 48.763 59.130 3.534 2.953 o
0 9 8 7.339 5.894 1.334 26.414 o
0 9 9 15.161 17.644 1.411 14.632 o
0 9 10 0.592 0.139 0.599 198.119 o
0 10 0 0.721 0.753 0.639 158.276 o
0 10 1 4.841 3.765 0.950 46.331 o
0 10 2 0.002 0.289 0.307 780.801 o
0 10 3 0.630 0.571 0.421 287.630 o
0 10 4 21.352 21.655 1.599 10.693 o
0 10 5 8.671 11.207 1.086 25.632 o
0 10 6 71.191 75.302 3.451 2.225 o
0 10 7 3.450 1.028 1.463 33.040 o
0 10 8 3.736 4.752 1.351 32.633 o
0 10 9 0.028 1.321 1.164 62.369 o
0 11 0 0.799 1.368 1.056 67.783 o
0 11 1 8.309 9.934 1.593 19.251 o
0 11 2 16.344 13.599 2.015 11.207 o
0 11 3 5.301 7.384 0.749 45.421 o
0 11 4 3.458 2.489 0.744 70.701 o
0 11 5 26.838 26.156 1.739 8.477 o
0 11 6 23.537 26.136 3.071 5.557 o
0 11 7 0.012 -1.077 0.680 196.102 o
1 -10 0 1.274 -0.196 0.865 96.582 o
1 -10 1 0.343 0.762 0.813 118.114 o
1 -10 2 0.382 -0.468 1.105 71.094 o
1 -9 0 13.641 13.926 1.065 19.389 o
1 -9 1 2.697 2.721 0.683 82.993 o
1 -9 2 30.523 34.102 1.728 7.244 o
1 -9 3 3.188 4.737 0.936 52.070 o
1 -9 4 2.190 1.675 0.901 71.168 o
1 -8 0 22.826 24.443 0.909 12.271 o
1 -8 1 53.455 48.373 1.301 4.597 o
1 -8 2 0.029 0.090 0.251 1231.560 o
1 -8 3 0.631 0.343 0.419 306.262 o
1 -8 4 12.343 15.037 1.233 18.436 o
1 -8 5 11.937 15.361 1.668 14.798 o
1 -8 6 10.990 12.253 1.385 18.914 o
1 -7 0 19.418 16.912 1.176 14.190 o
1 -7 1 116.612 110.521 2.255 1.460 o
1 -7 2 69.511 68.266 1.234 3.188 o
1 -7 3 0.013 0.130 0.269 1079.220 o
1 -7 4 3.759 2.462 0.619 78.293 o
1 -7 5 4.178 2.976 0.633 70.555 o
1 -7 6 9.586 5.939 1.176 26.420 o
1 -7 7 6.166 6.263 0.984 36.939 o
1 -6 0 0.303 0.073 0.160 1184.480 o
1 -6 1 167.561 162.489 2.820 0.819 o
1 -6 2 96.800 90.944 1.605 2.000 o
1 -6 3 5.364 5.198 0.669 53.013 o
1 -6 4 24.603 26.566 1.143 10.651 o
1 -6 5 37.514 37.554 1.272 6.756 o
1 -6 6 38.055 37.194 1.373 6.577 o
1 -6 7 6.754 5.972 0.739 43.013 o
1 -6 8 30.898 27.202 1.639 7.913 o
1 -5 0 16.767 15.319 0.798 18.366 o
1 -5 1 201.532 192.962 2.852 0.618 o
1 -5 2 33.638 30.305 0.844 8.588 o
1 -5 3 16.991 16.197 1.062 16.308 o
1 -5 4 0.009 -0.266 0.312 924.175 o
1 -5 5 29.452 32.441 1.015 8.981 o
1 -5 6 0.665 1.710 0.351 256.440 o
1 -5 7 1.538 1.626 0.354 187.331 o
1 -5 8 0.515 0.855 0.535 211.839 o
1 -5 9 10.126 12.531 1.468 18.517 o
1 -4 0 94.513 95.348 2.030 1.936 o
1 -4 1 702.548 734.029 8.606 0.063 o
1 -4 2 89.719 98.275 1.477 2.089 o
1 -4 3 31.163 37.156 1.118 7.999 o
1 -4 4 111.424 128.469 1.917 1.447 o
1 -4 5 0.975 0.124 0.207 454.262 o
1 -4 6 18.590 16.992 1.105 14.954 o
1 -4 7 0.003 -0.093 0.475 402.829 o
1 -4 8 14.906 13.094 0.899 20.076 o
1 -4 9 0.076 -0.135 0.492 359.340 o
1 -4 10 3.091 2.228 0.971 56.984 o
1 -3 0 2382.000 2256.920 19.410 0.007 o
1 -3 1 2.976 4.260 0.583 79.935 o
1 -3 2 492.731 530.722 5.375 0.121 o
1 -3 3 345.303 374.095 3.907 0.230 o
1 -3 4 256.930 227.500 2.748 0.435 o
1 -3 5 54.617 57.765 1.112 4.287 o
1 -3 6 9.586 5.436 0.457 40.889 o
1 -3 7 47.181 41.019 1.144 5.556 o
1 -3 8 0.066 -0.168 0.278 1044.800 o
1 -3 9 9.064 8.777 0.852 30.877 o
1 -3 10 0.744 1.969 0.680 125.240 o
1 -2 1 31.380 25.955 1.050 9.209 o
1 -2 2 249.643 265.540 2.608 0.415 o
1 -2 3 583.653 582.382 4.985 0.094 o
1 -2 4 133.582 178.040 2.039 1.008 o
1 -2 5 3.990 4.387 0.375 81.673 o
1 -2 6 0.824 0.471 0.227 427.519 o
1 -2 7 0.867 1.030 0.286 311.423 o
1 -2 8 3.890 1.745 0.401 100.718 o
1 -2 9 15.991 17.865 1.057 16.438 o
1 -2 10 0.648 1.080 0.534 195.132 o
1 -2 11 0.469 -1.346 0.607 206.824 o
1 -1 0 127.332 132.556 1.651 1.270 o
1 -1 1 301.095 266.187 4.578 0.318 o
1 -1 2 359.913 332.947 2.914 0.238 o
1 -1 3 350.839 365.696 3.094 0.232 o
1 -1 4 361.084 375.242 3.317 0.220 o
1 -1 5 46.983 55.003 1.182 4.915 o
1 -1 6 3.430 5.002 0.459 79.606 o
1 -1 7 16.994 12.142 0.744 19.794 o
1 -1 8 18.296 17.640 0.974 15.639 o
1 -1 9 19.146 19.297 0.948 14.863 o
1 -1 10 16.989 16.327 1.288 14.858 o
1 -1 11 0.445 -0.512 0.527 263.887 o
1 0 0 136.061 114.580 1.123 1.299 o
1 0 1 1234.620 1179.300 18.679 0.022 o
1 0 2 46.944 45.378 0.713 5.633 o
1 0 3 340.676 337.445 3.085 0.252 o
1 0 4 364.756 374.420 3.240 0.218 o
1 0 5 0.289 0.045 0.140 1363.590 o
1 0 6 15.479 14.876 1.307 15.899 o
1 0 7 43.123 41.785 1.163 5.926 o
1 0 8 21.270 18.305 0.921 14.177 o
1 0 9 4.504 4.891 0.614 61.609 o
1 0 10 16.720 17.930 1.558 12.998 o
1 0 11 5.445 5.439 1.122 35.508 o
1 0 12 0.024 0.260 0.639 211.105 o
1 1 1 15.656 17.011 0.317 20.849 o
1 1 2 1219.640 1201.710 9.757 0.023 o
1 1 3 810.992 761.806 7.928 0.052 o
1 1 4 529.445 522.950 5.447 0.112 o
1 1 5 13.786 9.496 0.843 23.504 o
1 1 6 215.643 207.022 3.487 0.541 o
1 1 7 171.721 164.620 2.402 0.809 o
1 1 8 70.787 69.837 1.763 2.945 o
1 1 9 0.553 0.137 0.328 450.642 o
1 1 10 12.905 9.213 1.132 21.416 o
1 1 11 0.042 0.388 0.657 194.588 o
1 1 12 11.779 9.716 1.484 18.172 o
1 2 0 55.860 74.237 0.619 3.860 o
1 2 1 58.394 59.857 0.671 4.128 o
1 2 3 333.207 318.378 3.245 0.266 o
1 2 4 3.919 2.959 0.286 98.159 o
1 2 5 35.242 34.560 0.938 7.759 o
1 2 6 36.379 40.031 1.279 6.734 o
1 2 7 128.240 120.173 2.289 1.277 o
1 2 8 124.450 129.492 2.834 1.221 o
1 2 9 26.413 25.380 1.137 10.324 o
1 2 10 4.196 4.433 1.033 43.778 o
1 2 11 11.133 9.554 1.359 20.145 o
1 2 12 7.861 6.562 2.673 10.154 o
1 3 0 283.606 253.625 2.231 0.371 o
1 3 1 214.021 177.563 1.462 0.628 o
1 3 2 70.028 77.633 1.088 3.017 o
1 3 3 505.087 483.182 3.683 0.127 o
1 3 4 92.110 80.115 1.242 2.275 o
1 3 5 6.575 5.714 0.526 50.720 o
1 3 6 7.842 10.213 0.712 34.496 o
1 3 7 0.084 0.220 0.207 1259.220 o
1 3 8 22.638 25.103 2.227 7.857 o
1 3 9 7.506 6.398 1.062 31.770 o
1 3 10 19.773 17.574 5.219 2.807 o
1 3 11 0.006 -0.582 0.562 286.921 o
1 3 12 5.955 7.392 1.631 21.585 o
1 4 0 152.168 162.479 2.048 0.937 o
1 4 1 639.680 643.129 4.505 0.080 o
1 4 2 175.091 185.057 1.873 0.760 o
1 4 3 147.901 159.906 1.877 0.979 o
1 4 4 552.035 582.626 4.906 0.101 o
1 4 5 293.638 302.297 3.031 0.318 o
1 4 6 291.641 292.789 3.141 0.326 o
1 4 7 332.833 349.417 5.502 0.240 o
1 4 8 10.578 9.468 0.957 26.192 o
1 4 9 35.672 34.422 2.007 6.078 o
1 4 10 5.014 2.944 0.900 49.629 o
1 4 11 12.949 12.697 4.213 4.321 o
1 4 12 1.062 0.426 0.676 139.825 o
1 5 0 52.779 50.559 1.233 4.606 o
1 5 1 18.983 19.190 0.609 16.399 o
1 5 2 95.625 110.552 1.428 1.859 o
1 5 3 425.567 445.121 4.676 0.161 o
1 5 4 500.611 497.399 5.849 0.123 o
1 5 5 37.296 39.713 1.051 6.900 o
1 5 6 317.000 326.719 3.639 0.276 o
1 5 7 146.845 147.783 2.378 1.004 o
1 5 8 18.353 18.075 0.983 15.438 o
1 5 9 0.014 -0.135 0.456 434.144 o
1 5 10 17.871 16.809 2.033 10.307 o
1 5 11 0.129 0.102 0.698 176.756 o
1 5 12 2.862 3.603 1.198 42.068 o
1 6 0 71.346 70.605 1.524 2.987 o
1 6 1 257.638 256.608 2.827 0.406 o
1 6 2 89.904 89.674 1.580 2.163 o
1 6 3 8.326 5.482 0.409 46.270 o
1 6 4 348.447 353.072 3.810 0.236 o
1 6 5 5.795 5.629 0.877 42.371 o
1 6 6 0.905 0.545 0.259 369.409 o
1 6 7 5.537 4.363 0.662 54.608 o
1 6 8 2.112 2.022 0.495 125.229 o
1 6 9 8.142 8.362 1.495 21.380 o
1 6 10 3.347 5.205 1.554 27.166 o
1 6 11 0.382 -0.724 0.928 99.028 o
1 6 12 0.407 -0.460 2.060 21.129 o
1 7 0 367.533 363.578 4.554 0.215 o
1 7 1 398.845 382.598 3.889 0.192 o
1 7 2 869.243 814.289 6.876 0.046 o
1 7 3 10.804 13.844 0.758 25.399 o
1 7 4 24.843 21.950 0.883 12.064 o
1 7 5 43.593 38.631 1.461 5.751 o
1 7 6 18.709 17.941 1.044 14.972 o
1 7 7 17.312 18.616 1.786 11.435 o
1 7 8 5.370 4.018 1.227 34.005 o
1 7 9 19.158 23.040 2.637 7.233 o
1 7 10 0.010 0.072 0.577 267.745 o
1 7 11 2.567 3.138 1.223 42.576 o
1 7 12 0.204 -0.208 0.918 104.059 o
1 8 0 352.989 344.842 3.736 0.236 o
1 8 1 360.467 347.176 4.716 0.225 o
1 8 2 73.343 68.236 1.794 2.873 o
1 8 3 81.541 78.439 1.854 2.452 o
1 8 4 27.925 25.814 1.080 10.007 o
1 8 5 116.255 116.888 2.290 1.423 o
1 8 6 22.184 24.390 1.342 11.041 o
1 8 7 4.806 3.141 0.762 57.397 o
1 8 8 34.558 34.198 3.035 4.587 o
1 8 9 5.585 8.326 2.988 8.665 o
1 8 10 33.483 35.952 3.491 3.998 o
1 8 11 9.071 9.374 1.654 18.148 o
1 9 0 74.982 75.582 2.058 2.620 o
1 9 1 77.142 73.104 2.320 2.511 o
1 9 2 27.073 29.460 1.152 9.592 o
1 9 3 44.349 41.047 1.369 5.644 o
1 9 4 13.003 15.155 1.414 16.383 o
1 9 5 10.065 11.919 0.925 25.658 o
1 9 6 4.569 5.842 0.983 42.193 o
1 9 7 69.290 74.612 10.346 0.673 o
1 9 8 10.219 9.235 1.840 15.534 o
1 9 9 69.173 71.607 3.902 2.129 o
1 9 10 1.788 2.284 1.384 38.447 o
1 10 0 3.177 2.700 0.660 79.812 o
1 10 1 15.615 18.481 1.305 14.896 o
1 10 2 0.006 -0.344 0.917 108.064 o
1 10 3 22.436 21.494 1.152 12.132 o
1 10 4 4.698 6.013 0.749 50.933 o
1 10 5 0.301 -0.035 0.539 270.637 o
1 10 6 6.722 6.324 0.948 36.488 o
1 10 7 1.450 3.320 1.000 61.492 o
1 10 8 28.386 30.591 4.419 3.233 o
1 10 9 19.380 16.911 2.248 9.033 o
1 11 0 0.003 -0.140 0.555 294.912 o
1 11 1 0.252 0.075 0.515 294.351 o
1 11 2 4.586 3.290 0.892 51.190 o
1 11 3 2.242 2.616 0.799 76.633 o
1 11 4 22.233 22.848 1.630 10.184 o
1 11 5 17.605 17.413 1.420 13.540 o
1 11 6 0.024 -0.725 0.860 122.316 o
1 11 7 3.926 4.876 2.013 17.998 o
1 11 8 2.533 2.966 3.711 6.319 o
2 -10 0 0.029 -0.299 0.454 432.149 o
2 -10 1 0.877 0.231 0.849 104.339 o
2 -10 2 20.487 23.441 2.980 6.131 o
2 -9 0 7.026 7.455 1.005 33.016 o
2 -9 1 5.790 8.495 0.819 39.694 o
2 -9 2 13.329 15.552 1.187 17.966 o
2 -9 3 0.159 -0.012 0.628 217.251 o
2 -9 4 6.362 3.934 0.856 44.123 o
2 -8 0 1.276 0.923 0.613 141.993 o
2 -8 1 15.737 14.731 1.224 16.397 o
2 -8 2 17.500 15.295 1.081 16.151 o
2 -8 3 1.480 2.227 0.579 123.964 o
2 -8 4 15.195 13.859 1.404 15.614 o
2 -8 5 3.577 2.218 0.785 67.555 o
2 -7 0 35.730 33.794 1.973 6.161 o
2 -7 1 5.614 4.413 0.687 53.021 o
2 -7 2 126.750 118.256 2.826 1.253 o
2 -7 3 16.602 13.696 0.908 18.402 o
2 -7 4 74.900 62.784 1.955 2.858 o
2 -7 5 27.913 27.279 1.680 8.330 o
2 -7 6 37.894 44.892 1.761 5.664 o
2 -7 7 17.478 14.218 1.757 12.236 o
2 -6 0 27.733 24.238 1.095 10.229 o
2 -6 1 124.143 109.510 2.351 1.370 o
2 -6 2 32.156 30.391 1.226 8.254 o
2 -6 3 291.424 264.991 3.666 0.340 o
2 -6 4 3.796 5.426 0.929 48.118 o
2 -6 5 20.909 22.288 1.237 12.206 o
2 -6 6 16.790 14.509 1.107 16.650 o
2 -6 7 2.133 2.009 0.588 109.758 o
2 -6 8 8.666 8.997 1.657 18.506 o
2 -5 0 63.816 62.285 1.810 3.350 o
2 -5 1 10.326 10.989 1.018 24.671 o
2 -5 2 0.630 0.159 0.221 582.588 o
2 -5 3 384.461 381.793 4.422 0.199 o
2 -5 4 320.146 326.157 4.493 0.267 o
2 -5 5 0.713 0.563 0.292 384.805 o
2 -5 6 1.137 1.689 0.382 202.542 o
2 -5 7 0.487 0.191 0.311 491.512 o
2 -5 8 1.418 1.249 0.542 150.048 o
2 -5 9 0.180 -0.235 0.699 176.159 o
2 -4 0 132.922 139.458 2.694 1.118 o
2 -4 1 82.596 85.723 1.813 2.339 o
2 -4 2 1.941 0.064 0.187 270.303 o
2 -4 3 7.961 8.545 0.705 36.387 o
2 -4 4 41.448 41.683 1.144 6.141 o
2 -4 5 0.949 1.636 0.369 224.243 o
2 -4 6 13.633 12.816 0.899 21.368 o
2 -4 7 10.267 12.407 0.906 25.316 o
2 -4 8 0.143 -0.350 0.409 482.610 o
2 -4 9 2.189 1.367 0.571 118.508 o
2 -4 10 19.740 20.881 3.334 5.470 o
2 -3 0 330.287 307.134 3.993 0.270 o
2 -3 1 588.879 625.042 9.067 0.084 o
2 -3 2 403.622 396.706 5.050 0.182 o
2 -3 3 0.877 4.355 0.404 143.575 o
2 -3 4 61.904 63.892 1.351 3.594 o
2 -3 5 18.368 16.043 0.765 17.153 o
2 -3 6 16.306 17.960 1.002 16.555 o
2 -3 7 0.237 0.555 0.302 538.456 o
2 -3 8 3.569 2.711 0.657 75.824 o
2 -3 9 8.576 6.802 0.835 34.250 o
2 -3 10 33.090 39.202 2.472 5.351 o
2 -2 0 1898.880 1758.160 14.493 0.010 o
2 -2 1 15.445 17.421 0.614 19.614 o
2 -2 2 50.372 48.719 1.068 4.963 o
2 -2 3 0.157 0.298 0.144 1353.490 o
2 -2 4 17.524 21.145 0.728 16.233 o
2 -2 5 58.997 57.772 1.069 4.029 o
2 -2 6 14.112 15.079 0.725 21.216 o
2 -2 7 0.876 0.240 0.279 396.947 o
2 -2 8 22.766 18.206 0.993 13.245 o
2 -2 9 0.112 -0.159 0.313 794.080 o
2 -2 10 7.640 5.911 0.786 38.966 o
2 -2 11 10.514 9.826 3.082 7.531 o
2 -1 0 606.954 579.212 4.788 0.090 o
2 -1 1 168.943 150.269 1.447 0.892 o
2 -1 2 3.780 4.389 0.307 88.034 o
2 -1 3 0.444 2.388 0.434 207.414 o
2 -1 4 6.819 4.339 0.523 53.056 o
2 -1 5 403.548 404.279 5.913 0.177 o
2 -1 6 1.243 2.368 0.375 177.277 o
2 -1 7 40.763 45.016 1.366 5.813 o
2 -1 8 86.206 86.249 2.436 2.108 o
2 -1 9 16.476 15.396 1.341 15.002 o
2 -1 10 0.046 -0.098 0.427 481.179 o
2 -1 11 0.107 0.176 0.903 107.585 o
2 0 0 32.194 22.808 0.426 10.371 o
2 0 1 7.846 5.578 0.258 50.799 o
2 0 2 1983.580 1864.980 23.718 0.009 o
2 0 3 1.837 3.979 0.373 124.340 o
2 0 4 222.302 223.779 3.358 0.505 o
2 0 5 68.216 75.440 2.278 2.752 o
2 0 6 142.217 152.899 2.198 1.028 o
2 0 7 43.704 46.710 1.231 5.549 o
2 0 8 46.009 49.120 1.780 4.765 o
2 0 9 0.001 -0.451 0.331 832.037 o
2 0 10 14.259 12.241 1.162 18.699 o
2 0 11 12.898 11.723 2.508 9.585 o
2 0 12 4.368 5.944 1.125 37.433 o
2 1 0 138.446 137.547 1.522 1.151 o
2 1 2 1354.870 1333.980 14.590 0.019 o
2 1 3 0.095 0.125 0.123 2336.970 o
2 1 4 230.052 228.497 2.575 0.494 o
2 1 5 509.894 521.681 4.787 0.118 o
2 1 6 49.525 45.672 1.235 5.058 o
2 1 7 133.415 135.834 2.151 1.167 o
2 1 8 36.720 36.731 1.722 6.278 o
2 1 9 27.798 25.113 1.667 8.590 o
2 1 10 18.456 18.463 2.062 9.846 o
2 1 11 1.316 1.634 0.506 156.191 o
2 1 12 4.528 4.182 1.871 20.008 o
2 2 0 1003.190 915.195 6.690 0.036 o
2 2 3 36.926 46.937 1.006 6.505 o
2 2 4 59.080 49.828 1.076 4.271 o
2 2 5 7.532 9.267 0.730 36.025 o
2 2 6 16.348 20.418 0.867 16.527 o
2 2 7 0.475 0.665 0.278 455.799 o
2 2 8 12.170 11.348 1.079 21.700 o
2 2 9 0.000 -0.076 0.308 958.217 o
2 2 10 0.153 0.129 0.399 474.014 o
2 2 11 0.296 -0.536 0.654 192.680 o
2 2 12 4.577 3.041 0.893 51.791 o
2 3 0 443.681 425.586 3.282 0.161 o
2 3 1 3216.220 3144.900 48.682 0.003 o
2 3 2 168.712 167.888 1.593 0.840 o
2 3 3 5.435 7.955 0.376 54.980 o
2 3 4 16.455 18.003 0.636 18.448 o
2 3 5 89.954 98.276 1.669 2.055 o
2 3 6 83.822 80.141 1.732 2.397 o
2 3 7 20.591 18.561 1.254 12.953 o
2 3 8 21.563 19.197 1.986 9.404 o
2 3 9 7.084 7.142 0.666 41.901 o
2 3 10 176.784 174.538 4.476 0.680 o
2 3 11 21.001 21.002 2.215 8.494 o
2 3 12 0.292 -0.836 0.768 143.596 o
2 4 0 17.815 11.849 0.558 20.267 o
2 4 1 150.296 171.004 1.561 0.939 o
2 4 2 1792.640 1874.770 10.263 0.011 o
2 4 3 24.076 24.499 0.629 12.508 o
2 4 4 1422.030 1463.840 10.316 0.017 o
2 4 5 224.736 240.174 2.892 0.488 o
2 4 6 23.859 25.451 0.848 11.883 o
2 4 7 23.611 24.034 1.036 11.674 o
2 4 8 15.474 12.864 1.786 12.991 o
2 4 9 126.659 130.079 2.970 1.187 o
2 4 10 86.771 90.288 3.188 1.876 o
2 4 11 1.275 3.227 1.059 58.099 o
2 4 12 3.536 3.199 1.047 47.907 o
2 5 0 111.943 126.792 1.518 1.483 o
2 5 1 523.656 569.730 4.299 0.109 o
2 5 2 234.519 252.342 2.216 0.461 o
2 5 3 115.008 131.465 1.596 1.412 o
2 5 4 69.111 85.187 1.422 2.835 o
2 5 5 115.366 111.809 1.850 1.508 o
2 5 6 6.940 7.372 0.562 44.639 o
2 5 7 21.598 23.022 0.884 13.115 o
2 5 8 7.163 8.656 0.942 32.945 o
2 5 9 1.387 1.356 0.415 186.453 o
2 5 10 5.909 3.888 0.985 40.975 o
2 5 11 3.017 5.441 1.887 20.391 o
2 5 12 4.993 3.697 1.151 37.815 o
2 6 0 4.094 4.014 0.353 83.899 o
2 6 1 82.183 91.114 1.537 2.338 o
2 6 2 540.427 526.590 4.258 0.110 o
2 6 3 59.282 61.783 1.189 3.850 o
2 6 4 0.403 0.292 0.213 708.573 o
2 6 5 0.014 0.493 0.191 1200.230 o
2 6 6 55.632 58.260 1.618 3.953 o
2 6 7 38.426 38.777 1.406 6.389 o
2 6 8 2.859 2.808 0.405 110.134 o
2 6 9 1.256 1.507 0.528 155.313 o
2 6 10 2.595 5.088 1.148 42.891 o
2 6 11 1.260 0.045 0.550 182.854 o
2 6 12 3.262 1.627 0.781 73.205 o
2 7 0 581.354 558.549 4.756 0.097 o
2 7 1 5.494 5.334 0.555 56.528 o
2 7 2 43.709 40.947 1.004 6.043 o
2 7 3 308.859 298.936 3.114 0.302 o
2 7 4 38.319 39.924 1.114 6.674 o
2 7 5 2.581 3.404 0.484 101.154 o
2 7 6 5.017 4.217 0.555 63.334 o
2 7 7 7.845 6.782 0.762 37.766 o
2 7 8 28.468 27.199 1.475 8.750 o
2 7 9 7.160 7.580 1.450 23.444 o
2 7 10 10.953 11.651 1.806 14.936 o
2 7 11 14.734 15.395 2.593 8.549 o
2 7 12 0.901 0.842 1.761 27.539 o
2 8 0 109.629 122.955 2.001 1.495 o
2 8 1 174.934 181.085 3.043 0.734 o
2 8 2 2.005 1.338 0.279 186.082 o
2 8 3 223.383 216.138 3.014 0.518 o
2 8 4 2.292 4.782 0.426 99.892 o
2 8 5 18.258 21.925 1.058 14.144 o
2 8 6 2.107 2.402 0.504 118.989 o
2 8 7 9.571 8.449 0.958 28.434 o
2 8 8 16.195 10.027 1.494 15.400 o
2 8 9 5.008 3.114 1.352 31.755 o
2 8 10 6.611 5.541 1.360 27.087 o
2 8 11 0.023 1.143 0.823 118.507 o
2 9 0 10.108 11.011 1.374 20.206 o
2 9 1 67.041 68.837 2.002 3.011 o
2 9 2 17.419 14.293 1.063 16.617 o
2 9 3 13.032 11.263 0.784 23.946 o
2 9 4 17.497 16.572 1.004 16.244 o
2 9 5 0.080 -0.447 0.415 494.871 o
2 9 6 0.173 -0.068 0.299 785.853 o
2 9 7 11.123 14.976 1.050 21.270 o
2 9 8 0.569 -0.112 0.550 233.799 o
2 9 9 1.085 0.464 0.660 142.886 o
2 9 10 0.771 0.614 0.901 93.332 o
2 9 11 14.636 13.147 2.053 11.531 o
2 10 0 4.531 4.106 0.671 61.082 o
2 10 1 0.376 0.716 0.460 281.937 o
2 10 2 21.725 19.123 1.235 12.496 o
2 10 3 5.152 4.418 0.570 60.963 o
2 10 4 8.308 11.410 1.017 27.105 o
2 10 5 7.112 6.986 0.859 37.033 o
2 10 6 14.965 12.698 1.336 16.597 o
2 10 7 11.391 11.091 1.307 19.922 o
2 10 8 36.955 37.927 4.293 3.014 o
2 10 9 28.095 35.369 3.019 4.987 o
2 10 10 0.244 3.334 1.698 28.638 o
2 11 0 0.229 -0.102 0.462 367.238 o
2 11 1 4.681 3.514 0.733 58.616 o
2 11 2 1.156 0.976 0.529 171.562 o
2 11 3 21.568 23.288 1.937 9.163 o
2 11 4 26.108 22.415 1.663 9.218 o
2 11 5 0.221 -0.781 0.442 397.056 o
2 11 6 61.650 74.785 4.312 2.071 o
2 11 7 21.415 21.949 3.192 5.620 o
2 11 8 138.293 157.815 6.149 0.755 o
2 12 4 6.485 7.792 1.498 23.182 o
3 -10 0 2.438 2.542 1.588 29.393 o
3 -10 1 12.157 14.122 2.925 7.680 o
3 -9 0 7.221 7.750 1.123 29.686 o
3 -9 1 7.168 8.320 1.739 18.689 o
3 -9 2 0.758 -0.560 0.461 278.117 o
3 -9 3 7.916 9.975 0.878 31.437 o
3 -8 0 5.349 4.998 0.880 44.956 o
3 -8 1 2.330 2.946 1.040 54.431 o
3 -8 2 8.089 6.795 0.930 33.227 o
3 -8 3 1.244 2.055 0.524 146.172 o
3 -8 4 11.092 10.006 0.905 25.833 o
3 -8 5 3.159 4.156 0.689 70.323 o
3 -7 0 116.626 114.831 4.920 1.102 o
3 -7 1 9.897 6.387 1.269 24.148 o
3 -7 2 159.911 142.278 6.004 0.714 o
3 -7 3 70.570 69.808 3.099 2.439 o
3 -7 4 77.860 79.673 3.468 2.046 o
3 -7 5 62.256 62.839 2.189 3.224 o
3 -7 6 15.978 16.102 1.397 14.701 o
3 -6 0 29.986 40.018 1.756 6.854 o
3 -6 1 152.511 126.810 3.303 0.980 o
3 -6 2 20.044 18.202 1.280 13.117 o
3 -6 3 36.025 33.105 1.516 6.914 o
3 -6 4 69.145 67.363 3.039 2.531 o
3 -6 5 5.079 6.140 0.834 45.603 o
3 -6 6 37.889 38.081 1.865 5.869 o
3 -6 7 0.282 -0.615 0.404 442.263 o
3 -5 0 2.911 2.288 0.444 110.082 o
3 -5 1 0.001 1.026 0.722 151.915 o
3 -5 2 103.284 101.337 2.326 1.693 o
3 -5 3 104.170 93.668 2.254 1.749 o
3 -5 4 119.246 114.735 2.377 1.392 o
3 -5 5 3.386 4.180 0.609 74.069 o
3 -5 6 9.234 10.619 0.883 28.459 o
3 -5 7 16.120 17.229 1.161 15.888 o
3 -5 8 14.592 16.956 1.529 14.253 o
3 -4 0 0.418 0.071 0.173 921.887 o
3 -4 1 13.515 14.031 0.818 21.598 o
3 -4 2 57.779 57.483 1.644 3.841 o
3 -4 3 133.541 118.057 2.440 1.225 o
3 -4 4 84.614 83.568 1.769 2.325 o
3 -4 5 1.882 1.804 0.358 163.456 o
3 -4 6 42.889 47.463 1.472 5.378 o
3 -4 7 14.155 15.583 1.119 17.931 o
3 -4 8 6.544 8.238 0.963 34.256 o
3 -4 9 1.815 1.178 0.767 95.075 o
3 -3 0 402.550 454.989 5.578 0.166 o
3 -3 1 110.012 106.858 1.769 1.622 o
3 -3 2 6.101 6.100 1.172 32.010 o
3 -3 3 23.743 22.587 0.918 12.247 o
3 -3 4 1.515 1.900 0.304 193.244 o
3 -3 5 15.781 14.474 0.899 18.790 o
3 -3 6 80.609 81.219 1.959 2.414 o
3 -3 7 13.506 15.782 1.362 16.342 o
3 -3 8 101.236 110.046 4.607 1.287 o
3 -3 9 1.321 1.618 0.649 121.799 o
3 -3 10 29.428 27.641 1.862 7.599 o
3 -2 0 373.537 390.759 4.591 0.202 o
3 -2 1 12.835 14.595 0.771 22.405 o
3 -2 2 1071.620 1104.250 15.569 0.028 o
3 -2 3 102.234 101.326 1.996 1.756 o
3 -2 4 1.797 2.028 0.384 156.832 o
3 -2 5 7.272 7.224 0.659 41.319 o
3 -2 6 11.623 9.901 1.204 21.454 o
3 -2 7 51.680 52.267 1.563 4.417 o
3 -2 8 57.375 56.808 1.502 3.957 o
3 -2 9 106.956 99.503 5.204 1.186 o
3 -2 10 80.669 91.706 5.263 1.427 o
3 -2 11 0.588 1.106 0.691 139.811 o
3 -1 0 127.249 117.045 2.227 1.308 o
3 -1 1 1.098 0.889 0.197 332.180 o
3 -1 2 151.120 142.506 1.884 1.017 o
3 -1 3 26.836 27.710 0.756 10.748 o
3 -1 4 5.272 6.432 0.427 59.117 o
3 -1 5 247.578 235.210 3.115 0.441 o
3 -1 6 6.427 7.619 0.650 43.787 o
3 -1 7 26.295 26.657 1.112 10.249 o
3 -1 8 21.187 17.949 1.204 13.067 o
3 -1 9 0.135 0.561 0.436 358.996 o
3 -1 10 0.070 -0.246 0.434 456.689 o
3 -1 11 0.010 1.066 0.484 287.719 o
3 0 0 1659.880 1614.490 11.109 0.013 o
3 0 1 443.579 396.621 3.832 0.166 o
3 0 2 13.480 17.534 0.512 21.960 o
3 0 3 182.540 201.043 2.831 0.671 o
3 0 4 385.516 391.691 4.893 0.194 o
3 0 5 428.105 478.436 5.745 0.150 o
3 0 6 24.965 25.944 0.989 11.059 o
3 0 7 0.030 -0.214 0.206 1930.570 o
3 0 8 54.258 52.560 1.776 4.103 o
3 0 9 16.679 15.085 2.056 10.702 o
3 0 10 11.231 11.618 1.367 19.171 o
3 0 11 1.073 1.202 0.548 163.652 o
3 0 12 0.058 0.034 0.772 149.927 o
3 1 0 92.691 87.703 1.044 2.195 o
3 1 1 222.689 218.700 1.815 0.535 o
3 1 2 416.576 460.856 3.505 0.164 o
3 1 3 1303.870 1333.360 10.094 0.020 o
3 1 4 313.066 323.817 3.397 0.282 o
3 1 5 124.551 140.076 2.163 1.227 o
3 1 6 175.511 180.420 2.671 0.746 o
3 1 7 12.953 16.179 1.231 17.632 o
3 1 8 176.187 179.650 2.798 0.740 o
3 1 9 13.767 15.521 1.162 17.878 o
3 1 10 15.829 17.521 1.722 12.434 o
3 1 11 2.051 1.857 0.597 111.529 o
3 1 12 9.655 7.022 1.168 25.751 o
3 2 0 474.922 428.459 3.463 0.147 o
3 2 1 536.236 546.210 3.713 0.110 o
3 2 2 551.654 529.758 3.802 0.108 o
3 2 3 10.191 10.241 0.429 33.181 o
3 2 4 29.417 33.186 0.977 8.974 o
3 2 5 3.002 2.451 0.338 118.055 o
3 2 6 12.902 11.507 1.121 20.497 o
3 2 7 24.808 27.465 1.062 10.684 o
3 2 8 0.007 0.061 0.309 897.771 o
3 2 9 23.015 23.691 1.146 11.575 o
3 2 10 17.763 18.730 1.768 11.375 o
3 2 11 21.450 18.700 1.529 11.387 o
3 2 12 1.035 1.428 0.632 136.523 o
3 3 0 0.287 7.461 0.943 60.145 o
3 3 1 795.179 739.671 4.745 0.056 o
3 3 2 59.404 53.940 0.791 4.220 o
3 3 3 381.780 377.856 3.216 0.206 o
3 3 4 162.566 169.738 2.054 0.855 o
3 3 5 100.357 92.750 1.662 1.907 o
3 3 6 21.203 24.247 0.913 12.928 o
3 3 7 11.491 11.413 0.825 25.354 o
3 3 8 26.972 32.437 1.289 8.961 o
3 3 9 8.003 11.585 0.907 29.298 o
3 3 10 28.381 24.718 1.727 8.356 o
3 3 11 34.248 34.018 2.910 4.792 o
3 3 12 32.284 33.773 1.919 6.660 o
3 4 0 330.488 356.649 3.238 0.252 o
3 4 1 2.924 3.080 0.252 120.003 o
3 4 2 1116.460 1173.690 7.462 0.027 o
3 4 3 1118.070 1175.250 7.394 0.027 o
3 4 4 824.357 829.276 6.118 0.049 o
3 4 5 20.048 21.530 0.742 14.664 o
3 4 6 1.622 2.235 0.319 173.873 o
3 4 7 1.883 1.666 0.330 172.813 o
3 4 8 12.393 11.719 0.870 23.552 o
3 4 9 28.325 30.488 1.514 8.365 o
3 4 10 83.251 90.694 3.161 1.939 o
3 4 11 21.578 16.335 1.564 11.560 o
3 4 12 6.170 5.393 1.019 36.987 o
3 5 0 454.735 474.665 5.144 0.143 o
3 5 1 85.782 97.084 1.286 2.217 o
3 5 2 32.215 46.550 0.854 7.359 o
3 5 3 9.502 11.892 0.705 29.541 o
3 5 4 4.246 6.792 0.511 61.660 o
3 5 5 14.030 13.254 0.700 22.417 o
3 5 6 0.270 0.826 0.242 561.082 o
3 5 7 112.460 109.001 1.988 1.551 o
3 5 8 10.776 8.897 0.753 29.257 o
3 5 9 3.590 4.553 0.696 64.741 o
3 5 10 10.319 6.894 1.060 26.747 o
3 5 11 30.721 32.222 2.724 5.413 o
3 5 12 29.719 21.393 2.481 6.506 o
3 6 0 65.954 70.271 1.485 3.217 o
3 6 1 10.057 10.817 0.528 31.758 o
3 6 2 92.971 96.080 1.271 2.070 o
3 6 3 64.152 62.235 1.076 3.618 o
3 6 4 0.261 0.258 0.168 1042.060 o
3 6 5 0.634 0.271 0.194 590.223 o
3 6 6 81.676 85.305 1.740 2.384 o
3 6 7 21.915 20.308 0.896 13.520 o
3 6 8 2.787 1.450 0.338 138.490 o
3 6 9 19.366 19.755 1.376 12.618 o
3 6 10 1.962 1.314 0.530 133.227 o
3 6 11 14.213 13.587 2.028 11.738 o
3 6 12 8.808 8.798 1.339 22.915 o
3 7 0 51.633 47.691 1.484 4.636 o
3 7 1 12.574 14.438 1.095 19.782 o
3 7 2 1.879 3.896 0.344 127.945 o
3 7 3 30.705 29.798 0.855 9.271 o
3 7 4 15.635 14.352 0.614 20.820 o
3 7 5 21.736 17.404 0.944 14.073 o
3 7 6 72.058 73.972 1.576 2.885 o
3 7 7 9.609 8.210 0.673 33.429 o
3 7 8 89.818 88.492 2.017 2.099 o
3 7 9 13.352 11.759 1.311 18.153 o
3 7 10 3.750 3.550 0.754 63.442 o
3 7 11 1.576 1.402 0.606 127.130 o
3 7 12 0.264 -0.624 0.570 249.530 o
3 8 0 3.620 3.308 0.587 77.805 o
3 8 1 7.056 7.682 0.605 42.606 o
3 8 2 8.079 9.744 0.618 36.207 o
3 8 3 16.539 18.007 0.817 17.455 o
3 8 4 0.241 -0.352 0.186 1282.730 o
3 8 5 8.127 10.345 0.719 33.560 o
3 8 6 90.019 73.912 1.976 2.266 o
3 8 7 13.824 14.717 1.543 15.037 o
3 8 8 6.167 4.953 0.937 40.249 o
3 8 9 19.982 19.461 2.313 8.451 o
3 8 10 7.873 11.138 1.699 17.823 o
3 8 11 1.816 2.419 1.117 53.119 o
3 9 0 15.730 19.480 1.721 12.147 o
3 9 1 1.169 0.200 0.324 305.103 o
3 9 2 2.272 2.791 0.456 117.362 o
3 9 3 1.234 1.260 0.301 242.133 o
3 9 4 6.109 6.815 0.559 49.332 o
3 9 5 89.715 83.737 1.783 2.199 o
3 9 6 0.963 0.758 0.344 281.964 o
3 9 7 3.387 3.301 0.567 82.102 o
3 9 8 0.664 0.975 0.694 138.525 o
3 9 9 1.319 3.307 1.052 58.147 o
3 9 10 0.001 -1.357 0.644 219.409 o
3 9 11 0.184 1.529 1.134 63.666 o
3 10 0 14.049 14.251 1.740 13.583 o
3 10 1 51.211 50.932 1.561 4.496 o
3 10 2 40.830 37.748 1.772 5.714 o
3 10 3 7.566 8.981 0.908 32.530 o
3 10 4 3.017 2.627 0.577 90.375 o
3 10 5 2.592 2.276 0.392 124.437 o
3 10 6 1.569 1.193 0.485 160.595 o
3 10 7 0.025 -0.137 0.380 613.617 o
3 10 8 15.186 16.540 1.854 12.036 o
3 10 9 17.578 14.632 2.091 10.357 o
3 10 10 3.171 2.712 1.179 43.438 o
3 11 0 0.609 1.809 1.337 45.092 o
3 11 1 154.577 147.844 2.763 0.934 o
3 11 2 0.226 -0.474 0.822 128.251 o
3 11 3 6.560 9.868 1.071 30.107 o
3 11 4 39.815 50.168 1.566 5.446 o
3 11 5 1.335 0.266 0.513 186.933 o
3 11 6 48.778 56.470 2.338 3.893 o
3 11 7 0.513 -0.153 1.258 54.791 o
3 11 8 16.270 18.687 2.417 8.749 o
3 12 3 27.271 30.580 1.966 7.455 o
3 12 4 0.025 -0.194 0.584 264.085 o
3 12 5 29.542 31.920 1.848 7.295 o
4 -9 0 0.828 0.694 0.555 186.807 o
4 -9 1 1.189 2.366 0.763 96.184 o
4 -9 2 27.271 28.489 2.409 6.550 o
4 -8 0 0.090 0.517 0.409 413.533 o
4 -8 1 6.878 7.756 1.183 28.930 o
4 -8 2 1.844 1.285 0.950 70.859 o
4 -8 3 27.606 38.026 2.073 6.674 o
4 -8 4 16.425 17.284 1.511 13.515 o
4 -7 0 331.934 306.892 6.384 0.250 o
4 -7 1 2.855 3.282 0.467 99.115 o
4 -7 2 57.870 48.582 2.571 3.478 o
4 -7 3 72.304 76.398 2.887 2.398 o
4 -7 4 3.400 2.714 0.599 82.683 o
4 -7 5 0.115 0.092 0.772 146.541 o
4 -7 6 0.371 0.326 0.601 205.812 o
4 -6 0 1.026 0.344 0.240 379.648 o
4 -6 1 20.356 17.738 1.275 13.109 o
4 -6 2 25.242 20.386 1.578 9.925 o
4 -6 3 27.372 24.113 1.736 8.576 o
4 -6 4 6.687 7.488 0.909 36.166 o
4 -6 5 0.635 0.026 0.586 206.250 o
4 -6 6 0.091 -0.347 0.440 438.527 o
4 -6 7 1.199 0.348 0.740 120.223 o
4 -5 0 3.122 3.300 0.389 101.587 o
4 -5 1 90.508 94.796 2.040 2.017 o
4 -5 2 3.675 3.250 0.531 81.915 o
4 -5 3 31.556 27.696 1.781 7.454 o
4 -5 4 0.494 -0.236 0.388 403.779 o
4 -5 5 2.566 2.465 0.713 82.987 o
4 -5 6 33.291 34.007 1.731 6.859 o
4 -5 7 6.567 6.193 1.034 34.642 o
4 -5 8 2.313 4.053 0.864 64.004 o
4 -4 0 0.359 0.430 0.205 705.662 o
4 -4 1 126.941 117.717 2.173 1.312 o
4 -4 2 1.560 0.519 0.255 265.307 o
4 -4 3 194.488 186.908 3.473 0.635 o
4 -4 4 37.511 35.532 1.470 6.623 o
4 -4 5 65.230 61.422 1.728 3.343 o
4 -4 6 67.202 70.627 2.004 2.972 o
4 -4 7 19.249 20.038 1.402 12.483 o
4 -4 8 8.831 8.920 1.193 25.163 o
4 -4 9 0.000 -0.291 1.225 60.622 o
4 -3 0 5.085 5.487 0.466 62.205 o
4 -3 1 94.494 86.132 1.778 2.070 o
4 -3 2 33.549 29.080 1.042 8.431 o
4 -3 3 16.954 15.926 1.415 14.175 o
4 -3 4 522.609 493.552 5.365 0.118 o
4 -3 5 535.386 529.573 5.365 0.110 o
4 -3 6 61.255 61.575 1.605 3.576 o
4 -3 7 2.317 2.811 0.631 93.332 o
4 -3 8 88.716 93.234 2.855 1.897 o
4 -3 9 38.604 35.098 2.102 5.605 o
4 -3 10 2.634 2.664 0.814 71.194 o
4 -2 0 407.888 406.147 4.043 0.181 o
4 -2 1 47.581 56.155 1.340 4.720 o
4 -2 2 93.945 105.472 1.837 1.884 o
4 -2 3 70.996 63.335 1.532 3.137 o
4 -2 4 21.000 20.601 1.396 11.803 o
4 -2 5 125.056 130.018 2.439 1.248 o
4 -2 6 79.803 78.035 1.926 2.486 o
4 -2 7 234.272 236.348 4.027 0.453 o
4 -2 8 191.499 196.553 4.106 0.608 o
4 -2 9 19.155 18.945 1.590 11.792 o
4 -2 10 24.020 22.284 2.862 6.145 o
4 -1 0 0.547 0.368 0.159 667.859 o
4 -1 1 839.869 856.721 6.257 0.047 o
4 -1 2 552.318 575.761 4.760 0.101 o
4 -1 3 367.586 362.651 3.832 0.218 o
4 -1 4 4.663 3.543 0.360 79.538 o
4 -1 5 0.258 0.638 0.199 716.882 o
4 -1 6 0.752 0.642 0.347 320.548 o
4 -1 7 12.597 12.765 0.983 21.605 o
4 -1 8 26.701 26.655 1.488 9.142 o
4 -1 9 0.182 0.265 0.502 303.586 o
4 -1 10 1.016 1.163 0.749 113.091 o
4 -1 11 1.652 1.099 0.999 68.103 o
4 0 0 97.471 109.616 1.283 1.850 o
4 0 1 1373.140 1395.640 11.585 0.018 o
4 0 2 1.854 8.999 0.486 73.504 o
4 0 3 108.400 122.988 1.644 1.544 o
4 0 4 178.221 207.003 2.533 0.684 o
4 0 5 11.207 9.544 0.708 28.588 o
4 0 6 42.703 45.507 2.383 4.528 o
4 0 7 4.791 6.030 0.701 52.464 o
4 0 8 0.047 -0.164 0.293 978.198 o
4 0 9 2.700 2.300 0.650 89.231 o
4 0 10 6.258 3.279 0.835 46.551 o
4 0 11 9.905 9.001 1.311 22.121 o
4 1 0 500.283 561.507 4.249 0.116 o
4 1 1 1766.070 1780.130 10.028 0.011 o
4 1 2 231.494 239.761 2.453 0.479 o
4 1 3 1840.570 1991.120 15.488 0.010 o
4 1 4 122.054 142.142 2.153 1.241 o
4 1 5 295.110 294.892 3.914 0.314 o
4 1 6 545.834 543.713 6.308 0.104 o
4 1 7 1.090 1.548 0.384 210.368 o
4 1 8 3.493 3.330 0.542 82.741 o
4 1 9 0.325 -0.043 0.544 263.772 o
4 1 10 47.879 54.728 2.983 3.466 o
4 1 11 0.040 0.385 0.545 274.052 o
4 1 12 1.995 1.058 1.018 63.858 o
4 2 0 43.302 48.303 1.087 5.624 o
4 2 1 81.052 73.617 1.095 2.700 o
4 2 2 19.639 31.156 0.664 12.873 o
4 2 3 145.344 128.120 1.678 1.125 o
4 2 4 3.816 4.779 0.469 76.023 o
4 2 5 19.250 17.953 0.752 16.051 o
4 2 6 101.937 108.532 2.048 1.697 o
4 2 7 70.990 79.537 1.852 2.746 o
4 2 8 10.263 11.814 0.933 25.368 o
4 2 9 32.529 33.515 2.041 6.419 o
4 2 10 0.131 0.239 0.452 376.076 o
4 2 11 3.945 4.844 1.012 44.883 o
4 2 12 0.110 0.698 0.636 191.951 o
4 3 0 0.049 0.268 0.145 1866.000 o
4 3 1 8.658 6.123 0.331 44.979 o
4 3 2 115.748 102.220 1.672 1.583 o
4 3 3 71.677 77.719 1.305 2.905 o
4 3 4 556.815 577.157 4.792 0.100 o
4 3 5 16.848 21.195 0.853 16.059 o
4 3 6 102.923 112.982 2.063 1.647 o
4 3 7 7.286 8.417 0.879 34.372 o
4 3 8 0.120 0.111 0.257 982.695 o
4 3 9 11.733 10.235 1.026 23.360 o
4 3 10 25.167 25.468 1.408 9.866 o
4 3 11 8.400 5.897 0.959 32.875 o
4 3 12 2.799 1.553 0.722 84.707 o
4 4 0 441.840 459.701 3.680 0.153 o
4 4 1 39.450 38.831 0.824 6.877 o
4 4 2 1102.230 1138.240 7.631 0.028 o
4 4 3 1269.380 1242.750 7.863 0.022 o
4 4 4 501.443 488.508 4.273 0.126 o
4 4 5 0.518 0.532 0.208 559.996 o
4 4 6 37.809 34.807 1.048 7.188 o
4 4 7 15.838 19.090 0.977 16.644 o
4 4 8 0.783 0.438 0.275 399.875 o
4 4 9 40.260 36.237 1.686 5.963 o
4 4 10 114.995 110.731 4.276 1.217 o
4 4 11 0.801 0.879 0.579 173.761 o
4 4 12 23.990 17.167 1.706 10.165 o
4 5 0 1.258 0.581 0.168 344.208 o
4 5 1 50.329 53.516 1.199 4.699 o
4 5 2 43.255 49.031 1.037 5.628 o
4 5 3 127.040 132.820 1.635 1.272 o
4 5 4 0.161 0.005 0.130 2178.660 o
4 5 5 20.767 17.812 0.942 14.451 o
4 5 6 29.920 34.787 1.050 8.574 o
4 5 7 59.355 63.238 1.534 3.662 o
4 5 8 116.275 110.816 2.175 1.471 o
4 5 9 331.926 339.888 5.017 0.247 o
4 5 10 19.401 17.010 1.563 12.164 o
4 5 11 189.865 199.431 5.140 0.572 o
4 5 12 3.846 3.666 0.947 50.908 o
4 6 0 229.797 242.676 3.040 0.472 o
4 6 1 58.876 59.426 1.182 3.943 o
4 6 2 1.493 1.710 0.254 214.325 o
4 6 3 54.666 57.582 0.988 4.344 o
4 6 4 9.118 7.745 0.456 38.777 o
4 6 5 1.643 1.300 0.262 216.555 o
4 6 6 5.395 4.876 0.502 60.712 o
4 6 7 0.698 0.703 0.333 336.362 o
4 6 8 36.696 36.686 1.501 6.609 o
4 6 9 1.824 0.750 0.437 172.474 o
4 6 10 42.410 41.318 2.209 4.889 o
4 6 11 0.283 0.631 0.490 274.766 o
4 6 12 23.821 23.659 1.905 8.788 o
4 7 0 21.523 23.392 1.043 12.516 o
4 7 1 1.955 2.838 0.432 128.521 o
4 7 2 27.094 23.050 1.115 10.518 o
4 7 3 18.714 22.811 0.699 15.182 o
4 7 4 13.726 16.729 0.625 21.457 o
4 7 5 1.816 3.139 0.391 134.727 o
4 7 6 35.701 42.086 1.270 6.697 o
4 7 7 15.896 12.883 0.980 18.724 o
4 7 8 45.942 43.063 1.571 5.208 o
4 7 9 21.079 22.949 1.408 11.349 o
4 7 10 1.883 3.108 0.940 64.335 o
4 7 11 6.486 7.238 0.976 35.200 o
4 7 12 8.277 7.838 1.322 24.285 o
4 8 0 2.356 1.922 0.547 112.152 o
4 8 1 0.270 -0.048 0.373 506.116 o
4 8 2 1.796 0.998 0.337 195.648 o
4 8 3 0.001 0.217 0.175 1930.880 o
4 8 4 138.923 118.181 1.698 1.224 o
4 8 5 15.696 13.821 0.714 20.392 o
4 8 6 7.161 4.621 0.547 49.914 o
4 8 7 118.556 108.444 2.582 1.414 o
4 8 8 0.113 0.699 0.383 419.836 o
4 8 9 0.645 0.287 0.520 233.029 o
4 8 10 3.904 3.753 1.026 46.438 o
4 8 11 4.817 5.236 1.258 32.928 o
4 9 0 4.232 3.805 0.719 61.350 o
4 9 1 12.735 10.702 1.216 19.983 o
4 9 2 5.646 6.325 0.837 43.083 o
4 9 3 24.800 21.012 0.730 12.671 o
4 9 4 1.060 1.373 0.379 221.654 o
4 9 5 16.968 16.953 0.851 17.334 o
4 9 6 21.984 14.571 0.997 14.402 o
4 9 7 4.620 4.408 0.600 63.218 o
4 9 8 0.789 0.635 0.583 179.122 o
4 9 9 3.536 3.618 1.211 39.507 o
4 9 10 0.265 0.891 0.778 127.581 o
4 9 11 3.569 4.703 1.428 30.632 o
4 10 0 3.570 4.143 1.793 22.196 o
4 10 1 0.391 0.349 0.767 135.079 o
4 10 2 43.645 50.875 3.332 3.422 o
4 10 3 3.176 5.853 0.641 66.390 o
4 10 4 18.607 16.703 0.881 16.210 o
4 10 5 1.009 -0.172 0.461 248.895 o
4 10 6 1.880 1.143 0.508 143.327 o
4 10 7 0.165 0.136 0.396 473.682 o
4 10 8 6.936 7.781 1.125 30.106 o
4 10 9 0.018 0.817 1.352 48.043 o
4 10 10 3.441 3.627 1.186 40.840 o
4 11 0 0.581 0.031 1.419 43.246 o
4 11 1 5.960 3.930 1.138 35.573 o
4 11 2 86.910 97.649 5.071 1.384 o
4 11 3 3.361 3.425 0.549 83.178 o
4 11 4 68.712 71.950 1.881 2.940 o
4 11 5 1.791 2.032 0.669 103.527 o
4 11 6 2.607 2.432 0.556 100.971 o
4 11 7 0.362 -0.811 0.405 415.804 o
4 11 8 3.722 7.484 1.104 37.842 o
4 12 4 0.689 2.359 1.478 36.820 o
4 12 5 9.546 8.732 2.107 13.489 o
5 -9 0 15.141 16.480 2.473 8.899 o
5 -8 0 0.631 0.895 0.482 229.909 o
5 -8 1 0.243 0.399 0.643 189.597 o
5 -8 2 0.063 0.113 0.557 277.220 o
5 -8 3 27.070 31.690 2.997 5.226 o
5 -7 0 5.229 3.086 0.675 59.628 o
5 -7 1 46.939 40.089 1.394 5.415 o
5 -7 2 5.088 2.866 0.820 53.467 o
5 -7 3 21.587 29.726 2.158 7.869 o
5 -7 4 3.141 1.114 0.641 92.475 o
5 -7 5 2.209 1.713 0.678 97.569 o
5 -6 0 123.028 103.709 2.346 1.415 o
5 -6 1 2.371 1.961 0.451 126.138 o
5 -6 2 0.450 1.639 0.587 169.166 o
5 -6 3 0.352 -0.115 0.593 224.960 o
5 -6 4 0.000 -0.648 0.465 421.595 o
5 -6 5 0.001 0.054 0.401 551.987 o
5 -6 6 0.736 0.506 0.539 206.326 o
5 -5 0 5.856 7.905 0.647 45.493 o
5 -5 1 55.203 49.617 1.538 4.288 o
5 -5 2 13.587 10.803 0.892 22.512 o
5 -5 3 22.152 21.231 1.719 10.069 o
5 -5 4 92.019 87.670 3.186 1.812 o
5 -5 5 1.555 2.006 0.701 102.865 o
5 -5 6 0.553 0.442 0.477 263.993 o
5 -5 7 3.060 3.626 1.218 40.547 o
5 -5 8 48.701 53.994 2.678 3.689 o
5 -4 0 92.225 95.540 1.878 2.004 o
5 -4 1 55.026 56.956 1.728 3.960 o
5 -4 2 3.155 2.883 0.513 92.984 o
5 -4 3 4.248 2.667 0.549 77.312 o
5 -4 4 20.852 19.120 1.491 11.678 o
5 -4 5 8.901 8.688 1.389 22.116 o
5 -4 6 0.541 -0.184 0.435 335.254 o
5 -4 7 21.161 28.246 1.953 8.701 o
5 -4 8 0.193 -0.300 0.480 350.764 o
5 -4 9 1.158 0.955 0.744 113.195 o
5 -3 0 12.116 11.786 0.881 23.714 o
5 -3 1 7.206 6.625 0.625 43.449 o
5 -3 2 221.156 225.010 3.175 0.510 o
5 -3 3 152.022 150.966 3.018 0.926 o
5 -3 4 135.891 139.311 3.305 1.049 o
5 -3 5 199.336 196.212 2.933 0.618 o
5 -3 6 293.064 290.589 5.164 0.307 o
5 -3 7 113.914 112.922 3.147 1.371 o
5 -3 8 2.741 4.149 0.877 59.879 o
5 -3 9 19.730 21.224 1.809 10.310 o
5 -2 0 45.951 49.161 1.234 5.218 o
5 -2 1 144.793 136.904 2.335 1.060 o
5 -2 2 20.084 19.639 0.982 14.165 o
5 -2 3 483.238 473.266 5.629 0.132 o
5 -2 4 218.054 213.684 3.278 0.530 o
5 -2 5 1121.830 1076.170 10.119 0.028 o
5 -2 6 342.270 335.726 4.668 0.243 o
5 -2 7 12.264 11.440 1.120 21.110 o
5 -2 8 15.089 12.592 1.657 14.092 o
5 -2 9 0.001 0.426 0.503 318.439 o
5 -2 10 0.956 2.472 0.803 92.841 o
5 -1 0 54.912 56.358 1.282 4.233 o
5 -1 1 350.453 359.296 4.140 0.230 o
5 -1 2 16.624 21.860 0.782 16.329 o
5 -1 3 109.433 115.936 1.952 1.548 o
5 -1 4 40.016 38.029 0.969 6.722 o
5 -1 5 79.148 75.382 1.611 2.623 o
5 -1 6 7.530 7.553 0.611 41.075 o
5 -1 7 63.983 66.688 1.810 3.250 o
5 -1 8 0.000 -0.378 0.290 1080.390 o
5 -1 9 0.897 0.595 0.359 293.113 o
5 -1 10 0.898 0.345 0.624 164.724 o
5 -1 11 4.240 5.171 1.131 38.570 o
5 0 0 25.912 31.535 0.697 10.562 o
5 0 1 11.638 16.977 0.707 22.946 o
5 0 2 182.406 208.705 2.350 0.669 o
5 0 3 26.774 26.096 0.986 10.506 o
5 0 4 86.410 94.749 1.511 2.196 o
5 0 5 8.516 9.302 0.709 34.033 o
5 0 6 0.667 0.659 0.268 407.654 o
5 0 7 7.971 8.638 0.778 34.740 o
5 0 8 10.753 10.166 1.212 22.061 o
5 0 9 14.308 12.664 1.968 12.229 o
5 0 10 0.825 1.870 0.682 123.970 o
5 0 11 13.267 11.953 1.427 17.067 o
5 1 0 463.284 477.527 4.080 0.141 o
5 1 1 1242.830 1300.800 10.026 0.022 o
5 1 2 12.495 8.448 0.507 29.582 o
5 1 3 628.460 652.578 4.959 0.080 o
5 1 4 141.876 145.335 2.157 1.061 o
5 1 5 28.229 29.739 1.212 9.154 o
5 1 6 5.294 5.395 0.564 57.166 o
5 1 7 31.163 27.501 1.189 8.810 o
5 1 8 21.807 20.906 1.452 11.263 o
5 1 9 2.032 2.420 0.911 68.350 o
5 1 10 47.196 46.109 2.790 3.853 o
5 1 11 1.923 1.745 0.754 91.099 o
5 1 12 9.274 7.383 3.445 6.497 o
5 2 0 150.939 138.513 2.145 1.020 o
5 2 1 0.849 2.307 0.253 245.533 o
5 2 2 133.728 135.162 2.110 1.170 o
5 2 3 32.422 32.576 0.845 8.602 o
5 2 4 1.322 1.564 0.251 236.311 o
5 2 5 92.107 101.337 1.722 1.973 o
5 2 6 3.863 2.308 0.368 98.998 o
5 2 7 133.175 119.516 2.856 1.186 o
5 2 8 2.215 1.905 0.413 138.080 o
5 2 9 1.099 0.719 0.594 158.192 o
5 2 10 0.663 0.959 0.704 135.797 o
5 2 11 21.016 23.059 2.405 7.701 o
5 2 12 5.852 5.930 1.294 29.472 o
5 3 0 163.941 160.906 2.483 0.856 o
5 3 1 20.089 20.446 0.703 15.062 o
5 3 2 13.716 12.720 0.562 24.123 o
5 3 3 27.493 26.291 0.654 10.951 o
5 3 4 24.202 21.031 0.903 12.413 o
5 3 5 17.942 14.932 0.778 17.762 o
5 3 6 43.545 50.208 1.368 5.283 o
5 3 7 51.128 52.657 1.405 4.546 o
5 3 8 50.653 52.866 1.796 4.302 o
5 3 9 6.425 4.196 0.743 47.501 o
5 3 10 0.042 -0.886 0.322 829.023 o
5 3 11 23.823 23.475 2.109 8.158 o
5 3 12 2.216 3.047 0.763 78.390 o
5 4 0 66.185 72.474 1.682 3.095 o
5 4 1 7.091 5.940 0.354 51.987 o
5 4 2 152.827 149.088 1.878 0.983 o
5 4 3 510.184 495.827 5.049 0.122 o
5 4 4 19.483 13.620 0.606 17.956 o
5 4 5 16.715 19.742 0.752 17.088 o
5 4 6 11.429 9.075 0.608 29.848 o
5 4 7 156.455 150.229 2.472 0.930 o
5 4 8 86.695 88.561 1.906 2.189 o
5 4 9 8.863 8.393 1.047 28.022 o
5 4 10 5.687 5.116 0.959 40.705 o
5 4 11 8.057 7.988 1.735 18.268 o
5 4 12 0.056 0.413 0.527 286.486 o
5 5 0 20.094 22.434 0.745 14.404 o
5 5 1 15.023 15.031 0.977 18.594 o
5 5 2 83.608 91.211 1.623 2.285 o
5 5 3 312.051 320.370 3.157 0.287 o
5 5 4 134.504 141.364 1.837 1.153 o
5 5 5 22.631 28.456 0.887 11.685 o
5 5 6 123.412 129.359 2.040 1.299 o
5 5 7 565.666 553.553 5.839 0.100 o
5 5 8 42.254 43.250 1.386 5.729 o
5 5 9 209.917 216.291 3.939 0.533 o
5 5 10 81.756 90.887 6.102 1.237 o
5 5 11 6.730 9.021 1.271 26.405 o
5 5 12 58.756 57.187 3.355 2.798 o
5 6 0 10.169 11.769 0.805 27.213 o
5 6 1 33.339 35.294 0.963 8.000 o
5 6 2 98.637 98.870 1.539 1.898 o
5 6 3 2.706 3.838 0.435 100.036 o
5 6 4 42.629 42.952 0.913 6.123 o
5 6 5 130.904 135.085 1.967 1.205 o
5 6 6 156.256 148.851 2.220 0.947 o
5 6 7 36.369 35.923 1.200 7.129 o
5 6 8 43.456 39.889 1.408 5.756 o
5 6 9 73.413 70.452 2.156 2.713 o
5 6 10 15.906 20.888 2.052 10.198 o
5 6 11 30.995 33.019 1.923 6.864 o
5 6 12 18.906 15.987 1.486 12.937 o
5 7 0 7.210 8.653 1.000 31.566 o
5 7 1 29.276 22.493 0.979 10.326 o
5 7 2 10.142 11.113 0.643 29.902 o
5 7 3 0.370 -0.342 0.187 999.674 o
5 7 4 28.945 35.240 0.819 9.105 o
5 7 5 36.936 29.672 0.864 7.983 o
5 7 6 1.794 1.602 0.299 186.520 o
5 7 7 10.592 8.836 0.699 30.414 o
5 7 8 9.345 7.748 0.805 32.173 o
5 7 9 0.247 -0.003 0.337 603.356 o
5 7 10 9.929 9.922 1.494 19.308 o
5 7 11 29.212 30.802 1.908 7.291 o
5 7 12 2.258 1.108 0.885 74.802 o
5 8 0 14.980 12.905 1.203 17.611 o
5 8 1 21.146 16.454 1.084 13.954 o
5 8 2 85.125 79.100 2.036 2.308 o
5 8 3 52.392 45.594 1.140 4.883 o
5 8 4 81.622 70.199 1.209 2.715 o
5 8 5 103.312 91.177 1.551 1.881 o
5 8 6 6.726 5.988 0.524 49.410 o
5 8 7 0.376 -0.036 0.257 740.387 o
5 8 8 36.496 33.508 1.603 6.686 o
5 8 9 11.777 17.901 1.507 15.547 o
5 8 10 13.931 11.548 1.445 16.629 o
5 8 11 6.837 6.677 0.987 34.734 o
5 9 0 7.224 5.604 1.321 27.050 o
5 9 1 25.287 20.837 2.355 7.408 o
5 9 2 5.686 3.320 0.776 51.487 o
5 9 3 3.050 0.723 0.504 116.481 o
5 9 4 39.521 32.613 1.315 6.762 o
5 9 5 1.177 1.275 0.283 254.558 o
5 9 6 0.570 0.041 0.251 597.337 o
5 9 7 6.250 7.333 0.657 44.766 o
5 9 8 2.814 4.485 0.659 74.290 o
5 9 9 10.067 11.001 1.133 23.398 o
5 9 10 23.606 19.538 1.539 10.598 o
5 9 11 14.412 19.524 1.911 11.488 o
5 10 0 0.002 0.308 0.782 143.341 o
5 10 1 0.007 -0.800 1.038 84.361 o
5 10 2 0.009 -0.414 0.528 324.197 o
5 10 3 7.604 7.700 1.306 25.465 o
5 10 4 18.594 18.581 1.730 11.337 o
5 10 5 17.851 17.148 0.869 16.600 o
5 10 6 31.029 30.299 1.225 8.483 o
5 10 7 12.572 11.990 0.968 22.170 o
5 10 8 1.564 1.494 0.704 107.118 o
5 10 9 11.002 10.165 1.733 15.950 o
5 10 10 11.825 13.546 2.593 9.193 o
5 11 0 8.051 3.900 3.680 6.003 o
5 11 1 19.190 17.635 2.614 7.653 o
5 11 2 1.266 -0.349 1.510 36.804 o
5 11 3 0.027 -1.447 1.478 41.554 o
5 11 4 4.950 3.398 0.858 50.936 o
5 11 5 0.251 -0.369 0.519 295.926 o
5 11 6 33.793 34.224 1.315 7.486 o
5 11 7 0.102 -0.790 0.552 284.189 o
5 11 8 0.724 0.232 0.532 221.875 o
6 -8 0 29.953 30.129 2.011 7.008 o
6 -8 1 2.094 1.866 0.924 68.901 o
6 -8 2 6.660 6.455 1.421 25.179 o
6 -7 0 39.880 47.308 1.597 5.544 o
6 -7 1 0.004 -0.109 0.441 465.383 o
6 -7 2 6.257 4.891 0.857 42.775 o
6 -7 3 12.894 12.518 1.675 14.952 o
6 -7 4 7.089 10.864 1.469 21.595 o
6 -6 0 44.260 49.888 2.196 4.474 o
6 -6 1 0.038 0.537 0.338 567.185 o
6 -6 2 2.833 2.634 0.749 75.519 o
6 -6 3 0.606 1.322 0.656 146.036 o
6 -6 4 0.001 -0.357 0.835 130.384 o
6 -6 5 26.639 33.701 1.984 7.278 o
6 -6 6 33.510 41.518 2.117 5.762 o
6 -5 0 3.602 4.429 0.575 73.147 o
6 -5 1 67.414 59.279 1.728 3.296 o
6 -5 2 0.000 -0.149 0.307 963.326 o
6 -5 3 4.569 4.026 0.971 45.900 o
6 -5 4 0.947 2.185 0.782 98.454 o
6 -5 5 23.148 27.919 1.766 8.941 o
6 -5 6 27.805 27.694 1.674 8.330 o
6 -5 7 0.032 -0.610 0.550 295.980 o
6 -4 0 0.452 0.616 0.263 493.698 o
6 -4 1 34.889 27.520 1.106 8.218 o
6 -4 2 62.065 53.313 1.754 3.669 o
6 -4 3 23.660 20.727 1.515 10.512 o
6 -4 4 0.811 1.094 0.530 186.768 o
6 -4 5 60.886 66.733 2.510 3.039 o
6 -4 6 15.319 17.309 1.743 12.527 o
6 -4 7 2.646 1.504 0.575 106.416 o
6 -4 8 6.790 6.492 1.250 28.587 o
6 -3 0 109.640 109.600 2.120 1.570 o
6 -3 1 158.197 159.880 2.590 0.886 o
6 -3 2 648.895 626.271 9.100 0.075 o
6 -3 3 0.509 1.414 0.441 239.728 o
6 -3 4 245.307 238.392 4.812 0.416 o
6 -3 5 19.064 18.575 1.721 11.247 o
6 -3 6 6.812 5.835 1.029 34.624 o
6 -3 7 13.181 14.977 1.674 14.273 o
6 -3 8 5.113 3.846 0.851 49.510 o
6 -3 9 0.079 -1.946 0.554 285.687 o
6 -2 0 70.753 70.587 1.573 2.994 o
6 -2 1 367.568 357.675 3.951 0.220 o
6 -2 2 23.902 21.437 0.992 12.170 o
6 -2 3 428.324 406.360 5.981 0.164 o
6 -2 4 103.247 95.209 2.422 1.725 o
6 -2 5 12.550 15.147 1.946 12.548 o
6 -2 6 9.970 11.372 1.161 22.927 o
6 -2 7 42.223 43.237 2.302 4.726 o
6 -2 8 5.075 6.154 0.999 39.578 o
6 -2 9 15.986 16.924 1.776 12.173 o
6 -2 10 1.210 2.049 0.804 92.076 o
6 -1 0 1.290 0.779 0.212 301.912 o
6 -1 1 170.972 161.489 2.383 0.821 o
6 -1 2 1.748 3.227 0.398 134.285 o
6 -1 3 206.389 194.340 2.707 0.604 o
6 -1 4 194.205 183.638 2.468 0.669 o
6 -1 5 172.247 176.174 3.696 0.729 o
6 -1 6 100.631 102.769 2.081 1.758 o
6 -1 7 47.652 49.343 1.764 4.651 o
6 -1 8 16.556 15.829 1.115 16.337 o
6 -1 9 7.491 9.087 1.490 21.721 o
6 -1 10 0.937 1.373 0.658 133.739 o
6 0 0 33.847 37.322 0.793 7.931 o
6 0 1 13.759 16.285 0.943 19.351 o
6 0 2 14.526 14.554 0.686 21.341 o
6 0 3 139.896 137.301 2.227 1.103 o
6 0 4 3.463 4.278 0.425 85.920 o
6 0 5 3.369 1.788 0.327 118.297 o
6 0 6 0.258 4.197 0.482 153.233 o
6 0 7 22.486 23.954 1.341 11.021 o
6 0 8 0.849 0.206 0.441 268.100 o
6 0 9 8.162 8.710 0.974 30.292 o
6 0 10 0.004 -0.285 0.754 160.043 o
6 0 11 2.832 1.365 0.615 98.743 o
6 1 0 14.011 11.882 0.873 21.691 o
6 1 1 81.890 89.034 1.663 2.347 o
6 1 2 2.417 4.955 0.441 94.933 o
6 1 3 644.450 641.761 5.106 0.078 o
6 1 4 22.215 22.614 0.813 13.169 o
6 1 5 15.268 12.778 0.809 20.593 o
6 1 6 1.432 3.539 0.706 91.739 o
6 1 7 35.329 33.552 1.228 7.429 o
6 1 8 65.873 64.972 2.036 3.112 o
6 1 9 5.000 4.834 0.982 42.467 o
6 1 10 1.834 1.598 0.667 107.037 o
6 1 11 1.575 0.582 0.589 144.054 o
6 2 0 12.828 14.148 0.601 24.046 o
6 2 1 3.488 5.734 0.486 73.484 o
6 2 2 173.459 193.367 2.769 0.724 o
6 2 3 24.757 27.769 0.827 11.239 o
6 2 4 102.078 92.280 1.839 1.856 o
6 2 5 17.130 16.411 0.913 17.053 o
6 2 6 1.697 0.991 0.323 206.807 o
6 2 7 19.492 13.685 1.528 12.919 o
6 2 8 3.411 2.356 0.547 89.702 o
6 2 9 17.985 14.530 1.440 13.875 o
6 2 10 27.805 29.951 2.815 5.576 o
6 2 11 0.420 -0.242 0.593 218.783 o
6 2 12 22.426 22.364 4.089 3.958 o
6 3 0 55.431 58.206 1.570 3.992 o
6 3 1 58.259 59.804 1.202 3.959 o
6 3 2 81.850 83.983 1.831 2.376 o
6 3 3 33.408 35.575 1.087 7.788 o
6 3 4 1.513 2.311 0.285 185.121 o
6 3 5 0.013 -0.164 0.177 2728.850 o
6 3 6 0.217 3.464 0.446 183.109 o
6 3 7 6.498 6.011 0.644 46.806 o
6 3 8 24.700 26.994 1.655 9.055 o
6 3 9 44.690 46.139 2.277 4.488 o
6 3 10 15.676 14.379 3.107 6.663 o
6 3 11 11.416 12.441 1.597 16.418 o
6 3 12 1.383 0.632 0.913 83.286 o
6 4 0 6.635 4.358 0.549 53.096 o
6 4 1 97.783 96.220 1.466 1.948 o
6 4 2 163.026 166.432 2.298 0.853 o
6 4 3 85.482 87.235 1.618 2.289 o
6 4 4 239.776 250.642 2.812 0.446 o
6 4 5 233.701 227.495 2.716 0.485 o
6 4 6 342.737 350.545 3.724 0.242 o
6 4 7 32.838 33.328 1.232 7.856 o
6 4 8 69.621 78.138 2.241 2.681 o
6 4 9 9.703 8.206 0.924 28.983 o
6 4 10 1.481 1.212 0.612 131.123 o
6 4 11 5.272 6.630 1.336 28.807 o
6 4 12 5.014 5.465 1.177 34.758 o
6 5 0 0.092 0.304 0.242 953.032 o
6 5 1 9.931 9.022 0.463 34.806 o
6 5 2 107.373 111.237 2.103 1.592 o
6 5 3 26.659 25.532 1.154 10.193 o
6 5 4 205.274 200.166 2.847 0.595 o
6 5 5 1678.490 1604.660 10.591 0.013 o
6 5 6 2.353 3.811 0.460 104.219 o
6 5 7 462.919 452.022 4.615 0.145 o
6 5 8 40.322 37.029 1.375 6.303 o
6 5 9 5.114 3.172 0.750 56.126 o
6 5 10 24.870 24.417 1.416 10.047 o
6 5 11 3.231 3.801 0.894 56.796 o
6 5 12 0.133 0.665 0.623 198.462 o
6 6 0 13.015 15.372 1.281 17.435 o
6 6 1 6.783 5.337 0.533 50.426 o
6 6 2 9.778 11.984 0.658 29.578 o
6 6 3 2.162 16.247 0.961 35.158 o
6 6 4 663.532 651.870 5.763 0.075 o
6 6 5 70.269 63.708 1.281 3.238 o
6 6 6 17.367 34.422 1.094 11.845 o
6 6 7 43.515 43.584 1.258 5.703 o
6 6 8 5.326 6.108 0.652 51.568 o
6 6 9 6.248 5.947 0.698 46.234 o
6 6 10 8.677 9.728 1.024 27.683 o
6 6 11 1.696 2.170 0.796 85.751 o
6 6 12 3.140 2.523 1.252 40.378 o
6 7 0 0.388 0.273 0.328 486.477 o
6 7 1 0.000 0.512 0.235 971.200 o
6 7 2 2.533 3.510 0.401 110.033 o
6 7 3 33.018 29.537 1.246 8.136 o
6 7 4 26.765 26.601 1.017 10.364 o
6 7 5 72.475 68.773 1.391 3.017 o
6 7 6 0.001 0.148 0.246 1265.710 o
6 7 7 63.270 65.883 1.579 3.393 o
6 7 8 73.136 80.714 2.071 2.595 o
6 7 9 4.109 5.210 0.684 59.506 o
6 7 10 0.006 -0.542 0.376 638.070 o
6 7 11 2.713 3.857 0.749 70.861 o
6 8 0 39.052 35.176 2.520 4.974 o
6 8 1 72.895 66.343 2.062 2.828 o
6 8 2 172.305 163.260 2.779 0.796 o
6 8 3 71.704 62.353 1.471 3.148 o
6 8 4 0.299 0.285 0.257 684.308 o
6 8 5 14.406 10.317 0.782 22.922 o
6 8 6 0.022 -0.166 0.240 1498.390 o
6 8 7 9.744 9.118 0.717 31.502 o
6 8 8 0.248 0.643 0.343 445.608 o
6 8 9 0.853 0.758 0.423 248.369 o
6 8 10 7.645 7.812 1.473 22.446 o
6 8 11 0.372 0.834 0.480 260.131 o
6 9 0 9.326 10.072 1.792 16.253 o
6 9 1 17.733 15.083 1.323 14.582 o
6 9 2 16.245 13.557 1.271 16.104 o
6 9 3 0.422 4.829 0.749 91.204 o
6 9 4 0.148 0.693 0.352 458.451 o
6 9 5 0.297 -0.294 0.445 374.727 o
6 9 6 2.272 3.012 0.415 120.214 o
6 9 7 0.000 -0.710 0.309 952.297 o
6 9 8 9.602 10.719 0.965 26.563 o
6 9 9 1.442 2.078 0.553 132.450 o
6 9 10 26.123 23.865 1.726 8.873 o
6 10 0 8.371 5.804 1.651 19.944 o
6 10 1 0.301 -0.133 1.484 40.454 o
6 10 2 0.040 0.666 0.838 119.855 o
6 10 3 14.206 15.213 1.622 14.161 o
6 10 4 5.655 5.458 0.770 47.081 o
6 10 5 5.495 6.522 0.882 41.724 o
6 10 6 2.188 1.997 0.358 146.804 o
6 10 7 14.700 11.744 1.013 19.869 o
6 10 8 5.210 6.542 0.812 45.169 o
6 10 9 14.231 15.882 1.181 17.294 o
6 11 1 0.303 0.790 1.321 49.153 o
6 11 2 3.026 3.289 1.338 36.124 o
6 11 3 0.802 2.498 3.696 6.512 o
6 11 4 1.366 1.996 0.960 70.821 o
6 11 5 0.202 -0.530 0.554 269.815 o
6 11 6 5.888 3.520 0.852 46.864 o
6 11 7 0.026 -0.186 0.575 271.600 o
6 11 8 4.021 3.271 1.887 20.452 o
7 -7 0 0.942 2.976 0.731 100.228 o
7 -7 1 4.997 3.045 0.641 63.221 o
7 -7 2 8.105 11.579 1.227 23.908 o
7 -6 0 0.708 0.950 0.484 219.706 o
7 -6 1 0.286 0.175 0.649 190.309 o
7 -6 2 23.837 27.664 1.876 8.497 o
7 -6 3 0.025 -0.014 0.628 228.379 o
7 -6 4 38.119 48.262 2.957 4.091 o
7 -5 0 6.803 8.905 0.870 35.132 o
7 -5 1 13.277 11.564 1.115 20.203 o
7 -5 2 9.169 8.143 0.874 30.868 o
7 -5 3 16.997 18.272 3.484 5.414 o
7 -5 4 5.335 4.825 1.002 40.690 o
7 -5 5 17.878 21.841 1.800 10.752 o
7 -5 6 0.310 -0.107 1.026 82.752 o
7 -4 0 44.989 42.825 1.503 5.368 o
7 -4 1 2.311 0.959 0.504 133.155 o
7 -4 2 55.732 52.769 1.701 4.057 o
7 -4 3 54.215 55.745 2.673 3.411 o
7 -4 4 15.739 16.561 2.064 10.709 o
7 -4 5 2.462 1.407 0.697 93.365 o
7 -4 6 1.475 0.336 0.656 133.511 o
7 -4 7 0.094 -1.222 0.521 318.760 o
7 -3 0 262.769 257.583 5.489 0.362 o
7 -3 1 0.087 0.145 0.256 1014.070 o
7 -3 2 114.686 112.909 2.451 1.447 o
7 -3 3 16.803 17.190 1.449 13.754 o
7 -3 4 11.174 9.309 1.099 23.563 o
7 -3 5 15.012 15.780 1.684 13.291 o
7 -3 6 1.279 1.663 0.682 115.426 o
7 -3 7 1.325 0.960 0.671 125.327 o
7 -3 8 6.479 5.282 1.067 34.955 o
7 -2 0 26.376 27.401 1.101 10.154 o
7 -2 1 206.917 202.989 3.009 0.582 o
7 -2 2 165.196 160.101 2.648 0.844 o
7 -2 3 0.864 1.076 0.422 232.161 o
7 -2 4 4.719 6.263 0.899 44.209 o
7 -2 5 0.149 -0.749 0.387 529.243 o
7 -2 6 1.873 1.790 0.680 102.482 o
7 -2 7 3.249 2.645 0.948 56.480 o
7 -2 8 0.003 0.672 0.588 229.333 o
7 -2 9 1.245 0.697 0.718 119.951 o
7 -1 0 130.018 126.110 1.968 1.255 o
7 -1 1 125.862 123.415 1.965 1.310 o
7 -1 2 116.372 105.004 2.082 1.516 o
7 -1 3 210.807 208.337 2.981 0.563 o
7 -1 4 1.314 0.733 0.370 231.223 o
7 -1 5 3.677 4.065 0.610 71.735 o
7 -1 6 132.361 132.322 2.827 1.142 o
7 -1 7 50.980 49.825 1.842 4.344 o
7 -1 8 0.005 0.021 0.731 169.302 o
7 -1 9 1.699 1.251 0.684 110.371 o
7 -1 10 2.641 2.975 1.070 50.954 o
7 0 0 5.157 5.567 0.589 56.461 o
7 0 1 91.000 87.564 1.475 2.179 o
7 0 2 5.287 4.852 0.409 65.284 o
7 0 3 1.510 1.510 0.317 203.169 o
7 0 4 25.663 27.765 0.988 10.581 o
7 0 5 24.231 29.652 1.132 10.351 o
7 0 6 77.583 86.527 2.290 2.336 o
7 0 7 49.241 49.852 1.783 4.505 o
7 0 8 37.864 37.082 2.148 5.516 o
7 0 9 1.605 0.620 0.503 166.779 o
7 0 10 0.121 0.313 0.590 233.153 o
7 1 0 65.948 67.541 1.708 3.193 o
7 1 1 117.695 116.902 2.056 1.429 o
7 1 2 14.420 15.183 1.074 18.243 o
7 1 3 9.312 7.025 0.549 37.755 o
7 1 4 3.717 3.454 0.429 87.765 o
7 1 5 27.698 26.480 1.024 10.109 o
7 1 6 177.084 161.887 2.732 0.778 o
7 1 7 42.388 39.393 1.592 5.692 o
7 1 8 54.457 52.478 4.054 2.562 o
7 1 9 2.182 2.264 0.723 88.003 o
7 1 10 5.475 5.041 1.187 33.910 o
7 1 11 0.025 0.531 0.643 198.763 o
7 2 0 116.205 114.482 2.198 1.447 o
7 2 1 60.679 59.486 1.511 3.700 o
7 2 2 90.366 92.493 1.899 2.068 o
7 2 3 12.330 13.576 0.828 22.988 o
7 2 4 5.984 3.395 0.377 66.730 o
7 2 5 137.685 113.213 2.275 1.221 o
7 2 6 9.600 7.803 0.787 31.935 o
7 2 7 52.925 40.930 1.607 4.699 o
7 2 8 28.057 23.450 1.439 9.333 o
7 2 9 22.496 22.284 1.685 9.984 o
7 2 10 12.801 9.832 1.383 18.498 o
7 2 11 3.200 2.864 0.911 58.640 o
7 3 0 18.282 13.633 0.603 18.885 o
7 3 1 7.788 6.766 0.682 39.855 o
7 3 2 9.501 7.150 0.574 36.639 o
7 3 3 22.816 17.259 0.992 13.429 o
7 3 4 5.215 4.527 0.447 65.576 o
7 3 5 0.009 -0.466 0.191 2402.990 o
7 3 6 6.652 6.370 0.613 46.358 o
7 3 7 133.506 129.294 2.597 1.163 o
7 3 8 8.280 6.256 1.162 28.347 o
7 3 9 4.261 6.083 1.159 36.357 o
7 3 10 3.792 5.310 1.064 42.338 o
7 3 11 5.172 5.037 0.917 44.104 o
7 4 0 3.694 5.496 0.695 60.697 o
7 4 1 347.007 359.326 3.906 0.234 o
7 4 2 14.158 13.631 0.871 20.729 o
7 4 3 236.927 240.794 3.081 0.458 o
7 4 4 187.986 178.505 2.817 0.693 o
7 4 5 3.334 2.568 0.393 104.103 o
7 4 6 1.562 1.249 0.355 197.307 o
7 4 7 41.304 43.900 1.504 5.671 o
7 4 8 0.327 0.144 0.349 498.995 o
7 4 9 24.567 21.499 1.657 9.685 o
7 4 10 1.746 2.377 0.733 91.945 o
7 4 11 0.228 0.457 0.514 272.719 o
7 5 0 100.406 102.638 2.476 1.703 o
7 5 1 6.430 8.283 0.501 46.327 o
7 5 2 215.374 208.782 3.148 0.546 o
7 5 3 672.485 650.655 6.056 0.073 o
7 5 4 0.304 0.111 0.270 713.664 o
7 5 5 233.296 225.236 2.796 0.487 o
7 5 6 34.879 37.562 1.073 7.399 o
7 5 7 11.094 11.950 0.866 25.043 o
7 5 8 72.347 79.294 2.050 2.646 o
7 5 9 5.050 6.248 0.757 48.464 o
7 5 10 10.654 9.777 1.194 22.599 o
7 5 11 0.005 -0.171 0.499 364.740 o
7 6 0 0.086 -0.006 0.219 1493.850 o
7 6 1 0.694 1.107 0.276 341.948 o
7 6 2 120.586 125.347 2.061 1.348 o
7 6 3 20.188 17.522 0.935 14.846 o
7 6 4 3.727 2.992 0.473 87.474 o
7 6 5 202.954 188.930 3.039 0.615 o
7 6 6 2.984 3.025 0.382 107.615 o
7 6 7 3.370 3.372 0.483 88.951 o
7 6 8 15.127 16.166 1.106 17.183 o
7 6 9 13.501 13.410 1.167 18.783 o
7 6 10 7.770 6.604 0.790 37.542 o
7 6 11 4.594 4.287 0.810 52.875 o
7 7 0 11.279 13.665 1.330 18.766 o
7 7 1 11.790 12.279 0.817 24.501 o
7 7 2 70.572 73.428 1.930 2.834 o
7 7 3 40.374 44.350 1.391 5.863 o
7 7 4 132.879 129.884 2.345 1.185 o
7 7 5 41.398 45.329 1.424 5.672 o
7 7 6 12.894 15.777 0.678 22.452 o
7 7 7 60.998 63.967 1.756 3.463 o
7 7 8 0.442 -0.086 0.377 434.475 o
7 7 9 0.109 -0.301 0.636 216.372 o
7 7 10 1.250 1.653 0.590 136.748 o
7 7 11 0.258 -0.248 0.510 304.312 o
7 8 0 49.830 49.695 1.410 4.748 o
7 8 1 2.365 2.467 0.622 96.436 o
7 8 2 5.390 7.258 0.826 42.717 o
7 8 3 2.726 3.220 0.645 83.492 o
7 8 4 3.979 5.923 0.607 62.040 o
7 8 5 0.879 0.661 0.343 301.649 o
7 8 6 55.438 54.784 1.819 3.943 o
7 8 7 3.816 2.374 0.439 93.411 o
7 8 8 16.237 17.301 1.161 15.796 o
7 8 9 0.673 0.519 0.355 339.792 o
7 8 10 11.458 10.168 1.164 21.972 o
7 9 0 1.715 1.000 0.706 108.674 o
7 9 1 7.777 10.577 1.488 20.839 o
7 9 2 3.005 3.122 0.532 91.516 o
7 9 3 6.358 6.934 0.835 39.878 o
7 9 4 0.083 0.032 0.681 190.050 o
7 9 5 0.708 -0.000 0.393 347.257 o
7 9 6 2.485 1.366 0.417 137.404 o
7 9 7 1.236 0.577 0.320 271.665 o
7 9 8 12.434 13.530 1.001 21.215 o
7 9 9 18.034 22.919 1.413 12.350 o
7 9 10 16.023 16.417 1.402 14.573 o
7 10 0 3.389 5.895 1.388 31.109 o
7 10 1 11.992 12.026 1.450 17.621 o
7 10 2 1.794 2.053 1.488 34.354 o
7 10 3 1.421 3.317 1.950 21.270 o
7 10 4 3.130 1.756 1.069 51.581 o
7 10 5 0.563 0.342 0.385 350.633 o
7 10 6 12.401 15.254 1.284 17.854 o
7 10 7 14.887 18.177 1.751 12.474 o
7 10 8 5.284 6.757 0.728 47.476 o
7 10 9 20.647 20.268 1.303 12.388 o
7 11 3 6.399 7.143 2.107 15.037 o
7 11 4 0.230 -0.614 3.192 8.896 o
7 11 5 15.934 16.700 3.034 6.744 o
7 11 6 24.345 26.187 2.084 7.928 o
8 -6 0 3.161 3.936 0.702 70.306 o
8 -6 1 0.672 -0.525 0.510 251.028 o
8 -6 2 0.001 -0.296 0.598 254.382 o
8 -5 0 1.535 1.557 0.521 145.243 o
8 -5 1 0.001 -0.461 0.571 278.553 o
8 -5 2 33.847 44.730 2.251 5.385 o
8 -5 3 9.177 9.304 1.177 24.762 o
8 -5 4 2.983 2.235 0.842 67.596 o
8 -5 5 1.628 -1.221 1.069 65.357 o
8 -4 0 12.867 12.542 1.132 19.969 o
8 -4 1 19.035 21.698 1.475 11.923 o
8 -4 2 32.946 31.353 1.620 7.300 o
8 -4 3 0.469 -1.325 0.942 94.850 o
8 -4 4 0.000 0.056 0.479 389.597 o
8 -4 5 0.465 1.225 0.808 111.288 o
8 -4 6 18.931 27.252 2.642 6.989 o
8 -3 0 12.273 12.192 0.986 22.183 o
8 -3 1 7.512 6.722 0.751 39.051 o
8 -3 2 6.185 5.709 0.774 44.392 o
8 -3 3 0.772 0.346 0.658 157.708 o
8 -3 4 18.367 16.841 1.814 11.245 o
8 -3 5 17.081 17.735 1.560 12.884 o
8 -3 6 8.972 7.193 1.374 23.029 o
8 -3 7 1.812 0.824 0.703 108.862 o
8 -2 0 8.155 9.911 0.791 32.669 o
8 -2 1 17.048 15.171 0.926 17.444 o
8 -2 2 16.363 15.366 1.103 16.670 o
8 -2 3 20.347 19.968 1.613 11.159 o
8 -2 4 10.853 12.518 1.246 20.472 o
8 -2 5 42.439 49.454 1.940 4.872 o
8 -2 6 9.279 10.264 1.418 20.658 o
8 -2 7 3.591 4.809 0.994 47.111 o
8 -2 8 20.869 25.441 3.951 4.159 o
8 -1 0 591.737 584.222 5.584 0.092 o
8 -1 1 38.993 36.736 1.272 6.614 o
8 -1 2 0.332 -0.284 0.238 851.921 o
8 -1 3 43.392 44.258 1.552 5.403 o
8 -1 4 0.002 -0.109 0.321 878.698 o
8 -1 5 4.319 4.394 0.560 67.832 o
8 -1 6 1.263 1.195 0.493 172.432 o
8 -1 7 42.399 42.514 2.389 4.641 o
8 -1 8 9.226 7.180 1.120 27.069 o
8 -1 9 0.619 0.782 0.737 130.677 o
8 0 0 91.393 90.685 2.109 2.027 o
8 0 1 15.846 20.446 1.318 14.239 o
8 0 2 3.087 1.942 0.323 123.979 o
8 0 3 0.402 0.063 0.330 522.098 o
8 0 4 8.075 7.800 0.672 37.761 o
8 0 5 31.384 29.529 1.158 8.616 o
8 0 6 0.828 0.323 0.362 323.310 o
8 0 7 0.027 -0.386 0.446 447.850 o
8 0 8 16.300 17.355 1.550 13.316 o
8 0 9 15.965 12.307 1.918 12.076 o
8 0 10 0.441 -0.109 0.708 160.307 o
8 1 0 1.772 4.140 0.474 110.981 o
8 1 1 43.709 41.367 1.331 5.730 o
8 1 2 15.275 20.285 1.075 16.034 o
8 1 3 102.332 105.862 1.940 1.725 o
8 1 4 59.424 39.023 1.421 4.432 o
8 1 5 1.375 0.252 0.315 277.070 o
8 1 6 3.147 1.376 0.462 112.716 o
8 1 7 51.266 57.128 1.972 4.011 o
8 1 8 22.642 21.262 1.606 10.371 o
8 1 9 12.866 12.976 1.267 18.482 o
8 1 10 4.130 4.842 0.895 49.582 o
8 2 0 0.840 -0.004 0.267 457.323 o
8 2 1 0.243 0.280 0.244 775.143 o
8 2 2 29.890 24.309 1.102 9.647 o
8 2 3 49.238 37.561 1.315 5.386 o
8 2 4 0.108 0.385 0.238 893.120 o
8 2 5 0.885 1.814 0.423 200.970 o
8 2 6 6.730 3.429 0.559 54.735 o
8 2 7 6.934 6.965 0.943 35.320 o
8 2 8 29.511 28.935 1.696 7.871 o
8 2 9 1.179 0.658 0.582 160.054 o
8 2 10 0.080 0.232 0.818 130.147 o
8 3 0 13.195 14.973 0.729 22.169 o
8 3 1 17.965 16.241 1.581 12.713 o
8 3 2 0.059 -0.359 0.214 1667.690 o
8 3 3 4.016 2.265 0.410 93.522 o
8 3 4 27.811 30.536 1.372 8.794 o
8 3 5 288.796 256.666 3.234 0.353 o
8 3 6 6.436 5.583 0.580 50.040 o
8 3 7 1.133 0.436 0.348 278.348 o
8 3 8 1.354 1.065 0.488 172.747 o
8 3 9 0.912 0.777 0.740 122.042 o
8 3 10 0.024 -0.354 0.865 121.019 o
8 3 11 1.410 1.184 0.707 112.924 o
8 4 0 10.724 9.213 0.849 27.718 o
8 4 1 37.610 38.392 1.133 6.855 o
8 4 2 174.793 159.168 2.949 0.787 o
8 4 3 6.828 7.213 0.635 43.470 o
8 4 4 23.164 26.334 1.146 11.105 o
8 4 5 34.038 31.802 1.369 7.550 o
8 4 6 6.370 4.671 0.512 54.963 o
8 4 7 7.684 6.813 0.738 38.738 o
8 4 8 2.105 2.902 0.649 93.650 o
8 4 9 0.616 0.616 0.674 152.866 o
8 4 10 0.286 -0.280 0.597 227.745 o
8 4 11 3.883 2.662 1.382 33.398 o
8 5 0 96.136 95.110 3.741 1.581 o
8 5 1 439.441 432.589 4.812 0.157 o
8 5 2 18.472 17.032 0.903 16.077 o
8 5 3 138.036 136.296 2.633 1.095 o
8 5 4 8.852 9.067 0.806 31.825 o
8 5 5 35.264 38.082 1.451 6.778 o
8 5 6 11.202 11.930 0.686 26.976 o
8 5 7 5.227 5.762 0.715 50.432 o
8 5 8 0.015 0.024 0.293 1010.180 o
8 5 9 0.039 -0.058 0.465 409.581 o
8 5 10 0.255 -0.099 0.462 361.574 o
8 5 11 0.047 -0.237 0.617 234.323 o
8 6 0 78.218 75.446 4.365 1.791 o
8 6 1 36.917 34.857 1.545 6.634 o
8 6 2 3.338 2.494 0.587 85.900 o
8 6 3 9.192 7.071 0.746 34.360 o
8 6 4 27.685 29.346 2.477 6.306 o
8 6 5 65.295 67.691 2.057 3.074 o
8 6 6 0.216 1.025 0.423 314.678 o
8 6 7 6.786 9.548 0.887 34.053 o
8 6 8 0.925 0.957 0.374 257.161 o
8 6 9 1.343 1.010 0.500 170.708 o
8 6 10 3.651 3.712 0.763 62.930 o
8 6 11 22.629 22.571 1.945 8.992 o
8 7 0 36.304 39.176 1.200 6.903 o
8 7 1 12.186 11.534 0.753 25.153 o
8 7 2 31.957 35.502 1.299 7.707 o
8 7 3 90.071 97.482 2.667 1.877 o
8 7 4 52.425 47.007 1.565 4.546 o
8 7 5 1.642 1.127 0.403 181.794 o
8 7 6 21.311 19.072 1.251 12.591 o
8 7 7 57.711 55.086 1.409 4.035 o
8 7 8 1.826 2.040 0.490 134.289 o
8 7 9 7.911 7.755 0.825 34.907 o
8 7 10 5.978 6.981 0.851 40.480 o
8 8 0 4.076 3.705 0.931 50.610 o
8 8 1 5.272 6.757 0.856 42.963 o
8 8 2 3.069 2.982 0.972 55.014 o
8 8 3 0.008 0.254 0.489 350.767 o
8 8 4 1.276 2.141 0.523 143.679 o
8 8 5 2.631 4.118 0.842 63.194 o
8 8 6 180.927 175.030 4.076 0.682 o
8 8 7 27.326 23.163 1.975 8.000 o
8 8 8 33.953 37.185 1.657 6.690 o
8 8 9 0.230 0.387 0.479 309.658 o
8 8 10 3.287 2.863 0.682 75.748 o
8 9 0 2.742 4.267 0.765 67.604 o
8 9 1 0.050 -0.208 0.723 171.573 o
8 9 2 2.085 2.936 0.525 110.224 o
8 9 3 4.787 4.111 0.722 56.738 o
8 9 4 19.593 22.868 1.286 12.370 o
8 9 5 7.261 7.496 0.995 32.738 o
8 9 6 67.920 69.785 2.589 2.723 o
8 9 7 33.593 36.408 1.979 6.243 o
8 9 8 0.307 -0.833 0.422 405.062 o
8 9 9 18.928 22.846 1.263 12.723 o
8 10 1 1.038 0.024 0.825 108.300 o
8 10 2 3.859 1.916 1.268 38.549 o
8 10 3 7.809 7.996 1.040 30.231 o
8 10 4 13.568 16.748 1.315 16.392 o
8 10 5 22.670 26.423 1.692 9.439 o
8 10 6 12.056 14.761 1.450 16.737 o
8 10 7 3.866 5.316 0.915 48.751 o
9 -5 0 3.197 3.662 0.819 62.484 o
9 -5 1 2.244 1.762 0.721 90.895 o
9 -5 2 1.082 1.155 0.883 88.101 o
9 -4 0 26.653 30.697 1.505 8.689 o
9 -4 1 1.050 0.823 0.514 186.700 o
9 -4 2 0.611 0.290 0.640 173.677 o
9 -4 3 4.019 5.359 1.149 38.264 o
9 -4 4 0.118 0.796 0.763 137.648 o
9 -3 0 6.534 6.867 0.797 40.553 o
9 -3 1 17.175 21.754 1.381 13.046 o
9 -3 2 7.853 8.236 0.928 32.282 o
9 -3 3 59.515 62.228 2.904 2.953 o
9 -3 4 7.445 10.558 1.494 21.052 o
9 -3 5 3.849 2.829 0.885 56.616 o
9 -3 6 23.957 26.052 2.382 7.163 o
9 -2 0 9.655 8.024 0.752 32.210 o
9 -2 1 0.771 0.529 0.361 316.371 o
9 -2 2 38.271 44.726 1.570 5.867 o
9 -2 3 0.556 1.650 0.540 181.407 o
9 -2 4 3.821 6.202 0.888 48.297 o
9 -2 5 7.103 8.442 1.031 31.306 o
9 -2 6 30.917 40.849 2.535 5.363 o
9 -2 7 52.718 62.647 3.136 3.033 o
9 -1 0 23.829 22.696 1.456 10.414 o
9 -1 1 45.007 40.584 1.244 5.716 o
9 -1 2 2.184 1.360 0.448 141.810 o
9 -1 3 8.191 8.690 0.919 31.350 o
9 -1 4 3.123 1.548 0.540 101.598 o
9 -1 5 9.229 9.096 0.960 28.424 o
9 -1 6 45.687 52.745 2.692 3.852 o
9 -1 7 8.176 10.547 1.839 16.234 o
9 -1 8 21.857 25.707 2.364 7.518 o
9 0 0 36.853 38.448 1.641 6.281 o
9 0 1 8.435 8.388 0.907 31.416 o
9 0 2 2.088 2.099 0.405 140.379 o
9 0 3 3.121 2.412 0.509 97.606 o
9 0 4 11.456 11.636 0.970 23.547 o
9 0 5 6.495 7.246 0.748 41.463 o
9 0 6 1.380 0.115 0.470 206.893 o
9 0 7 0.875 1.318 0.536 174.630 o
9 0 8 1.411 1.449 0.610 130.234 o
9 0 9 1.442 1.572 0.817 90.129 o
9 1 0 4.344 5.868 0.701 55.305 o
9 1 1 0.024 -0.144 0.296 993.320 o
9 1 2 123.319 103.892 2.541 1.390 o
9 1 3 3.730 3.256 0.576 77.722 o
9 1 4 9.149 5.325 0.591 39.930 o
9 1 5 7.146 8.707 0.816 35.818 o
9 1 6 5.808 4.474 0.662 52.901 o
9 1 7 17.917 18.690 1.810 11.127 o
9 1 8 14.986 11.895 1.242 17.619 o
9 1 9 18.989 17.610 1.653 11.749 o
9 2 0 0.724 0.651 0.336 333.882 o
9 2 1 76.725 74.182 2.045 2.594 o
9 2 2 2.292 1.489 0.404 144.170 o
9 2 3 0.016 -0.177 0.622 233.975 o
9 2 4 0.000 -0.131 0.307 965.303 o
9 2 5 54.571 51.201 1.443 4.335 o
9 2 6 1.883 1.437 0.429 155.807 o
9 2 7 26.928 29.762 1.499 8.743 o
9 2 8 33.441 34.419 1.851 6.600 o
9 2 9 0.143 -1.297 0.632 216.212 o
9 2 10 8.285 6.469 1.118 29.085 o
9 3 0 0.683 0.225 0.290 443.935 o
9 3 1 39.852 40.588 1.640 5.833 o
9 3 2 0.322 -0.110 0.302 649.728 o
9 3 3 114.690 102.260 2.602 1.493 o
9 3 4 0.106 -0.627 0.283 948.230 o
9 3 5 4.243 4.028 0.712 60.956 o
9 3 6 2.541 3.333 0.581 91.857 o
9 3 7 24.321 23.407 1.379 10.445 o
9 3 8 0.358 -0.110 0.471 330.022 o
9 3 9 37.479 40.995 2.352 5.100 o
9 3 10 0.303 0.497 0.763 136.650 o
9 4 0 20.643 20.237 1.434 11.816 o
9 4 1 3.801 2.217 0.752 68.288 o
9 4 2 21.364 21.609 1.152 12.503 o
9 4 3 15.037 12.969 1.090 18.468 o
9 4 4 28.980 25.011 1.457 8.916 o
9 4 5 0.872 0.382 0.449 250.776 o
9 4 6 0.000 0.128 0.248 1280.410 o
9 4 7 0.706 0.010 0.324 427.225 o
9 4 8 3.983 4.502 0.705 61.538 o
9 4 9 5.175 5.727 0.879 44.280 o
9 4 10 0.177 -0.685 0.487 344.294 o
9 5 0 5.811 8.932 1.981 16.279 o
9 5 1 1.168 1.903 0.619 128.545 o
9 5 2 2.641 3.618 0.580 88.443 o
9 5 3 17.513 20.025 1.836 10.928 o
9 5 4 14.503 15.532 1.186 17.197 o
9 5 5 6.771 6.711 0.847 38.658 o
9 5 6 0.141 0.158 0.531 288.459 o
9 5 7 5.373 4.895 0.611 56.234 o
9 5 8 13.794 13.473 1.076 19.349 o
9 5 9 0.306 0.100 0.513 286.690 o
9 5 10 9.140 11.362 1.395 20.614 o
9 6 0 0.346 0.873 0.762 130.215 o
9 6 1 26.797 23.566 1.210 10.268 o
9 6 2 35.021 38.854 1.440 6.775 o
9 6 3 0.001 0.744 0.501 295.732 o
9 6 4 0.799 1.619 0.476 192.595 o
9 6 5 4.181 4.502 0.725 59.110 o
9 6 6 2.070 2.330 0.857 73.733 o
9 6 7 2.701 3.106 0.824 67.914 o
9 6 8 0.001 0.051 0.470 405.142 o
9 6 9 43.059 46.534 1.689 5.194 o
9 6 10 11.457 16.311 1.423 16.878 o
9 7 0 73.039 76.499 3.827 2.042 o
9 7 1 20.369 21.703 2.065 9.091 o
9 7 2 1.047 1.008 0.345 255.773 o
9 7 3 16.387 15.948 1.191 15.900 o
9 7 4 0.509 -0.079 0.392 394.732 o
9 7 5 3.599 2.496 0.700 72.993 o
9 7 6 0.262 0.320 0.520 271.821 o
9 7 7 3.896 3.735 0.831 57.014 o
9 7 8 2.679 4.511 0.887 58.452 o
9 7 9 0.098 0.112 0.691 181.567 o
9 8 0 15.178 18.069 5.833 2.376 o
9 8 1 0.019 -0.321 0.558 289.151 o
9 8 2 20.699 18.752 1.257 12.860 o
9 8 3 32.249 30.873 1.771 7.141 o
9 8 4 15.092 19.888 2.545 8.332 o
9 8 5 13.151 11.107 1.230 19.335 o
9 8 6 0.008 0.358 0.443 404.930 o
9 8 7 13.255 13.128 1.844 13.370 o
9 8 8 1.542 1.711 0.655 114.137 o
9 8 9 4.568 3.487 0.815 54.844 o
9 9 1 2.438 2.267 0.583 102.031 o
9 9 2 11.296 10.928 1.235 20.907 o
9 9 3 1.175 0.043 0.508 206.760 o
9 9 4 9.049 11.523 1.034 25.724 o
9 9 5 3.162 3.167 0.801 65.895 o
9 9 6 10.494 7.955 1.070 25.636 o
9 9 7 10.713 12.871 1.362 19.144 o
9 9 8 7.242 5.270 0.952 36.397 o
10 -3 0 9.232 11.506 1.011 25.845 o
10 -3 1 36.564 38.983 1.964 5.817 o
10 -3 2 10.917 11.141 1.175 21.890 o
10 -3 3 39.101 45.908 2.430 4.703 o
10 -3 4 12.176 10.507 1.621 16.305 o
10 -2 0 13.647 14.006 1.530 15.397 o
10 -2 1 8.735 9.124 1.012 28.279 o
10 -2 2 10.691 15.143 1.929 13.324 o
10 -2 3 23.210 21.618 1.765 9.604 o
10 -2 4 52.733 56.447 2.229 3.771 o
10 -2 5 38.665 42.854 2.406 4.870 o
10 -1 0 0.344 0.381 0.469 302.523 o
10 -1 1 0.521 1.022 0.537 204.400 o
10 -1 2 0.025 -0.208 0.347 730.154 o
10 -1 3 36.539 37.537 2.103 5.684 o
10 -1 4 64.664 73.498 2.911 2.624 o
10 -1 5 3.048 2.364 0.773 72.499 o
10 -1 6 5.284 6.013 1.644 22.589 o
10 0 0 5.043 7.310 1.093 35.181 o
10 0 1 3.109 1.283 0.584 98.749 o
10 0 2 2.633 2.785 0.731 78.541 o
10 0 3 6.261 6.857 0.746 42.967 o
10 0 4 0.016 0.043 0.457 423.952 o
10 0 5 16.077 16.672 1.209 15.753 o
10 0 6 0.162 -0.495 0.473 367.245 o
10 0 7 24.718 28.488 2.772 5.996 o
10 1 0 36.499 35.713 2.008 5.922 o
10 1 1 42.953 39.700 1.938 5.225 o
10 1 2 25.961 26.030 1.599 9.058 o
10 1 3 0.111 -0.227 0.563 272.617 o
10 1 4 0.297 0.123 0.267 723.229 o
10 1 5 2.229 3.268 0.616 93.017 o
10 1 6 9.454 11.732 1.185 22.956 o
10 1 7 1.853 1.065 0.669 111.771 o
10 1 8 14.722 17.105 1.964 11.454 o
10 2 0 0.513 0.390 0.446 296.773 o
10 2 1 76.583 88.591 2.793 2.191 o
10 2 2 10.478 8.410 1.753 16.489 o
10 2 3 5.986 3.763 1.039 39.013 o
10 2 4 6.847 6.112 1.006 34.857 o
10 2 5 1.558 2.527 0.716 96.140 o
10 2 6 0.073 -0.275 0.537 303.830 o
10 2 7 8.665 8.822 1.105 26.951 o
10 2 8 10.654 9.319 1.103 24.096 o
10 3 0 0.499 0.882 0.409 293.645 o
10 3 1 45.740 41.135 3.331 3.532 o
10 3 2 4.810 2.817 0.670 63.734 o
10 3 3 16.017 16.870 1.412 14.402 o
10 3 4 2.105 -0.099 0.622 128.225 o
10 3 5 0.062 -0.097 0.428 472.579 o
10 3 6 0.021 -0.321 0.304 949.055 o
10 3 7 0.548 0.174 0.524 245.496 o
10 3 8 0.311 0.086 0.558 249.668 o
10 3 9 29.934 32.926 2.615 5.645 o
10 4 0 3.984 2.779 0.722 66.786 o
10 4 1 17.825 16.576 1.339 14.097 o
10 4 2 2.066 1.460 0.763 89.918 o
10 4 3 4.377 5.760 0.758 52.754 o
10 4 4 6.481 7.287 1.307 27.196 o
10 4 5 6.044 6.828 2.075 15.613 o
10 4 6 3.493 2.561 0.871 60.508 o
10 4 7 38.698 40.306 2.002 5.495 o
10 4 8 4.001 3.632 0.680 66.153 o
10 4 9 1.648 2.064 1.347 40.851 o
10 5 0 4.505 4.352 2.044 17.380 o
10 5 1 18.267 18.546 1.176 14.349 o
10 5 2 5.707 8.389 0.899 37.807 o
10 5 3 7.489 9.211 1.097 28.577 o
10 5 4 7.451 7.556 0.980 32.624 o
10 5 5 15.233 17.488 1.767 12.383 o
10 5 6 89.776 97.593 3.616 1.675 o
10 5 7 1.028 2.798 0.881 79.246 o
10 5 8 12.728 14.538 2.151 11.278 o
10 5 9 5.581 7.751 1.879 18.007 o
10 6 0 4.237 2.210 1.091 44.912 o
10 6 1 4.585 3.701 0.711 59.846 o
10 6 2 0.299 -0.673 0.518 290.663 o
10 6 3 18.489 16.356 1.219 14.527 o
10 6 4 0.456 -0.802 0.440 345.927 o
10 6 5 16.189 16.955 1.395 14.416 o
10 6 6 0.199 0.584 0.590 215.495 o
10 6 7 41.471 50.639 5.899 1.834 o
10 6 8 31.948 34.768 2.321 5.905 o
10 6 9 0.271 -0.734 0.703 169.761 o
10 7 0 11.341 11.103 2.265 11.402 o
10 7 1 1.011 0.520 1.211 54.811 o
10 7 2 5.330 6.262 0.692 49.687 o
10 7 3 10.553 10.028 1.312 21.032 o
10 7 4 0.040 0.366 0.463 366.874 o
10 7 5 0.660 -0.382 0.452 298.627 o
10 7 6 9.099 8.734 1.108 26.360 o
10 7 7 10.417 12.159 1.442 18.732 o
10 7 8 1.737 1.787 1.267 45.297 o
10 8 1 28.292 32.698 2.690 5.658 o
10 8 2 8.407 9.604 0.915 30.177 o
10 8 3 7.397 8.865 1.506 21.656 o
10 8 4 10.612 11.314 1.095 23.125 o
10 8 5 1.668 1.883 0.588 121.783 o
10 8 6 8.560 10.653 1.371 21.776 o
10 8 7 0.783 0.062 0.516 233.478 o
11 -1 0 0.023 -0.077 1.130 71.025 o
11 -1 1 10.294 10.476 2.601 9.714 o
11 -1 2 19.263 20.046 2.321 8.490 o
11 -1 3 0.222 -1.010 0.501 319.907 o
11 -1 4 0.566 -0.499 0.702 157.306 o
11 0 0 4.057 5.466 1.055 41.599 o
11 0 1 23.662 26.898 2.009 8.200 o
11 0 2 19.538 22.572 3.404 5.276 o
11 0 3 4.387 4.282 1.461 28.740 o
11 0 4 19.447 22.616 1.597 11.105 o
11 0 5 8.182 10.597 1.100 26.481 o
11 1 0 0.141 0.520 0.564 240.037 o
11 1 1 21.498 22.746 2.789 6.554 o
11 1 2 22.837 19.522 2.087 8.750 o
11 1 3 7.782 9.232 1.268 24.996 o
11 1 4 0.633 0.057 0.949 90.931 o
11 1 5 1.138 1.846 0.922 78.114 o
11 1 6 0.362 -0.666 0.499 299.857 o
11 2 0 14.479 13.826 1.231 17.409 o
11 2 1 67.577 61.012 2.401 2.958 o
11 2 2 0.044 -0.386 0.497 359.175 o
11 2 3 5.530 5.097 1.634 22.990 o
11 2 4 0.055 -0.469 0.978 94.320 o
11 2 5 0.041 -0.729 0.750 159.961 o
11 2 6 5.028 6.189 1.091 36.611 o
11 2 7 28.398 33.134 1.779 7.525 o
11 3 0 8.713 9.892 1.052 27.037 o
11 3 1 0.330 0.091 0.442 360.462 o
11 3 2 8.118 9.649 1.866 16.213 o
11 3 3 27.591 27.981 2.157 7.131 o
11 3 4 0.807 -0.268 0.560 208.686 o
11 3 5 2.171 2.224 0.836 75.488 o
11 3 6 1.996 0.001 1.415 39.407 o
11 3 7 1.810 1.936 1.389 38.619 o
11 4 0 13.079 13.641 1.138 19.291 o
11 4 1 10.007 11.526 1.284 21.198 o
11 4 2 5.904 8.302 1.044 33.523 o
11 4 3 3.389 3.452 0.742 67.417 o
11 4 4 0.060 1.329 0.728 142.325 o
11 4 5 19.303 17.268 1.955 10.263 o
11 4 6 0.099 -0.801 0.544 292.409 o
11 4 7 10.233 7.727 2.034 14.055 o
11 5 0 0.882 0.017 0.594 186.294 o
11 5 1 0.274 -0.044 0.476 339.573 o
11 5 2 15.589 16.434 1.205 16.122 o
11 5 3 0.021 -0.874 0.520 332.583 o
11 5 4 50.136 55.397 2.665 3.601 o
11 5 5 1.697 2.923 0.833 76.996 o
11 5 6 0.891 2.518 0.942 74.806 o
11 5 7 10.484 10.648 1.783 15.607 o
11 6 1 1.758 1.468 0.775 92.590 o
11 6 2 1.416 2.825 1.180 49.780 o
11 6 3 12.350 11.367 1.643 15.786 o
11 6 4 1.289 0.320 0.790 107.699 o
11 6 5 17.849 20.678 1.817 10.836 o
11 6 6 38.403 41.596 2.524 4.785 o
11 6 7 0.592 -0.887 1.662 31.896 o
11 7 2 0.847 1.059 0.640 146.944 o
11 7 3 2.385 2.246 0.985 60.145 o
11 7 4 2.720 3.954 0.778 68.068 o
11 7 5 5.393 4.375 1.054 39.310 o
11 7 6 6.104 4.658 1.200 32.633 o
12 3 3 25.705 26.589 2.902 5.715 o
;
_olex2_submission_special_instructions 'No special instructions were received'
loop_
_space_group_symop_id
_space_group_symop_operation_xyz
1 x,y,z
2 -x,-y,-z
loop_
_atom_site_label
_atom_site_type_symbol
_atom_site_fract_x
_atom_site_fract_y
_atom_site_fract_z
_atom_site_U_iso_or_equiv
_atom_site_adp_type
_atom_site_occupancy
_atom_site_refinement_flags_posn
O1 O 0.93371(12) -0.02780(11) 0.21200(13) 0.0380(3) Uani 1.000000 .
O2 O 0.23908(18) 0.68815(17) 0.24265(18) 0.0758(5) Uani 1.000000 .
O3 O 0.87330(13) 0.51828(12) 0.16304(14) 0.0453(3) Uani 1.000000 .
N1 N 0.79582(18) -0.13793(16) 0.12315(17) 0.0411(3) Uani 1.000000 .
N2 N 0.46385(17) 0.17735(18) 0.0071(2) 0.0558(4) Uani 1.000000 .
C1 C 1.15751(18) 0.18524(19) 0.3308(2) 0.0431(4) Uani 1.000000 .
H1c H 1.09641(18) 0.18035(19) 0.4282(2) 0.0517(4) Uiso 1.000000 R
H1d H 1.26612(18) 0.16631(19) 0.3400(2) 0.0517(4) Uiso 1.000000 R
C2 C 1.13018(17) 0.05727(17) 0.27486(18) 0.0374(3) Uani 1.000000 .
H2a H 1.21099(17) 0.04178(17) 0.19266(18) 0.0449(4) Uiso 1.000000 R
H2b H 1.13559(17) -0.04253(17) 0.35341(18) 0.0449(4) Uiso 1.000000 R
C3 C 0.97599(16) 0.10231(16) 0.22543(15) 0.0308(3) Uani 1.000000 .
C4 C 0.88647(15) 0.24758(15) 0.19741(15) 0.0293(3) Uani 1.000000 .
C5 C 0.72517(15) 0.27881(15) 0.16202(15) 0.0288(3) Uani 1.000000 .
H5 H 0.71300(15) 0.37369(15) 0.07666(15) 0.0346(3) Uiso 1.000000 R
C6 C 0.60170(15) 0.30800(16) 0.29217(15) 0.0304(3) Uani 1.000000 .
C7 C 0.48486(16) 0.44237(16) 0.27254(16) 0.0332(3) Uani 1.000000 .
H7 H 0.48242(16) 0.51827(16) 0.18051(16) 0.0399(4) Uiso 1.000000 R
C8 C 0.37201(16) 0.46159(17) 0.39216(18) 0.0368(3) Uani 1.000000 .
N9 N 0.24700(16) 0.60270(17) 0.36814(18) 0.0487(4) Uani 1.000000 .
O10 O 0.15389(18) 0.6274(2) 0.47419(18) 0.0844(5) Uani 1.000000 .
C11 C 0.70613(15) 0.13803(16) 0.12033(15) 0.0305(3) Uani 1.000000 .
C12 C 0.80551(16) -0.00429(16) 0.14854(15) 0.0307(3) Uani 1.000000 .
C13 C 0.57372(17) 0.15644(17) 0.05685(17) 0.0361(3) Uani 1.000000 .
C14 C 0.37095(19) 0.3551(2) 0.53101(19) 0.0459(4) Uani 1.000000 .
H14 H 0.29437(19) 0.3724(2) 0.60969(19) 0.0551(5) Uiso 1.000000 R
C15 C 0.4878(2) 0.2212(2) 0.54992(19) 0.0505(4) Uani 1.000000 .
H15 H 0.4904(2) 0.1465(2) 0.64261(19) 0.0605(5) Uiso 1.000000 R
C16 C 0.60051(18) 0.19790(19) 0.43170(18) 0.0417(4) Uani 1.000000 .
H16 H 0.67737(18) 0.10647(19) 0.44577(18) 0.0501(4) Uiso 1.000000 R
C17 C 0.94933(16) 0.38316(16) 0.19489(16) 0.0341(3) Uani 1.000000 .
C18 C 1.11262(19) 0.34963(19) 0.2249(2) 0.0490(4) Uani 1.000000 .
H18a H 1.12383(19) 0.42950(19) 0.2666(2) 0.0588(5) Uiso 1.000000 R
H18b H 1.18338(19) 0.35837(19) 0.1318(2) 0.0588(5) Uiso 1.000000 R
H1a H 0.868(2) -0.222(3) 0.146(2) 0.056(6) Uiso 1.000000 .
H1b H 0.715(2) -0.143(2) 0.087(2) 0.058(6) Uiso 1.000000 .
loop_
_atom_site_aniso_label
_atom_site_aniso_U_11
_atom_site_aniso_U_22
_atom_site_aniso_U_33
_atom_site_aniso_U_12
_atom_site_aniso_U_13
_atom_site_aniso_U_23
O1 0.0376(5) 0.0232(5) 0.0560(6) 0.0012(4) -0.0198(5) -0.0119(4)
O2 0.0713(10) 0.0507(8) 0.0748(10) 0.0227(7) -0.0027(8) -0.0090(7)
O3 0.0473(6) 0.0254(5) 0.0646(8) -0.0021(4) -0.0158(5) -0.0140(5)
N1 0.0444(7) 0.0272(6) 0.0572(8) -0.0022(6) -0.0159(6) -0.0176(6)
N2 0.0452(8) 0.0474(8) 0.0843(12) -0.0024(6) -0.0301(8) -0.0231(8)
C1 0.0360(8) 0.0425(8) 0.0562(10) -0.0020(6) -0.0188(7) -0.0179(7)
C2 0.0314(7) 0.0325(7) 0.0481(8) 0.0006(6) -0.0134(6) -0.0115(6)
C3 0.0306(7) 0.0262(6) 0.0365(7) -0.0037(5) -0.0072(5) -0.0100(5)
C4 0.0283(6) 0.0253(6) 0.0349(7) -0.0030(5) -0.0065(5) -0.0098(5)
C5 0.0285(6) 0.0222(6) 0.0351(7) -0.0008(5) -0.0085(5) -0.0080(5)
C6 0.0288(6) 0.0267(6) 0.0385(7) -0.0035(5) -0.0090(5) -0.0118(5)
C7 0.0337(7) 0.0269(6) 0.0400(8) -0.0013(5) -0.0089(6) -0.0123(6)
C8 0.0316(7) 0.0333(7) 0.0499(9) -0.0022(6) -0.0063(6) -0.0208(6)
N9 0.0408(7) 0.0419(8) 0.0639(10) 0.0021(6) -0.0021(7) -0.0272(7)
O10 0.0687(10) 0.0857(11) 0.0769(10) 0.0256(8) 0.0086(8) -0.0380(9)
C11 0.0299(7) 0.0275(6) 0.0357(7) -0.0032(5) -0.0078(5) -0.0112(5)
C12 0.0323(7) 0.0270(6) 0.0332(7) -0.0053(5) -0.0058(5) -0.0092(5)
C13 0.0355(7) 0.0295(7) 0.0462(8) -0.0039(6) -0.0093(6) -0.0144(6)
C14 0.0421(8) 0.0520(10) 0.0445(9) -0.0083(7) 0.0016(7) -0.0210(7)
C15 0.0510(10) 0.0512(10) 0.0387(8) -0.0052(8) -0.0036(7) -0.0049(7)
C16 0.0387(8) 0.0353(8) 0.0434(8) 0.0013(6) -0.0081(6) -0.0062(6)
C17 0.0350(7) 0.0275(7) 0.0417(8) -0.0050(5) -0.0075(6) -0.0121(6)
C18 0.0409(9) 0.0343(8) 0.0777(12) -0.0083(7) -0.0219(8) -0.0145(8)
loop_
_atom_type_symbol
_atom_type_scat_dispersion_real
_atom_type_scat_dispersion_imag
_atom_type_scat_Cromer_Mann_a1
_atom_type_scat_Cromer_Mann_a2
_atom_type_scat_Cromer_Mann_a3
_atom_type_scat_Cromer_Mann_a4
_atom_type_scat_Cromer_Mann_b1
_atom_type_scat_Cromer_Mann_b2
_atom_type_scat_Cromer_Mann_b3
_atom_type_scat_Cromer_Mann_b4
_atom_type_scat_Cromer_Mann_c
_atom_type_scat_source
_atom_type_scat_dispersion_source
H 0.00000 0.00000 0.49300 0.32291 0.14019 0.04081 10.51090 26.12570 3.14236
57.79970 0.0030380000826
'International Tables Volume C Table 6.1.1.4 (pp. 500-502)'
'Henke, Gullikson and Davis, At. Data and Nucl. Data Tables, 1993, 54, 2'
C 0.00347 0.00161 2.31000 1.02000 1.58860 0.86500 20.84390 10.20750 0.56870
51.65120 0.215599998832
'International Tables Volume C Table 6.1.1.4 (pp. 500-502)'
'Henke, Gullikson and Davis, At. Data and Nucl. Data Tables, 1993, 54, 2'
O 0.01158 0.00611 3.04850 2.28680 1.54630 0.86700 13.27710 5.70110 0.32390
32.90890 0.250800013542
'International Tables Volume C Table 6.1.1.4 (pp. 500-502)'
'Henke, Gullikson and Davis, At. Data and Nucl. Data Tables, 1993, 54, 2'
N 0.00653 0.00323 12.21260 3.13220 2.01250 1.16630 0.00570 9.89330 28.99750
0.58260 -11.5290002823
'International Tables Volume C Table 6.1.1.4 (pp. 500-502)'
'Henke, Gullikson and Davis, At. Data and Nucl. Data Tables, 1993, 54, 2'
loop_
_geom_angle_atom_site_label_1
_geom_angle_atom_site_label_2
_geom_angle_atom_site_label_3
_geom_angle
C12 O1 C3 118.70(10)
H1a N1 C12 118.9(13)
H1b N1 C12 121.0(13)
H1b N1 H1a 120.1(18)
H1d C1 H1c 108.1
C2 C1 H1c 109.52(9)
C2 C1 H1d 109.52(8)
C18 C1 H1c 109.52(10)
C18 C1 H1d 109.52(8)
C18 C1 C2 110.62(13)
H2a C2 C1 109.43(9)
H2b C2 C1 109.43(9)
H2b C2 H2a 108.0
C3 C2 C1 111.05(12)
C3 C2 H2a 109.43(8)
C3 C2 H2b 109.43(8)
C2 C3 O1 110.90(11)
C4 C3 O1 122.83(12)
C4 C3 C2 126.26(12)
C5 C4 C3 122.45(12)
C17 C4 C3 119.07(12)
C17 C4 C5 118.43(11)
H5 C5 C4 108.60(7)
C6 C5 C4 111.66(11)
C6 C5 H5 108.60(7)
C11 C5 C4 108.69(10)
C11 C5 H5 108.60(7)
C11 C5 C6 110.63(11)
C7 C6 C5 120.64(12)
C16 C6 C5 120.81(12)
C16 C6 C7 118.51(13)
H7 C7 C6 120.58(8)
C8 C7 C6 118.84(14)
C8 C7 H7 120.58(9)
N9 C8 C7 118.00(14)
C14 C8 C7 123.22(14)
C14 C8 N9 118.78(14)
C8 N9 O2 118.72(14)
O10 N9 O2 122.56(16)
O10 N9 C8 118.71(16)
C12 C11 C5 122.78(12)
C13 C11 C5 117.28(11)
C13 C11 C12 119.84(12)
N1 C12 O1 110.54(12)
C11 C12 O1 121.68(12)
C11 C12 N1 127.77(13)
C11 C13 N2 177.02(16)
H14 C14 C8 121.16(9)
C15 C14 C8 117.67(15)
C15 C14 H14 121.16(10)
H15 C15 C14 119.88(10)
C16 C15 C14 120.25(15)
C16 C15 H15 119.88(10)
C15 C16 C6 121.49(15)
H16 C16 C6 119.25(9)
H16 C16 C15 119.25(10)
C4 C17 O3 120.73(13)
C18 C17 O3 121.83(13)
C18 C17 C4 117.36(12)
C17 C18 C1 112.87(13)
H18a C18 C1 109.01(9)
H18a C18 C17 109.01(8)
H18b C18 C1 109.01(10)
H18b C18 C17 109.01(10)
H18b C18 H18a 107.8
loop_
_geom_bond_atom_site_label_1
_geom_bond_atom_site_label_2
_geom_bond_distance
O1 C3 1.3772(16)
O1 C12 1.3667(16)
O2 N9 1.213(2)
O3 C17 1.2203(17)
N1 C12 1.3372(18)
N1 H1a 0.87(2)
N1 H1b 0.89(2)
N2 C13 1.1440(19)
C1 H1c 0.9700
C1 H1d 0.9700
C1 C2 1.519(2)
C1 C18 1.522(2)
C2 H2a 0.9700
C2 H2b 0.9700
C2 C3 1.4880(19)
C3 C4 1.3370(18)
C4 C5 1.5052(18)
C4 C17 1.4666(18)
C5 H5 0.9800
C5 C6 1.5252(19)
C5 C11 1.5141(18)
C6 C7 1.3862(18)
C6 C16 1.390(2)
C7 H7 0.9300
C7 C8 1.383(2)
C8 N9 1.4689(19)
C8 C14 1.372(2)
N9 O10 1.2129(19)
C11 C12 1.3559(18)
C11 C13 1.4116(19)
C14 H14 0.9300
C14 C15 1.384(2)
C15 H15 0.9300
C15 C16 1.381(2)
C16 H16 0.9300
C17 C18 1.501(2)
C18 H18a 0.9700
C18 H18b 0.9700
