#------------------------------------------------------------------------------
#$Date: 2020-10-06 12:26:16 +0300 (Tue, 06 Oct 2020) $
#$Revision: 257627 $
#$URL: file:///home/coder/svn-repositories/cod/cif/7/23/97/7239784.cif $
#------------------------------------------------------------------------------
#
# This file is available in the Crystallography Open Database (COD),
# http://www.crystallography.net/
#
# All data on this site have been placed in the public domain by the
# contributors.
#
data_7239784
loop_
_publ_author_name
'L\'eval, Alexander'
'Agapova, Anastasiya'
'Steinlechner, Christoph'
'Alberico, Elisabetta'
'Junge, Henrik'
'Beller, Matthias'
_publ_section_title
;
 Hydrogen production from formic acid catalyzed by a phosphine free
 manganese complex: investigation and mechanistic insights
;
_journal_issue                   3
_journal_name_full               'Green Chemistry'
_journal_page_first              913
_journal_page_last               920
_journal_paper_doi               10.1039/C9GC02453K
_journal_volume                  22
_journal_year                    2020
_chemical_formula_sum            'C12 H10 Mn N3 O5'
_chemical_formula_weight         331.17
_space_group_crystal_system      triclinic
_space_group_IT_number           2
_space_group_name_Hall           '-P 1'
_space_group_name_H-M_alt        'P -1'
_atom_sites_solution_hydrogens   mixed
_audit_creation_method           SHELXL-2014/7
_audit_update_record
;
2019-06-11 deposited with the CCDC.	2019-10-09 downloaded from the CCDC.
;
_cell_angle_alpha                97.266(3)
_cell_angle_beta                 95.849(3)
_cell_angle_gamma                95.577(3)
_cell_formula_units_Z            2
_cell_length_a                   7.5940(14)
_cell_length_b                   8.5623(16)
_cell_length_c                   13.088(3)
_cell_measurement_reflns_used    9875
_cell_measurement_temperature    150(2)
_cell_measurement_theta_max      30.50
_cell_measurement_theta_min      2.41
_cell_volume                     834.5(3)
_computing_cell_refinement       'SAINT (Bruker, 2013)'
_computing_data_collection       'APEX2 (Bruker, 2014)'
_computing_data_reduction        SAINT
_computing_structure_refinement  'SHELXL-2014/7 (Sheldrick, 2015)'
_computing_structure_solution    'SHELXS-97 (Sheldrick, 2008)'
_diffrn_ambient_temperature      150(2)
_diffrn_detector_area_resol_mean 8.3333
_diffrn_measured_fraction_theta_full 0.998
_diffrn_measured_fraction_theta_max 0.999
_diffrn_measurement_device_type  'Bruker APEX-II CCD'
_diffrn_measurement_method       '\f and \w scans'
_diffrn_radiation_type           MoK\a
_diffrn_radiation_wavelength     0.71073
_diffrn_reflns_av_R_equivalents  0.0251
_diffrn_reflns_av_unetI/netI     0.0140
_diffrn_reflns_Laue_measured_fraction_full 0.998
_diffrn_reflns_Laue_measured_fraction_max 0.999
_diffrn_reflns_limit_h_max       10
_diffrn_reflns_limit_h_min       -10
_diffrn_reflns_limit_k_max       11
_diffrn_reflns_limit_k_min       -11
_diffrn_reflns_limit_l_max       17
_diffrn_reflns_limit_l_min       -17
_diffrn_reflns_number            33103
_diffrn_reflns_point_group_measured_fraction_full 0.998
_diffrn_reflns_point_group_measured_fraction_max 0.999
_diffrn_reflns_theta_full        25.242
_diffrn_reflns_theta_max         28.994
_diffrn_reflns_theta_min         1.579
_diffrn_source                   'fine-focus sealed tube'
_exptl_absorpt_coefficient_mu    0.811
_exptl_absorpt_correction_T_max  0.79
_exptl_absorpt_correction_T_min  0.71
_exptl_absorpt_correction_type   multi-scan
_exptl_absorpt_process_details   'SADABS (Bruker, 2014)'
_exptl_crystal_colour            yellow
_exptl_crystal_density_diffrn    1.318
_exptl_crystal_description       plate
_exptl_crystal_F_000             336
_exptl_crystal_size_max          0.367
_exptl_crystal_size_mid          0.201
_exptl_crystal_size_min          0.078
_refine_diff_density_max         0.605
_refine_diff_density_min         -0.850
_refine_diff_density_rms         0.070
_refine_ls_extinction_method     none
_refine_ls_goodness_of_fit_ref   1.066
_refine_ls_hydrogen_treatment    mixed
_refine_ls_matrix_type           full
_refine_ls_number_parameters     194
_refine_ls_number_reflns         4438
_refine_ls_number_restraints     1
_refine_ls_restrained_S_all      1.066
_refine_ls_R_factor_all          0.0384
_refine_ls_R_factor_gt           0.0346
_refine_ls_shift/su_max          0.002
_refine_ls_shift/su_mean         0.000
_refine_ls_structure_factor_coef Fsqd
_refine_ls_weighting_details
'w=1/[\s^2^(Fo^2^)+(0.0645P)^2^+0.3778P] where P=(Fo^2^+2Fc^2^)/3'
_refine_ls_weighting_scheme      calc
_refine_ls_wR_factor_gt          0.1035
_refine_ls_wR_factor_ref         0.1074
_reflns_Friedel_coverage         0.000
_reflns_number_gt                4009
_reflns_number_total             4438
_reflns_threshold_expression     'I > 2\s(I)'
_cod_data_source_file            c9gc02453k2.cif
_cod_data_source_block           ax1527_sq
_cod_depositor_comments
;Adding full bibliography for 7239784--7239785.cif.

 Adding full bibliography for 7239784--7239785.cif.
;
_cod_database_code               7239784
_shelx_shelxl_version_number     2014/7
_shelx_space_group_comment
;
The symmetry employed for this shelxl refinement is uniquely defined
by the following loop, which should always be used as a source of
symmetry information in preference to the above space-group names.
They are only intended as comments.
;
_shelx_res_file
;

    ax1527_sq.res created by SHELXL-2014/7


TITL AX1527 in P-1
CELL 0.71073 7.5940 8.5623 13.0876 97.2660   95.8492   95.5767
ZERR 2.00    0.0014 0.0016  0.0025  0.0032    0.0033    0.0032
LATT 1
SFAC C  H  N  O  Mn
UNIT 24 20 6 10 2
L.S. 15 0   45
ACTA
OMIT -4 58
OMIT     -3   2   0
OMIT      1  -1   2
OMIT     -1   1   3
OMIT      1  -1   1
OMIT      0  -1   6
BOND $H
FMAP 2
PLAN -10
SIZE 0.078 0.201 0.367
DFIX 0.87 N3 H3A
HTAB
CONF
EQIV $1 x, y+1, z
HTAB N3 O5_$1
TEMP -123.160
ABIN
WGHT    0.064500    0.377800
FVAR       0.15077
C1    1    0.821677    0.837027    1.006496    11.00000    0.02812    0.02558 =
         0.03032    0.00580    0.00309    0.00314
AFIX  43
H1    2    0.872992    0.744550    1.021708    11.00000   -1.20000
AFIX   0
C2    1    0.831027    0.963804    1.084322    11.00000    0.03004    0.03206 =
         0.02933    0.00197    0.00274    0.00152
AFIX  43
H2    2    0.886980    0.958318    1.151888    11.00000   -1.20000
AFIX   0
C3    1    0.757462    1.098532    1.061932    11.00000    0.02751    0.02543 =
         0.03760   -0.00263    0.00554    0.00066
AFIX  43
H3B   2    0.763397    1.187501    1.114002    11.00000   -1.20000
AFIX   0
C4    1    0.675089    1.103307    0.963313    11.00000    0.03026    0.01852 =
         0.03784    0.00188    0.01002    0.00354
AFIX  43
H4    2    0.623624    1.194942    0.946501    11.00000   -1.20000
AFIX   0
C5    1    0.669553    0.971670    0.889995    11.00000    0.02516    0.01866 =
         0.03033    0.00501    0.00776    0.00321
C6    1    0.577952    0.955274    0.784497    11.00000    0.03151    0.02157 =
         0.02935    0.00803    0.00877    0.00665
C7    1    0.413894    0.997899    0.637975    11.00000    0.05963    0.04081 =
         0.03373    0.01057   -0.00031    0.01818
AFIX  23
H7A   2    0.463817    1.061027    0.587189    11.00000   -1.20000
H7B   2    0.282445    0.994064    0.628940    11.00000   -1.20000
AFIX   0
C8    1    0.473547    0.828399    0.626482    11.00000    0.04859    0.04117 =
         0.02662    0.00682    0.00024    0.01561
AFIX  23
H8A   2    0.369228    0.746798    0.615294    11.00000   -1.20000
H8B   2    0.545260    0.811883    0.567755    11.00000   -1.20000
AFIX   0
C9    1    0.904532    0.702711    0.738786    11.00000    0.03887    0.02999 =
         0.03074    0.00116    0.00525    0.00546
C10   1    0.807938    0.508932    0.857916    11.00000    0.03066    0.02455 =
         0.03358    0.00212    0.00425    0.00648
C11   1    0.634798    0.499432    0.680955    11.00000    0.04101    0.02759 =
         0.03609    0.00143    0.00157    0.00916
C12   1    0.389938    0.488356    0.866863    11.00000    0.03428    0.02348 =
         0.04174    0.00484    0.00656    0.00282
AFIX  43
H12   2    0.281762    0.492163    0.897243    11.00000   -1.20000
AFIX   0
MN1   5    0.699357    0.652591    0.790305    11.00000    0.02810    0.01812 =
         0.02562    0.00187    0.00312    0.00664
N1    3    0.742907    0.839672    0.910347    11.00000    0.02436    0.01903 =
         0.02740    0.00243    0.00502    0.00174
N2    3    0.580859    0.822572    0.725271    11.00000    0.03797    0.02412 =
         0.02629    0.00584    0.00173    0.00923
N3    3    0.487140    1.062153    0.743226    11.00000    0.05766    0.03089 =
         0.03222    0.00596    0.00611    0.02242
O1    4    1.035345    0.731394    0.704706    11.00000    0.04363    0.05947 =
         0.05001    0.00274    0.02024    0.00161
O2    4    0.884118    0.418663    0.895404    11.00000    0.04282    0.03538 =
         0.05340    0.01450   -0.00032    0.01593
O3    4    0.598767    0.403408    0.611159    11.00000    0.07270    0.03904 =
         0.04397   -0.01655   -0.00164    0.00782
O4    4    0.465184    0.619168    0.850382    11.00000    0.02920    0.02046 =
         0.04701    0.00301    0.00842    0.00470
O5    4    0.439325    0.358030    0.848511    11.00000    0.07215    0.02274 =
         0.08021    0.01230    0.03097    0.01048
H3A   2    0.472597    1.150311    0.774525    11.00000    0.05416
HKLF 4 1 1 0 0 0 1 0 0 0 1

REM  AX1527 in P-1
REM R1 =  0.0346 for    4009 Fo > 4sig(Fo)  and  0.0384 for all    4438 data
REM    194 parameters refined using      1 restraints

END

WGHT      0.0646      0.3782

REM Instructions for potential hydrogen bonds
EQIV $2 -x+2, -y+1, -z+2
HTAB C1 O2_$2
HTAB C4 O5_$1
HTAB N3 O5_$1

REM Highest difference peak  0.605,  deepest hole -0.850,  1-sigma level  0.070
Q1    1   0.6342  0.6443  0.7627  11.00000  0.05    0.60
Q2    1   0.6196  0.9738  0.8416  11.00000  0.05    0.55
Q3    1   0.7049  0.6579  0.8184  11.00000  0.05    0.53
Q4    1   0.7978  0.9154  1.0196  11.00000  0.05    0.47
Q5    1   0.7384  0.7911  0.8867  11.00000  0.05    0.43
Q6    1   0.5250  0.8252  0.6807  11.00000  0.05    0.36
Q7    1   0.7076  1.0952  1.0156  11.00000  0.05    0.36
Q8    1   0.7617  0.8397  0.9543  11.00000  0.05    0.36
Q9    1   0.5912  0.7731  0.7395  11.00000  0.05    0.33
Q10   1   0.4492  0.5593  0.8507  11.00000  0.05    0.33
;
_shelx_res_checksum              50828
_shelx_fab_file
;
    1    0    0     61.52      0.00
    2    0    0     16.51      0.00
    3    0    0     -9.99      0.00
    4    0    0    -11.79      0.00
    5    0    0     -5.87      0.00
    6    0    0     -3.26      0.00
    7    0    0     -3.27      0.00
    8    0    0     -2.36      0.00
    9    0    0     -0.34      0.00
   10    0    0      0.69      0.00
  -10    1    0      0.22      0.00
   -9    1    0      0.83      0.00
   -8    1    0      1.82      0.00
   -7    1    0      0.35      0.00
   -6    1    0     -6.31      0.00
   -5    1    0    -15.13      0.00
   -4    1    0    -16.18      0.00
   -3    1    0     -2.54      0.00
   -2    1    0     15.34      0.00
   -1    1    0     17.45      0.00
    0    1    0      4.52      0.00
    1    1    0     -1.00      0.00
    2    1    0      8.28      0.00
    3    1    0     15.24      0.00
    4    1    0      8.94      0.00
    5    1    0     -2.09      0.00
    6    1    0     -6.94      0.00
    7    1    0     -4.80      0.00
    8    1    0     -0.83      0.00
    9    1    0      1.07      0.00
   10    1    0      0.78      0.00
  -10    2    0      1.38      0.00
   -9    2    0      3.02      0.00
   -8    2    0      2.77      0.00
   -7    2    0      0.38      0.00
   -6    2    0     -1.49      0.00
   -5    2    0     -1.98      0.00
   -4    2    0     -6.52      0.00
   -3    2    0    -22.39      0.00
   -2    2    0    -43.79      0.00
   -1    2    0    -47.03      0.00
    0    2    0    -18.99      0.00
    1    2    0     17.02      0.00
    2    2    0     28.99      0.00
    3    2    0     16.66      0.00
    4    2    0      2.05      0.00
    5    2    0     -2.70      0.00
    6    2    0     -1.26      0.00
    7    2    0     -0.25      0.00
    8    2    0     -1.04      0.00
    9    2    0     -1.45      0.00
   10    2    0     -0.66      0.00
  -10    3    0      0.36      0.00
   -9    3    0      0.85      0.00
   -8    3    0      2.39      0.00
   -7    3    0      5.79      0.00
   -6    3    0      8.02      0.00
   -5    3    0      3.34      0.00
   -4    3    0     -9.52      0.00
   -3    3    0    -21.18      0.00
   -2    3    0    -18.23      0.00
   -1    3    0     -1.79      0.00
    0    3    0     10.05      0.00
    1    3    0      7.20      0.00
    2    3    0      0.57      0.00
    3    3    0      1.67      0.00
    4    3    0      6.66      0.00
    5    3    0      7.20      0.00
    6    3    0      2.64      0.00
    7    3    0     -2.08      0.00
    8    3    0     -3.42      0.00
    9    3    0     -2.02      0.00
   10    3    0     -0.44      0.00
  -10    4    0     -0.98      0.00
   -9    4    0     -0.34      0.00
   -8    4    0      2.19      0.00
   -7    4    0      4.24      0.00
   -6    4    0      4.01      0.00
   -5    4    0      3.73      0.00
   -4    4    0      6.59      0.00
   -3    4    0     10.26      0.00
   -2    4    0      6.62      0.00
   -1    4    0     -7.37      0.00
    0    4    0    -19.88      0.00
    1    4    0    -16.72      0.00
    2    4    0     -1.72      0.00
    3    4    0      9.16      0.00
    4    4    0      8.85      0.00
    5    4    0      3.10      0.00
    6    4    0     -0.58      0.00
    7    4    0     -0.60      0.00
    8    4    0      0.16      0.00
    9    4    0      0.11      0.00
  -10    5    0     -0.41      0.00
   -9    5    0     -0.41      0.00
   -8    5    0     -0.88      0.00
   -7    5    0     -0.86      0.00
   -6    5    0      2.31      0.00
   -5    5    0      7.95      0.00
   -4    5    0     10.21      0.00
   -3    5    0      3.84      0.00
   -2    5    0     -7.89      0.00
   -1    5    0    -14.17      0.00
    0    5    0     -9.85      0.00
    1    5    0     -2.37      0.00
    2    5    0     -0.23      0.00
    3    5    0     -2.16      0.00
    4    5    0     -2.33      0.00
    5    5    0      0.59      0.00
    6    5    0      3.26      0.00
    7    5    0      3.11      0.00
    8    5    0      1.22      0.00
    9    5    0     -0.09      0.00
   -9    6    0     -0.96      0.00
   -8    6    0     -1.77      0.00
   -7    6    0     -0.68      0.00
   -6    6    0      1.28      0.00
   -5    6    0      1.25      0.00
   -4    6    0     -0.55      0.00
   -3    6    0     -0.55      0.00
   -2    6    0      2.68      0.00
   -1    6    0      4.82      0.00
    0    6    0      1.09      0.00
    1    6    0     -5.98      0.00
    2    6    0     -8.98      0.00
    3    6    0     -5.26      0.00
    4    6    0      0.58      0.00
    5    6    0      3.15      0.00
    6    6    0      2.00      0.00
    7    6    0      0.25      0.00
    8    6    0     -0.27      0.00
   -9    7    0     -0.53      0.00
   -8    7    0     -0.39      0.00
   -7    7    0     -0.92      0.00
   -6    7    0     -2.21      0.00
   -5    7    0     -1.86      0.00
   -4    7    0      1.91      0.00
   -3    7    0      6.54      0.00
   -2    7    0      7.05      0.00
   -1    7    0      2.37      0.00
    0    7    0     -2.67      0.00
    1    7    0     -3.36      0.00
    2    7    0     -0.83      0.00
    3    7    0      0.62      0.00
    4    7    0     -0.53      0.00
    5    7    0     -1.90      0.00
    6    7    0     -1.49      0.00
    7    7    0     -0.21      0.00
    8    7    0      0.28      0.00
   -8    8    0     -0.37      0.00
   -7    8    0     -1.44      0.00
   -6    8    0     -1.22      0.00
   -5    8    0      0.67      0.00
   -4    8    0      1.86      0.00
   -3    8    0      0.93      0.00
   -2    8    0     -0.28      0.00
   -1    8    0      0.50      0.00
    0    8    0      2.55      0.00
    1    8    0      2.91      0.00
    2    8    0      0.41      0.00
    3    8    0     -2.56      0.00
    4    8    0     -3.08      0.00
    5    8    0     -1.29      0.00
    6    8    0      0.26      0.00
    7    8    0      0.39      0.00
   -8    9    0     -0.33      0.00
   -7    9    0     -0.26      0.00
   -6    9    0     -0.28      0.00
   -5    9    0     -1.07      0.00
   -4    9    0     -2.09      0.00
   -3    9    0     -1.61      0.00
   -2    9    0      0.75      0.00
   -1    9    0      2.76      0.00
    0    9    0      2.26      0.00
    1    9    0      0.14      0.00
    2    9    0     -1.07      0.00
    3    9    0     -0.39      0.00
    4    9    0      0.72      0.00
    5    9    0      0.63      0.00
    6    9    0     -0.07      0.00
   -7   10    0     -0.06      0.00
   -6   10    0     -0.78      0.00
   -5   10    0     -1.32      0.00
   -4   10    0     -0.85      0.00
   -3   10    0      0.15      0.00
   -2   10    0      0.39      0.00
   -1   10    0     -0.25      0.00
    0   10    0     -0.52      0.00
    1   10    0      0.30      0.00
    2   10    0      1.38      0.00
    3   10    0      1.36      0.00
    4   10    0      0.25      0.00
    5   10    0     -0.45      0.00
   -5   11    0     -0.06      0.00
   -4   11    0     -0.27      0.00
   -3   11    0     -0.74      0.00
   -2   11    0     -1.10      0.00
   -1   11    0     -0.72      0.00
    0   11    0      0.22      0.00
    1   11    0      0.72      0.00
    2   11    0      0.36      0.00
    3   11    0     -0.19      0.00
   -2   12    0     -0.24      0.00
   -1   12    0      0.04      0.00
    0   12    0      0.08      0.00
    0  -12    1     -0.29      0.00
    1  -12    1     -0.01      0.00
    2  -12    1      0.47      0.00
    3  -12    1      0.58      0.00
   -3  -11    1      0.01      0.00
   -2  -11    1     -0.75      0.00
   -1  -11    1     -1.01      0.00
    0  -11    1     -0.36      0.00
    1  -11    1      0.48      0.00
    2  -11    1      0.68      0.00
    3  -11    1      0.37      0.00
    4  -11    1      0.27      0.00
    5  -11    1      0.37      0.00
   -5  -10    1      0.24      0.00
   -4  -10    1     -0.52      0.00
   -3  -10    1     -1.08      0.00
   -2  -10    1     -0.49      0.00
   -1  -10    1      0.39      0.00
    0  -10    1      0.26      0.00
    1  -10    1     -0.83      0.00
    2  -10    1     -1.45      0.00
    3  -10    1     -0.60      0.00
    4  -10    1      0.81      0.00
    5  -10    1      1.33      0.00
    6  -10    1      0.88      0.00
    7  -10    1      0.31      0.00
   -6   -9    1     -0.34      0.00
   -5   -9    1     -0.62      0.00
   -4   -9    1      0.29      0.00
   -3   -9    1      1.87      0.00
   -2   -9    1      1.99      0.00
   -1   -9    1     -0.06      0.00
    0   -9    1     -2.46      0.00
    1   -9    1     -2.80      0.00
    2   -9    1     -0.93      0.00
    3   -9    1      0.74      0.00
    4   -9    1      0.64      0.00
    5   -9    1     -0.04      0.00
    6   -9    1      0.16      0.00
    7   -9    1      0.70      0.00
    8   -9    1      0.60      0.00
   -7   -8    1     -0.66      0.00
   -6   -8    1     -0.33      0.00
   -5   -8    1      1.37      0.00
   -4   -8    1      2.69      0.00
   -3   -8    1      1.79      0.00
   -2   -8    1     -0.33      0.00
   -1   -8    1     -1.02      0.00
    0   -8    1      0.18      0.00
    1   -8    1      0.83      0.00
    2   -8    1     -0.89      0.00
    3   -8    1     -3.48      0.00
    4   -8    1     -3.89      0.00
    5   -8    1     -1.49      0.00
    6   -8    1      1.07      0.00
    7   -8    1      1.46      0.00
    8   -8    1      0.56      0.00
   -8   -7    1     -0.14      0.00
   -7   -7    1      0.18      0.00
   -6   -7    1      0.51      0.00
   -5   -7    1     -0.35      0.00
   -4   -7    1     -1.68      0.00
   -3   -7    1     -0.71      0.00
   -2   -7    1      3.37      0.00
   -1   -7    1      6.77      0.00
    0   -7    1      4.99      0.00
    1   -7    1     -1.22      0.00
    2   -7    1     -6.05      0.00
    3   -7    1     -5.44      0.00
    4   -7    1     -1.65      0.00
    5   -7    1      0.63      0.00
    6   -7    1      0.41      0.00
    7   -7    1     -0.03      0.00
    8   -7    1      0.45      0.00
    9   -7    1      0.75      0.00
   -8   -6    1      0.31      0.00
   -7   -6    1     -0.81      0.00
   -6   -6    1     -3.11      0.00
   -5   -6    1     -4.01      0.00
   -4   -6    1     -1.07      0.00
   -3   -6    1      4.05      0.00
   -2   -6    1      6.47      0.00
   -1   -6    1      4.17      0.00
    0   -6    1      1.25      0.00
    1   -6    1      2.20      0.00
    2   -6    1      4.90      0.00
    3   -6    1      4.11      0.00
    4   -6    1     -0.58      0.00
    5   -6    1     -4.50      0.00
    6   -6    1     -4.10      0.00
    7   -6    1     -1.08      0.00
    8   -6    1      0.60      0.00
    9   -6    1      0.27      0.00
   -9   -5    1      0.27      0.00
   -8   -5    1     -0.59      0.00
   -7   -5    1     -1.83      0.00
   -6   -5    1     -1.72      0.00
   -5   -5    1     -0.76      0.00
   -4   -5    1     -1.88      0.00
   -3   -5    1     -5.55      0.00
   -2   -5    1     -6.51      0.00
   -1   -5    1      1.22      0.00
    0   -5    1     13.98      0.00
    1   -5    1     19.15      0.00
    2   -5    1     10.98      0.00
    3   -5    1     -1.87      0.00
    4   -5    1     -8.30      0.00
    5   -5    1     -6.68      0.00
    6   -5    1     -2.80      0.00
    7   -5    1     -1.18      0.00
    8   -5    1     -1.16      0.00
    9   -5    1     -0.55      0.00
   10   -5    1      0.28      0.00
   -9   -4    1      0.44      0.00
   -8   -4    1      1.39      0.00
   -7   -4    1      2.59      0.00
   -6   -4    1      1.50      0.00
   -5   -4    1     -4.01      0.00
   -4   -4    1    -10.86      0.00
   -3   -4    1    -11.61      0.00
   -2   -4    1     -2.96      0.00
   -1   -4    1      6.88      0.00
    0   -4    1      6.88      0.00
    1   -4    1     -0.27      0.00
    2   -4    1     -2.79      0.00
    3   -4    1      1.57      0.00
    4   -4    1      4.91      0.00
    5   -4    1      2.39      0.00
    6   -4    1     -2.85      0.00
    7   -4    1     -5.21      0.00
    8   -4    1     -3.41      0.00
    9   -4    1     -0.71      0.00
   10   -4    1      0.30      0.00
  -10   -3    1      0.14      0.00
   -9   -3    1      1.73      0.00
   -8   -3    1      3.46      0.00
   -7   -3    1      2.93      0.00
   -6   -3    1      0.35      0.00
   -5   -3    1     -1.20      0.00
   -4   -3    1     -0.50      0.00
   -3   -3    1     -2.43      0.00
   -2   -3    1    -13.24      0.00
   -1   -3    1    -26.42      0.00
    0   -3    1    -23.19      0.00
    1   -3    1      1.04      0.00
    2   -3    1     24.89      0.00
    3   -3    1     28.26      0.00
    4   -3    1     15.26      0.00
    5   -3    1      2.11      0.00
    6   -3    1     -2.96      0.00
    7   -3    1     -2.49      0.00
    8   -3    1     -1.56      0.00
    9   -3    1     -1.62      0.00
   10   -3    1     -1.21      0.00
  -10   -2    1      0.05      0.00
   -9   -2    1      0.16      0.00
   -8   -2    1      0.18      0.00
   -7   -2    1      1.65      0.00
   -6   -2    1      5.69      0.00
   -5   -2    1      8.60      0.00
   -4   -2    1      2.62      0.00
   -3   -2    1    -13.78      0.00
   -2   -2    1    -26.14      0.00
   -1   -2    1    -16.48      0.00
    0   -2    1      8.96      0.00
    1   -2    1     23.57      0.00
    2   -2    1     17.73      0.00
    3   -2    1      7.55      0.00
    4   -2    1      5.82      0.00
    5   -2    1      8.59      0.00
    6   -2    1      8.14      0.00
    7   -2    1      3.51      0.00
    8   -2    1     -1.07      0.00
    9   -2    1     -2.38      0.00
   10   -2    1     -1.33      0.00
  -10   -1    1     -1.32      0.00
   -9   -1    1     -2.25      0.00
   -8   -1    1     -0.51      0.00
   -7   -1    1      3.48      0.00
   -6   -1    1      6.19      0.00
   -5   -1    1      4.90      0.00
   -4   -1    1      2.18      0.00
   -3   -1    1      4.11      0.00
   -2   -1    1      7.36      0.00
   -1   -1    1     -4.53      0.00
    0   -1    1    -34.20      0.00
    1   -1    1    -53.79      0.00
    2   -1    1    -40.40      0.00
    3   -1    1     -9.09      0.00
    4   -1    1     11.33      0.00
    5   -1    1     13.04      0.00
    6   -1    1      6.59      0.00
    7   -1    1      1.98      0.00
    8   -1    1      1.08      0.00
    9   -1    1      1.14      0.00
   10   -1    1      0.50      0.00
  -10    0    1     -0.93      0.00
   -9    0    1     -0.83      0.00
   -8    0    1     -0.51      0.00
   -7    0    1     -0.84      0.00
   -6    0    1      0.70      0.00
   -5    0    1      8.61      0.00
   -4    0    1     20.71      0.00
   -3    0    1     21.84      0.00
   -2    0    1     -3.85      0.00
   -1    0    1    -44.72      0.00
    0    0    1    -63.46      0.00
    1    0    1    -45.12      0.00
    2    0    1    -16.62      0.00
    3    0    1     -4.01      0.00
    4    0    1     -3.68      0.00
    5    0    1     -2.50      0.00
    6    0    1      1.94      0.00
    7    0    1      4.98      0.00
    8    0    1      4.14      0.00
    9    0    1      1.41      0.00
   10    0    1     -0.23      0.00
  -10    1    1     -0.06      0.00
   -9    1    1     -1.58      0.00
   -8    1    1     -3.84      0.00
   -7    1    1     -3.46      0.00
   -6    1    1      1.56      0.00
   -5    1    1      8.29      0.00
   -4    1    1     10.72      0.00
   -3    1    1      8.72      0.00
   -2    1    1     12.93      0.00
   -1    1    1     27.85      0.00
    0    1    1     34.93      0.00
    1    1    1     16.63      0.00
    2    1    1    -12.33      0.00
    3    1    1    -24.25      0.00
    4    1    1    -15.18      0.00
    5    1    1     -1.79      0.00
    6    1    1      3.85      0.00
    7    1    1      2.66      0.00
    8    1    1      0.26      0.00
    9    1    1     -0.47      0.00
   10    1    1     -0.14      0.00
  -10    2    1     -0.63      0.00
   -9    2    1     -2.05      0.00
   -8    2    1     -2.55      0.00
   -7    2    1     -2.89      0.00
   -6    2    1     -5.28      0.00
   -5    2    1     -7.48      0.00
   -4    2    1     -0.77      0.00
   -3    2    1     20.94      0.00
   -2    2    1     46.00      0.00
   -1    2    1     48.71      0.00
    0    2    1     22.12      0.00
    1    2    1     -7.35      0.00
    2    2    1    -15.14      0.00
    3    2    1     -7.44      0.00
    4    2    1     -1.92      0.00
    5    2    1     -2.76      0.00
    6    2    1     -4.06      0.00
    7    2    1     -2.24      0.00
    8    2    1      0.89      0.00
    9    2    1      2.12      0.00
   10    2    1      1.16      0.00
  -10    3    1      0.65      0.00
   -9    3    1      0.95      0.00
   -8    3    1     -0.89      0.00
   -7    3    1     -5.43      0.00
   -6    3    1     -9.18      0.00
   -5    3    1     -7.60      0.00
   -4    3    1     -1.04      0.00
   -3    3    1      3.04      0.00
   -2    3    1     -0.94      0.00
   -1    3    1     -5.53      0.00
    0    3    1      0.48      0.00
    1    3    1     11.96      0.00
    2    3    1     13.38      0.00
    3    3    1      2.71      0.00
    4    3    1     -7.43      0.00
    5    3    1     -8.38      0.00
    6    3    1     -3.18      0.00
    7    3    1      1.31      0.00
    8    3    1      2.29      0.00
    9    3    1      1.24      0.00
   10    3    1      0.27      0.00
  -10    4    1      1.32      0.00
   -9    4    1      1.41      0.00
   -8    4    1      0.13      0.00
   -7    4    1     -0.80      0.00
   -6    4    1     -1.44      0.00
   -5    4    1     -5.06      0.00
   -4    4    1    -12.74      0.00
   -3    4    1    -17.95      0.00
   -2    4    1    -10.97      0.00
   -1    4    1      7.07      0.00
    0    4    1     20.04      0.00
    1    4    1     16.11      0.00
    2    4    1      3.33      0.00
    3    4    1     -3.77      0.00
    4    4    1     -2.49      0.00
    5    4    1      0.58      0.00
    6    4    1      0.66      0.00
    7    4    1     -1.18      0.00
    8    4    1     -1.84      0.00
    9    4    1     -0.87      0.00
  -10    5    1      0.21      0.00
   -9    5    1      0.85      0.00
   -8    5    1      2.59      0.00
   -7    5    1      3.44      0.00
   -6    5    1      0.73      0.00
   -5    5    1     -4.27      0.00
   -4    5    1     -6.46      0.00
   -3    5    1     -2.69      0.00
   -2    5    1      3.01      0.00
   -1    5    1      3.68      0.00
    0    5    1      0.09      0.00
    1    5    1     -0.40      0.00
    2    5    1      4.10      0.00
    3    5    1      7.48      0.00
    4    5    1      5.19      0.00
    5    5    1     -0.24      0.00
    6    5    1     -3.52      0.00
    7    5    1     -3.03      0.00
    8    5    1     -1.05      0.00
    9    5    1      0.14      0.00
   -9    6    1      0.94      0.00
   -8    6    1      1.77      0.00
   -7    6    1      1.41      0.00
   -6    6    1      1.19      0.00
   -5    6    1      2.39      0.00
   -4    6    1      2.84      0.00
   -3    6    1     -0.81      0.00
   -2    6    1     -7.07      0.00
   -1    6    1     -9.10      0.00
    0    6    1     -3.39      0.00
    1    6    1      4.47      0.00
    2    6    1      6.82      0.00
    3    6    1      3.27      0.00
    4    6    1     -0.73      0.00
    5    6    1     -1.37      0.00
    6    6    1      0.14      0.00
    7    6    1      0.93      0.00
    8    6    1      0.47      0.00
   -9    7    1     -0.18      0.00
   -8    7    1     -0.44      0.00
   -7    7    1      0.67      0.00
   -6    7    1      2.61      0.00
   -5    7    1      2.42      0.00
   -4    7    1     -0.98      0.00
   -3    7    1     -4.55      0.00
   -2    7    1     -4.50      0.00
   -1    7    1     -1.40      0.00
    0    7    1      0.43      0.00
    1    7    1     -0.87      0.00
    2    7    1     -2.33      0.00
    3    7    1     -0.97      0.00
    4    7    1      1.98      0.00
    5    7    1      3.21      0.00
    6    7    1      1.92      0.00
    7    7    1      0.24      0.00
   -8    8    1      0.12      0.00
   -7    8    1      0.86      0.00
   -6    8    1      0.67      0.00
   -5    8    1     -0.13      0.00
   -4    8    1      0.30      0.00
   -3    8    1      1.88      0.00
   -2    8    1      1.97      0.00
   -1    8    1     -0.72      0.00
    0    8    1     -3.63      0.00
    1    8    1     -3.45      0.00
    2    8    1     -0.43      0.00
    3    8    1      2.05      0.00
    4    8    1      1.80      0.00
    5    8    1      0.17      0.00
    6    8    1     -0.51      0.00
    7    8    1     -0.18      0.00
   -8    9    1     -0.02      0.00
   -7    9    1     -0.33      0.00
   -6    9    1      0.00      0.00
   -5    9    1      1.38      0.00
   -4    9    1      2.51      0.00
   -3    9    1      1.81      0.00
   -2    9    1     -0.35      0.00
   -1    9    1     -1.67      0.00
    0    9    1     -0.99      0.00
    1    9    1      0.17      0.00
    2    9    1     -0.01      0.00
    3    9    1     -1.24      0.00
    4    9    1     -1.66      0.00
    5    9    1     -0.71      0.00
    6    9    1      0.13      0.00
   -7   10    1     -0.06      0.00
   -6   10    1      0.47      0.00
   -5   10    1      0.73      0.00
   -4   10    1      0.28      0.00
   -3   10    1     -0.10      0.00
   -2   10    1      0.44      0.00
   -1   10    1      1.22      0.00
    0   10    1      0.90      0.00
    1   10    1     -0.51      0.00
    2   10    1     -1.51      0.00
    3   10    1     -1.05      0.00
    4   10    1      0.06      0.00
   -5   11    1     -0.33      0.00
   -4   11    1     -0.04      0.00
   -3   11    1      0.54      0.00
   -2   11    1      0.87      0.00
   -1   11    1      0.50      0.00
    0   11    1     -0.16      0.00
    1   11    1     -0.24      0.00
    2   11    1      0.17      0.00
    3   11    1      0.29      0.00
   -2   12    1     -0.13      0.00
   -1   12    1     -0.25      0.00
   -1  -12    2      0.40      0.00
    0  -12    2      0.59      0.00
    1  -12    2      0.16      0.00
    2  -12    2     -0.37      0.00
    3  -12    2     -0.44      0.00
   -3  -11    2      0.21      0.00
   -2  -11    2      0.80      0.00
   -1  -11    2      0.75      0.00
    0  -11    2      0.15      0.00
    1  -11    2     -0.22      0.00
    2  -11    2      0.05      0.00
    3  -11    2      0.35      0.00
    4  -11    2      0.01      0.00
    5  -11    2     -0.46      0.00
   -5  -10    2      0.18      0.00
   -4  -10    2      0.73      0.00
   -3  -10    2      0.50      0.00
   -2  -10    2     -0.68      0.00
   -1  -10    2     -1.33      0.00
    0  -10    2     -0.38      0.00
    1  -10    2      1.35      0.00
    2  -10    2      1.96      0.00
    3  -10    2      0.89      0.00
    4  -10    2     -0.37      0.00
    5  -10    2     -0.69      0.00
    6  -10    2     -0.54      0.00
    7  -10    2     -0.45      0.00
   -6   -9    2      0.73      0.00
   -5   -9    2      0.68      0.00
   -4   -9    2     -0.73      0.00
   -3   -9    2     -2.25      0.00
   -2   -9    2     -1.96      0.00
   -1   -9    2      0.02      0.00
    0   -9    2      1.67      0.00
    1   -9    2      1.51      0.00
    2   -9    2      0.32      0.00
    3   -9    2      0.06      0.00
    4   -9    2      1.05      0.00
    5   -9    2      1.45      0.00
    6   -9    2      0.40      0.00
    7   -9    2     -0.65      0.00
    8   -9    2     -0.59      0.00
   -7   -8    2      0.58      0.00
   -6   -8    2      0.31      0.00
   -5   -8    2     -0.69      0.00
   -4   -8    2     -0.95      0.00
   -3   -8    2      0.11      0.00
   -2   -8    2      0.68      0.00
   -1   -8    2     -0.93      0.00
    0   -8    2     -3.19      0.00
    1   -8    2     -2.85      0.00
    2   -8    2      0.69      0.00
    3   -8    2      4.18      0.00
    4   -8    2      4.35      0.00
    5   -8    2      1.77      0.00
    6   -8    2     -0.42      0.00
    7   -8    2     -0.78      0.00
    8   -8    2     -0.41      0.00
   -8   -7    2     -0.18      0.00
   -7   -7    2     -0.47      0.00
   -6   -7    2      0.12      0.00
   -5   -7    2      2.07      0.00
   -4   -7    2      3.41      0.00
   -3   -7    2      1.29      0.00
   -2   -7    2     -3.72      0.00
   -1   -7    2     -7.01      0.00
    0   -7    2     -5.27      0.00
    1   -7    2     -0.58      0.00
    2   -7    2      2.24      0.00
    3   -7    2      1.36      0.00
    4   -7    2     -0.30      0.00
    5   -7    2      0.20      0.00
    6   -7    2      1.72      0.00
    7   -7    2      1.68      0.00
    8   -7    2      0.36      0.00
    9   -7    2     -0.29      0.00
   -8   -6    2     -0.62      0.00
   -7   -6    2      0.50      0.00
   -6   -6    2      2.53      0.00
   -5   -6    2      3.10      0.00
   -4   -6    2      1.21      0.00
   -3   -6    2     -0.81      0.00
   -2   -6    2     -0.27      0.00
   -1   -6    2      1.32      0.00
    0   -6    2     -0.77      0.00
    1   -6    2     -6.99      0.00
    2   -6    2    -10.99      0.00
    3   -6    2     -7.74      0.00
    4   -6    2     -0.20      0.00
    5   -6    2      4.88      0.00
    6   -6    2      4.64      0.00
    7   -6    2      1.94      0.00
    8   -6    2      0.58      0.00
    9   -6    2      0.53      0.00
   -9   -5    2     -0.35      0.00
   -8   -5    2     -0.11      0.00
   -7   -5    2      0.02      0.00
   -6   -5    2     -0.65      0.00
   -5   -5    2     -0.16      0.00
   -4   -5    2      4.28      0.00
   -3   -5    2     10.86      0.00
   -2   -5    2     12.17      0.00
   -1   -5    2      3.15      0.00
    0   -5    2     -9.78      0.00
    1   -5    2    -14.48      0.00
    2   -5    2     -8.45      0.00
    3   -5    2     -0.45      0.00
    4   -5    2      2.22      0.00
    5   -5    2      0.69      0.00
    6   -5    2     -0.16      0.00
    7   -5    2      1.17      0.00
    8   -5    2      2.13      0.00
    9   -5    2      1.23      0.00
   10   -5    2      0.00      0.00
   -9   -4    2     -0.24      0.00
   -8   -4    2     -1.84      0.00
   -7   -4    2     -3.73      0.00
   -6   -4    2     -2.96      0.00
   -5   -4    2      1.56      0.00
   -4   -4    2      6.58      0.00
   -3   -4    2      7.52      0.00
   -2   -4    2      4.85      0.00
   -1   -4    2      5.33      0.00
    0   -4    2     11.18      0.00
    1   -4    2     13.08      0.00
    2   -4    2      3.93      0.00
    3   -4    2     -8.66      0.00
    4   -4    2    -13.10      0.00
    5   -4    2     -7.85      0.00
    6   -4    2     -0.13      0.00
    7   -4    2      3.41      0.00
    8   -4    2      2.46      0.00
    9   -4    2      0.78      0.00
   10   -4    2      0.26      0.00
  -10   -3    2      0.25      0.00
   -9   -3    2     -0.76      0.00
   -8   -3    2     -2.21      0.00
   -7   -3    2     -2.66      0.00
   -6   -3    2     -3.18      0.00
   -5   -3    2     -5.92      0.00
   -4   -3    2     -8.57      0.00
   -3   -3    2     -3.07      0.00
   -2   -3    2     14.72      0.00
   -1   -3    2     32.02      0.00
    0   -3    2     28.55      0.00
    1   -3    2      4.79      0.00
    2   -3    2    -16.17      0.00
    3   -3    2    -18.96      0.00
    4   -3    2    -10.43      0.00
    5   -3    2     -3.58      0.00
    6   -3    2     -2.12      0.00
    7   -3    2     -2.23      0.00
    8   -3    2     -0.79      0.00
    9   -3    2      1.17      0.00
   10   -3    2      1.40      0.00
  -10   -2    2      0.25      0.00
   -9   -2    2      1.21      0.00
   -8   -2    2      1.72      0.00
   -7   -2    2     -0.56      0.00
   -6   -2    2     -5.95      0.00
   -5   -2    2    -10.30      0.00
   -4   -2    2     -7.41      0.00
   -3   -2    2      2.33      0.00
   -2   -2    2      7.90      0.00
   -1   -2    2      1.82      0.00
    0   -2    2     -5.00      0.00
    1   -2    2      0.97      0.00
    2   -2    2     12.12      0.00
    3   -2    2     12.12      0.00
    4   -2    2      1.03      0.00
    5   -2    2     -8.72      0.00
    6   -2    2     -9.97      0.00
    7   -2    2     -5.25      0.00
    8   -2    2     -0.67      0.00
    9   -2    2      0.75      0.00
   10   -2    2      0.41      0.00
  -10   -1    2      1.50      0.00
   -9   -1    2      3.07      0.00
   -8   -1    2      2.47      0.00
   -7   -1    2      0.36      0.00
   -6   -1    2     -1.07      0.00
   -5   -1    2     -2.56      0.00
   -4   -1    2     -8.48      0.00
   -3   -1    2    -20.09      0.00
   -2   -1    2    -24.81      0.00
   -1   -1    2     -4.22      0.00
    0   -1    2     34.46      0.00
    1   -1    2     55.95      0.00
    2   -1    2     42.33      0.00
    3   -1    2     14.44      0.00
    4   -1    2     -1.96      0.00
    5   -1    2     -4.01      0.00
    6   -1    2     -1.87      0.00
    7   -1    2     -1.78      0.00
    8   -1    2     -2.99      0.00
    9   -1    2     -2.92      0.00
   10   -1    2     -1.36      0.00
  -10    0    2      0.34      0.00
   -9    0    2      0.69      0.00
   -8    0    2      2.24      0.00
   -7    0    2      4.71      0.00
   -6    0    2      4.16      0.00
   -5    0    2     -3.92      0.00
   -4    0    2    -16.77      0.00
   -3    0    2    -21.24      0.00
   -2    0    2     -7.46      0.00
   -1    0    2     12.57      0.00
    0    0    2     17.17      0.00
    1    0    2      7.61      0.00
    2    0    2      3.83      0.00
    3    0    2     10.57      0.00
    4    0    2     14.83      0.00
    5    0    2      9.76      0.00
    6    0    2      1.09      0.00
    7    0    2     -3.82      0.00
    8    0    2     -3.47      0.00
    9    0    2     -1.13      0.00
   10    0    2      0.12      0.00
  -10    1    2     -0.87      0.00
   -9    1    2      0.67      0.00
   -8    1    2      3.37      0.00
   -7    1    2      4.28      0.00
   -6    1    2      3.03      0.00
   -5    1    2      2.15      0.00
   -4    1    2      2.50      0.00
   -3    1    2     -2.50      0.00
   -2    1    2    -22.46      0.00
   -1    1    2    -49.20      0.00
    0    1    2    -54.47      0.00
    1    1    2    -27.41      0.00
    2    1    2      6.02      0.00
    3    1    2     18.27      0.00
    4    1    2     11.38      0.00
    5    1    2      2.57      0.00
    6    1    2      0.13      0.00
    7    1    2      1.30      0.00
    8    1    2      1.67      0.00
    9    1    2      0.51      0.00
   10    1    2     -0.38      0.00
  -10    2    2     -0.19      0.00
   -9    2    2      0.03      0.00
   -8    2    2      0.03      0.00
   -7    2    2      1.88      0.00
   -6    2    2      7.45      0.00
   -5    2    2     13.07      0.00
   -4    2    2      9.68      0.00
   -3    2    2     -6.92      0.00
   -2    2    2    -25.09      0.00
   -1    2    2    -26.82      0.00
    0    2    2    -12.84      0.00
    1    2    2     -2.42      0.00
    2    2    2     -4.01      0.00
    3    2    2     -6.64      0.00
    4    2    2     -1.99      0.00
    5    2    2      4.83      0.00
    6    2    2      6.77      0.00
    7    2    2      3.51      0.00
    8    2    2     -0.58      0.00
    9    2    2     -2.00      0.00
   10    2    2     -1.10      0.00
  -10    3    2     -1.20      0.00
   -9    3    2     -2.51      0.00
   -8    3    2     -1.44      0.00
   -7    3    2      2.28      0.00
   -6    3    2      5.52      0.00
   -5    3    2      6.25      0.00
   -4    3    2      6.94      0.00
   -3    3    2     11.97      0.00
   -2    3    2     18.57      0.00
   -1    3    2     14.84      0.00
    0    3    2     -2.90      0.00
    1    3    2    -18.93      0.00
    2    3    2    -17.86      0.00
    3    3    2     -4.90      0.00
    4    3    2      4.62      0.00
    5    3    2      4.82      0.00
    6    3    2      0.81      0.00
    7    3    2     -1.35      0.00
    8    3    2     -0.79      0.00
    9    3    2      0.12      0.00
  -10    4    2     -0.99      0.00
   -9    4    2     -1.37      0.00
   -8    4    2     -1.65      0.00
   -7    4    2     -2.87      0.00
   -6    4    2     -3.25      0.00
   -5    4    2      1.14      0.00
   -4    4    2     10.20      0.00
   -3    4    2     16.20      0.00
   -2    4    2     10.79      0.00
   -1    4    2     -2.41      0.00
    0    4    2     -9.81      0.00
    1    4    2     -6.08      0.00
    2    4    2     -0.26      0.00
    3    4    2     -0.42      0.00
    4    4    2     -3.72      0.00
    5    4    2     -4.13      0.00
    6    4    2     -0.93      0.00
    7    4    2      2.22      0.00
    8    4    2      2.62      0.00
    9    4    2      1.10      0.00
  -10    5    2      0.36      0.00
   -9    5    2     -0.46      0.00
   -8    5    2     -2.86      0.00
   -7    5    2     -4.43      0.00
   -6    5    2     -3.09      0.00
   -5    5    2     -0.47      0.00
   -4    5    2      0.18      0.00
   -3    5    2     -1.21      0.00
   -2    5    2     -0.25      0.00
   -1    5    2      4.89      0.00
    0    5    2      8.15      0.00
    1    5    2      3.75      0.00
    2    5    2     -4.40      0.00
    3    5    2     -7.96      0.00
    4    5    2     -4.63      0.00
    5    5    2      0.69      0.00
    6    5    2      2.83      0.00
    7    5    2      1.68      0.00
    8    5    2      0.14      0.00
    9    5    2     -0.31      0.00
   -9    6    2     -0.34      0.00
   -8    6    2     -0.53      0.00
   -7    6    2     -0.37      0.00
   -6    6    2     -1.52      0.00
   -5    6    2     -4.03      0.00
   -4    6    2     -4.45      0.00
   -3    6    2      0.10      0.00
   -2    6    2      6.56      0.00
   -1    6    2      8.08      0.00
    0    6    2      3.19      0.00
    1    6    2     -1.96      0.00
    2    6    2     -2.21      0.00
    3    6    2      0.46      0.00
    4    6    2      1.40      0.00
    5    6    2     -0.37      0.00
    6    6    2     -2.11      0.00
    7    6    2     -1.86      0.00
    8    6    2     -0.54      0.00
   -9    7    2      0.78      0.00
   -8    7    2      1.30      0.00
   -7    7    2      0.17      0.00
   -6    7    2     -1.78      0.00
   -5    7    2     -1.90      0.00
   -4    7    2      0.09      0.00
   -3    7    2      1.41      0.00
   -2    7    2      0.32      0.00
   -1    7    2     -0.99      0.00
    0    7    2      0.46      0.00
    1    7    2      3.43      0.00
    2    7    2      3.99      0.00
    3    7    2      1.04      0.00
    4    7    2     -2.28      0.00
    5    7    2     -2.85      0.00
    6    7    2     -1.21      0.00
    7    7    2      0.13      0.00
   -8    8    2     -0.04      0.00
   -7    8    2     -0.23      0.00
   -6    8    2      0.19      0.00
   -5    8    2      0.21      0.00
   -4    8    2     -1.38      0.00
   -3    8    2     -3.33      0.00
   -2    8    2     -2.82      0.00
   -1    8    2      0.36      0.00
    0    8    2      2.90      0.00
    1    8    2      2.29      0.00
    2    8    2     -0.01      0.00
    3    8    2     -0.92      0.00
    4    8    2      0.24      0.00
    5    8    2      1.33      0.00
    6    8    2      1.00      0.00
   -7    9    2      0.65      0.00
   -6    9    2      0.35      0.00
   -5    9    2     -0.94      0.00
   -4    9    2     -1.76      0.00
   -3    9    2     -1.02      0.00
   -2    9    2      0.26      0.00
   -1    9    2      0.36      0.00
    0    9    2     -0.57      0.00
    1    9    2     -0.71      0.00
    2    9    2      0.63      0.00
    3    9    2      1.98      0.00
    4    9    2      1.74      0.00
    5    9    2      0.51      0.00
   -6   10    2     -0.15      0.00
   -5   10    2      0.07      0.00
   -4   10    2      0.59      0.00
   -3   10    2      0.41      0.00
   -2   10    2     -0.69      0.00
   -1   10    2     -1.49      0.00
    0   10    2     -0.89      0.00
    1   10    2      0.46      0.00
    2   10    2      0.95      0.00
    3   10    2      0.25      0.00
    4   10    2     -0.42      0.00
   -5   11    2      0.49      0.00
   -4   11    2      0.18      0.00
   -3   11    2     -0.29      0.00
   -2   11    2     -0.38      0.00
   -1   11    2      0.02      0.00
    0   11    2      0.24      0.00
    1   11    2     -0.18      0.00
    2   11    2     -0.55      0.00
   -1  -12    3     -0.52      0.00
    0  -12    3     -0.60      0.00
    1  -12    3     -0.13      0.00
    2  -12    3      0.25      0.00
    3  -12    3      0.12      0.00
   -3  -11    3     -0.40      0.00
   -2  -11    3     -0.52      0.00
   -1  -11    3     -0.02      0.00
    0  -11    3      0.46      0.00
    1  -11    3      0.23      0.00
    2  -11    3     -0.52      0.00
    3  -11    3     -0.77      0.00
    4  -11    3     -0.17      0.00
    5  -11    3      0.31      0.00
   -5  -10    3     -0.46      0.00
   -4  -10    3     -0.77      0.00
   -3  -10    3     -0.01      0.00
   -2  -10    3      1.41      0.00
   -1  -10    3      1.79      0.00
    0  -10    3      0.50      0.00
    1  -10    3     -1.18      0.00
    2  -10    3     -1.54      0.00
    3  -10    3     -0.66      0.00
    4  -10    3     -0.13      0.00
    5  -10    3     -0.26      0.00
    6  -10    3     -0.14      0.00
   -6   -9    3     -0.78      0.00
   -5   -9    3     -0.67      0.00
   -4   -9    3      0.52      0.00
   -3   -9    3      1.43      0.00
   -2   -9    3      0.80      0.00
   -1   -9    3     -0.46      0.00
    0   -9    3     -0.58      0.00
    1   -9    3      0.49      0.00
    2   -9    3      1.01      0.00
    3   -9    3     -0.18      0.00
    4   -9    3     -1.92      0.00
    5   -9    3     -2.18      0.00
    6   -9    3     -0.89      0.00
    7   -9    3      0.25      0.00
   -7   -8    3     -0.15      0.00
   -6   -8    3      0.02      0.00
   -5   -8    3      0.05      0.00
   -4   -8    3     -0.91      0.00
   -3   -8    3     -2.13      0.00
   -2   -8    3     -1.41      0.00
   -1   -8    3      1.81      0.00
    0   -8    3      4.70      0.00
    1   -8    3      4.10      0.00
    2   -8    3      0.35      0.00
    3   -8    3     -2.79      0.00
    4   -8    3     -2.72      0.00
    5   -8    3     -0.96      0.00
    6   -8    3     -0.09      0.00
    7   -8    3     -0.22      0.00
    8   -8    3     -0.16      0.00
   -8   -7    3      0.53      0.00
   -7   -7    3      0.96      0.00
   -6   -7    3      0.05      0.00
   -5   -7    3     -2.18      0.00
   -4   -7    3     -3.43      0.00
   -3   -7    3     -1.50      0.00
   -2   -7    3      2.19      0.00
   -1   -7    3      3.81      0.00
    0   -7    3      2.36      0.00
    1   -7    3      0.78      0.00
    2   -7    3      1.54      0.00
    3   -7    3      3.35      0.00
    4   -7    3      3.03      0.00
    5   -7    3      0.01      0.00
    6   -7    3     -2.70      0.00
    7   -7    3     -2.72      0.00
    8   -7    3     -1.20      0.00
    9   -7    3     -0.32      0.00
   -8   -6    3      0.81      0.00
   -7   -6    3      0.17      0.00
   -6   -6    3     -0.83      0.00
   -5   -6    3     -0.68      0.00
   -4   -6    3     -0.11      0.00
   -3   -6    3     -1.79      0.00
   -2   -6    3     -5.86      0.00
   -1   -6    3     -7.66      0.00
    0   -6    3     -2.58      0.00
    1   -6    3      6.65      0.00
    2   -6    3     11.69      0.00
    3   -6    3      8.53      0.00
    4   -6    3      1.74      0.00
    5   -6    3     -2.26      0.00
    6   -6    3     -2.06      0.00
    7   -6    3     -0.75      0.00
    8   -6    3     -0.66      0.00
    9   -6    3     -0.83      0.00
   -9   -5    3      0.01      0.00
   -8   -5    3      0.09      0.00
   -7   -5    3      1.06      0.00
   -6   -5    3      2.54      0.00
   -5   -5    3      1.75      0.00
   -4   -5    3     -3.45      0.00
   -3   -5    3    -10.38      0.00
   -2   -5    3    -12.21      0.00
   -1   -5    3     -6.05      0.00
    0   -5    3      1.60      0.00
    1   -5    3      3.18      0.00
    2   -5    3      0.45      0.00
    3   -5    3     -0.05      0.00
    4   -5    3      3.03      0.00
    5   -5    3      5.48      0.00
    6   -5    3      3.98      0.00
    7   -5    3      0.29      0.00
    8   -5    3     -1.69      0.00
    9   -5    3     -1.18      0.00
   10   -5    3     -0.22      0.00
   -9   -4    3     -0.43      0.00
   -8   -4    3      1.09      0.00
   -7   -4    3      3.28      0.00
   -6   -4    3      3.59      0.00
   -5   -4    3      2.05      0.00
   -4   -4    3      1.37      0.00
   -3   -4    3      2.20      0.00
   -2   -4    3     -0.07      0.00
   -1   -4    3    -10.19      0.00
    0   -4    3    -22.34      0.00
    1   -4    3    -22.86      0.00
    2   -4    3     -8.81      0.00
    3   -4    3      6.82      0.00
    4   -4    3     11.99      0.00
    5   -4    3      7.53      0.00
    6   -4    3      1.54      0.00
    7   -4    3     -0.73      0.00
    8   -4    3     -0.18      0.00
    9   -4    3      0.07      0.00
   10   -4    3     -0.37      0.00
  -10   -3    3     -0.30      0.00
   -9   -3    3     -0.07      0.00
   -8   -3    3      0.29      0.00
   -7   -3    3      0.78      0.00
   -6   -3    3      3.35      0.00
   -5   -3    3      9.31      0.00
   -4   -3    3     14.61      0.00
   -3   -3    3     10.54      0.00
   -2   -3    3     -5.58      0.00
   -1   -3    3    -20.82      0.00
    0   -3    3    -19.88      0.00
    1   -3    3     -6.56      0.00
    2   -3    3      2.59      0.00
    3   -3    3      1.82      0.00
    4   -3    3     -1.03      0.00
    5   -3    3      0.40      0.00
    6   -3    3      4.00      0.00
    7   -3    3      4.98      0.00
    8   -3    3      2.47      0.00
    9   -3    3     -0.36      0.00
   10   -3    3     -0.96      0.00
  -10   -2    3     -0.15      0.00
   -9   -2    3     -1.97      0.00
   -8   -2    3     -3.54      0.00
   -7   -2    3     -2.26      0.00
   -6   -2    3      1.76      0.00
   -5   -2    3      5.45      0.00
   -4   -2    3      6.20      0.00
   -3   -2    3      6.58      0.00
   -2   -2    3     12.10      0.00
   -1   -2    3     18.83      0.00
    0   -2    3     12.59      0.00
    1   -2    3     -8.40      0.00
    2   -2    3    -24.64      0.00
    3   -2    3    -21.34      0.00
    4   -2    3     -6.51      0.00
    5   -2    3      4.46      0.00
    6   -2    3      6.39      0.00
    7   -2    3      3.43      0.00
    8   -2    3      1.05      0.00
    9   -2    3      0.74      0.00
   10   -2    3      0.73      0.00
  -10   -1    3     -1.09      0.00
   -9   -1    3     -2.52      0.00
   -8   -1    3     -3.05      0.00
   -7   -1    3     -3.76      0.00
   -6   -1    3     -5.33      0.00
   -5   -1    3     -4.28      0.00
   -4   -1    3      5.10      0.00
   -3   -1    3     21.85      0.00
   -2   -1    3     30.62      0.00
   -1   -1    3     15.34      0.00
    0   -1    3    -14.28      0.00
    1   -1    3    -29.87      0.00
    2   -1    3    -22.44      0.00
    3   -1    3     -9.31      0.00
    4   -1    3     -4.51      0.00
    5   -1    3     -5.20      0.00
    6   -1    3     -4.06      0.00
    7   -1    3     -0.09      0.00
    8   -1    3      3.11      0.00
    9   -1    3      3.23      0.00
   10   -1    3      1.49      0.00
  -10    0    3      0.96      0.00
   -9    0    3      0.99      0.00
   -8    0    3     -1.48      0.00
   -7    0    3     -5.40      0.00
   -6    0    3     -6.96      0.00
   -5    0    3     -2.99      0.00
   -4    0    3      4.35      0.00
   -3    0    3      7.56      0.00
   -2    0    3      4.92      0.00
   -1    0    3      6.66      0.00
    0    0    3     17.30      0.00
    1    0    3     22.32      0.00
    2    0    3     10.01      0.00
    3    0    3     -8.39      0.00
    4    0    3    -15.76      0.00
    5    0    3    -10.67      0.00
    6    0    3     -2.65      0.00
    7    0    3      1.24      0.00
    8    0    3      0.83      0.00
    9    0    3     -0.41      0.00
   10    0    3     -0.43      0.00
  -10    1    3      1.63      0.00
   -9    1    3      0.95      0.00
   -8    1    3     -0.61      0.00
   -7    1    3     -1.45      0.00
   -6    1    3     -3.11      0.00
   -5    1    3     -8.12      0.00
   -4    1    3    -14.02      0.00
   -3    1    3    -10.45      0.00
   -2    1    3     10.97      0.00
   -1    1    3     37.83      0.00
    0    1    3     43.89      0.00
    1    1    3     24.31      0.00
    2    1    3      2.42      0.00
    3    1    3     -4.16      0.00
    4    1    3     -1.07      0.00
    5    1    3      0.13      0.00
    6    1    3     -2.43      0.00
    7    1    3     -4.36      0.00
    8    1    3     -3.19      0.00
    9    1    3     -0.62      0.00
   10    1    3      0.61      0.00
  -10    2    3      0.35      0.00
   -9    2    3      1.59      0.00
   -8    2    3      2.93      0.00
   -7    2    3      1.38      0.00
   -6    2    3     -4.46      0.00
   -5    2    3    -11.12      0.00
   -4    2    3    -12.00      0.00
   -3    2    3     -5.44      0.00
   -2    2    3      0.51      0.00
   -1    2    3     -0.66      0.00
    0    2    3     -1.90      0.00
    1    2    3      5.57      0.00
    2    2    3     15.34      0.00
    3    2    3     15.04      0.00
    4    2    3      5.12      0.00
    5    2    3     -3.85      0.00
    6    2    3     -5.64      0.00
    7    2    3     -2.38      0.00
    8    2    3      0.81      0.00
    9    2    3      1.36      0.00
   10    2    3      0.53      0.00
  -10    3    3      0.97      0.00
   -9    3    3      2.53      0.00
   -8    3    3      2.33      0.00
   -7    3    3      0.76      0.00
   -6    3    3      0.19      0.00
   -5    3    3     -0.01      0.00
   -4    3    3     -4.13      0.00
   -3    3    3    -14.37      0.00
   -2    3    3    -23.23      0.00
   -1    3    3    -18.30      0.00
    0    3    3     -0.61      0.00
    1    3    3     12.66      0.00
    2    3    3     10.98      0.00
    3    3    3      2.37      0.00
    4    3    3     -1.56      0.00
    5    3    3      0.35      0.00
    6    3    3      2.52      0.00
    7    3    3      1.72      0.00
    8    3    3     -0.43      0.00
    9    3    3     -1.15      0.00
  -10    4    3      0.06      0.00
   -9    4    3      0.05      0.00
   -8    4    3      1.42      0.00
   -7    4    3      4.54      0.00
   -6    4    3      6.54      0.00
   -5    4    3      3.76      0.00
   -4    4    3     -3.11      0.00
   -3    4    3     -7.79      0.00
   -2    4    3     -5.65      0.00
   -1    4    3     -1.21      0.00
    0    4    3     -1.63      0.00
    1    4    3     -5.08      0.00
    2    4    3     -4.15      0.00
    3    4    3      1.90      0.00
    4    4    3      6.34      0.00
    5    4    3      4.92      0.00
    6    4    3      0.39      0.00
    7    4    3     -2.47      0.00
    8    4    3     -2.19      0.00
    9    4    3     -0.67      0.00
  -10    5    3     -0.91      0.00
   -9    5    3     -0.27      0.00
   -8    5    3      1.81      0.00
   -7    5    3      3.04      0.00
   -6    5    3      2.56      0.00
   -5    5    3      2.47      0.00
   -4    5    3      4.17      0.00
   -3    5    3      4.96      0.00
   -2    5    3      0.56      0.00
   -1    5    3     -7.16      0.00
    0    5    3     -9.90      0.00
    1    5    3     -4.35      0.00
    2    5    3      2.94      0.00
    3    5    3      4.75      0.00
    4    5    3      1.42      0.00
    5    5    3     -1.72      0.00
    6    5    3     -1.60      0.00
    7    5    3      0.14      0.00
    8    5    3      0.83      0.00
   -9    6    3     -0.26      0.00
   -8    6    3     -1.02      0.00
   -7    6    3     -1.50      0.00
   -6    6    3      0.22      0.00
   -5    6    3      3.38      0.00
   -4    6    3      4.32      0.00
   -3    6    3      1.04      0.00
   -2    6    3     -3.10      0.00
   -1    6    3     -3.41      0.00
    0    6    3     -0.64      0.00
    1    6    3      0.44      0.00
    2    6    3     -1.62      0.00
    3    6    3     -3.27      0.00
    4    6    3     -1.63      0.00
    5    6    3      1.56      0.00
    6    6    3      2.93      0.00
    7    6    3      1.84      0.00
    8    6    3      0.27      0.00
   -9    7    3     -0.93      0.00
   -8    7    3     -1.52      0.00
   -7    7    3     -0.64      0.00
   -6    7    3      0.71      0.00
   -5    7    3      0.69      0.00
   -4    7    3     -0.03      0.00
   -3    7    3      0.73      0.00
   -2    7    3      2.78      0.00
   -1    7    3      2.96      0.00
    0    7    3     -0.17      0.00
    1    7    3     -3.49      0.00
    2    7    3     -3.37      0.00
    3    7    3     -0.40      0.00
    4    7    3      1.77      0.00
    5    7    3      1.27      0.00
    6    7    3     -0.26      0.00
    7    7    3     -0.73      0.00
   -8    8    3      0.24      0.00
   -7    8    3     -0.07      0.00
   -6    8    3     -0.93      0.00
   -5    8    3     -0.79      0.00
   -4    8    3      1.11      0.00
   -3    8    3      2.89      0.00
   -2    8    3      2.24      0.00
   -1    8    3     -0.18      0.00
    0    8    3     -1.40      0.00
    1    8    3     -0.41      0.00
    2    8    3      0.70      0.00
    3    8    3     -0.01      0.00
    4    8    3     -1.66      0.00
    5    8    3     -2.06      0.00
    6    8    3     -1.08      0.00
   -7    9    3     -0.68      0.00
   -6    9    3     -0.57      0.00
   -5    9    3      0.23      0.00
   -4    9    3      0.45      0.00
   -3    9    3     -0.25      0.00
   -2    9    3     -0.52      0.00
   -1    9    3      0.45      0.00
    0    9    3      1.48      0.00
    1    9    3      0.96      0.00
    2    9    3     -0.71      0.00
    3    9    3     -1.59      0.00
    4    9    3     -0.86      0.00
    5    9    3      0.10      0.00
   -6   10    3     -0.02      0.00
   -5   10    3     -0.58      0.00
   -4   10    3     -1.08      0.00
   -3   10    3     -0.56      0.00
   -2   10    3      0.64      0.00
   -1   10    3      1.15      0.00
    0   10    3      0.47      0.00
    1   10    3     -0.33      0.00
    2   10    3     -0.18      0.00
    3   10    3      0.51      0.00
    4   10    3      0.64      0.00
   -4   11    3      0.06      0.00
   -3   11    3      0.30      0.00
   -2   11    3      0.03      0.00
   -1   11    3     -0.39      0.00
    0   11    3     -0.19      0.00
    1   11    3      0.51      0.00
    2   11    3      0.67      0.00
   -1  -12    4      0.42      0.00
    0  -12    4      0.34      0.00
    1  -12    4     -0.07      0.00
    2  -12    4     -0.26      0.00
   -3  -11    4      0.48      0.00
   -2  -11    4      0.16      0.00
   -1  -11    4     -0.65      0.00
    0  -11    4     -0.92      0.00
    1  -11    4     -0.26      0.00
    2  -11    4      0.60      0.00
    3  -11    4      0.68      0.00
    4  -11    4      0.15      0.00
    5  -11    4     -0.02      0.00
   -5  -10    4      0.53      0.00
   -4  -10    4      0.73      0.00
   -3  -10    4     -0.13      0.00
   -2  -10    4     -1.29      0.00
   -1  -10    4     -1.32      0.00
    0  -10    4     -0.20      0.00
    1  -10    4      0.71      0.00
    2  -10    4      0.52      0.00
    3  -10    4      0.03      0.00
    4  -10    4      0.33      0.00
    5  -10    4      0.86      0.00
    6  -10    4      0.68      0.00
   -6   -9    4      0.59      0.00
   -5   -9    4      0.53      0.00
   -4   -9    4     -0.03      0.00
   -3   -9    4     -0.02      0.00
   -2   -9    4      0.90      0.00
   -1   -9    4      1.25      0.00
    0   -9    4     -0.15      0.00
    1   -9    4     -2.08      0.00
    2   -9    4     -2.26      0.00
    3   -9    4     -0.37      0.00
    4   -9    4      1.47      0.00
    5   -9    4      1.64      0.00
    6   -9    4      0.74      0.00
    7   -9    4      0.03      0.00
   -7   -8    4     -0.32      0.00
   -6   -8    4     -0.61      0.00
   -5   -8    4     -0.04      0.00
   -4   -8    4      1.71      0.00
   -3   -8    4      3.07      0.00
   -2   -8    4      1.85      0.00
   -1   -8    4     -1.46      0.00
    0   -8    4     -3.86      0.00
    1   -8    4     -3.30      0.00
    2   -8    4     -0.85      0.00
    3   -8    4      0.62      0.00
    4   -8    4      0.07      0.00
    5   -8    4     -0.58      0.00
    6   -8    4      0.06      0.00
    7   -8    4      0.93      0.00
    8   -8    4      0.81      0.00
   -8   -7    4     -0.68      0.00
   -7   -7    4     -1.32      0.00
   -6   -7    4     -0.72      0.00
   -5   -7    4      0.84      0.00
   -4   -7    4      1.55      0.00
   -3   -7    4      0.49      0.00
   -2   -7    4     -0.46      0.00
   -1   -7    4      0.71      0.00
    0   -7    4      2.37      0.00
    1   -7    4      1.18      0.00
    2   -7    4     -2.86      0.00
    3   -7    4     -5.86      0.00
    4   -7    4     -4.76      0.00
    5   -7    4     -0.90      0.00
    6   -7    4      1.98      0.00
    7   -7    4      2.18      0.00
    8   -7    4      1.11      0.00
    9   -7    4      0.46      0.00
   -8   -6    4     -0.50      0.00
   -7   -6    4     -0.33      0.00
   -6   -6    4     -0.58      0.00
   -5   -6    4     -1.78      0.00
   -4   -6    4     -1.79      0.00
   -3   -6    4      2.08      0.00
   -2   -6    4      8.26      0.00
   -1   -6    4     10.64      0.00
    0   -6    4      5.63      0.00
    1   -6    4     -2.70      0.00
    2   -6    4     -7.03      0.00
    3   -6    4     -5.36      0.00
    4   -6    4     -2.03      0.00
    5   -6    4     -1.01      0.00
    6   -6    4     -1.76      0.00
    7   -6    4     -1.65      0.00
    8   -6    4     -0.24      0.00
    9   -6    4      0.61      0.00
   -9   -5    4      0.58      0.00
   -8   -5    4      0.71      0.00
   -7   -5    4     -0.74      0.00
   -6   -5    4     -2.79      0.00
   -5   -5    4     -2.65      0.00
   -4   -5    4      0.78      0.00
   -3   -5    4      4.87      0.00
   -2   -5    4      5.64      0.00
   -1   -5    4      3.47      0.00
    0   -5    4      3.53      0.00
    1   -5    4      7.11      0.00
    2   -5    4      8.42      0.00
    3   -5    4      3.56      0.00
    4   -5    4     -3.70      0.00
    5   -5    4     -7.17      0.00
    6   -5    4     -5.16      0.00
    7   -5    4     -1.23      0.00
    8   -5    4      0.70      0.00
    9   -5    4      0.56      0.00
   -9   -4    4      0.86      0.00
   -8   -4    4      0.04      0.00
   -7   -4    4     -1.53      0.00
   -6   -4    4     -2.42      0.00
   -5   -4    4     -3.74      0.00
   -4   -4    4     -7.66      0.00
   -3   -4    4    -11.84      0.00
   -2   -4    4     -8.59      0.00
   -1   -4    4      5.45      0.00
    0   -4    4     20.50      0.00
    1   -4    4     22.69      0.00
    2   -4    4     11.67      0.00
    3   -4    4     -0.07      0.00
    4   -4    4     -3.77      0.00
    5   -4    4     -1.77      0.00
    6   -4    4     -0.06      0.00
    7   -4    4     -0.71      0.00
    8   -4    4     -1.64      0.00
    9   -4    4     -0.97      0.00
   10   -4    4      0.17      0.00
  -10   -3    4     -0.04      0.00
   -9   -3    4      0.21      0.00
   -8   -3    4      1.22      0.00
   -7   -3    4      1.82      0.00
   -6   -3    4     -0.59      0.00
   -5   -3    4     -6.80      0.00
   -4   -3    4    -12.99      0.00
   -3   -3    4    -12.46      0.00
   -2   -3    4     -4.27      0.00
   -1   -3    4      2.62      0.00
    0   -3    4      1.73      0.00
    1   -3    4     -0.50      0.00
    2   -3    4      3.53      0.00
    3   -3    4      9.62      0.00
    4   -3    4      9.64      0.00
    5   -3    4      3.40      0.00
    6   -3    4     -2.87      0.00
    7   -3    4     -4.43      0.00
    8   -3    4     -2.15      0.00
    9   -3    4      0.05      0.00
   10   -3    4      0.37      0.00
  -10   -2    4     -0.16      0.00
   -9   -2    4      1.70      0.00
   -8   -2    4      3.88      0.00
   -7   -2    4      4.36      0.00
   -6   -2    4      3.60      0.00
   -5   -2    4      3.20      0.00
   -4   -2    4      1.96      0.00
   -3   -2    4     -5.23      0.00
   -2   -2    4    -20.10      0.00
   -1   -2    4    -31.26      0.00
    0   -2    4    -23.37      0.00
    1   -2    4     -0.19      0.00
    2   -2    4     16.60      0.00
    3   -2    4     15.44      0.00
    4   -2    4      5.68      0.00
    5   -2    4     -0.40      0.00
    6   -2    4     -0.84      0.00
    7   -2    4      0.18      0.00
    8   -2    4     -0.27      0.00
    9   -2    4     -1.41      0.00
   10   -2    4     -1.29      0.00
  -10   -1    4      0.26      0.00
   -9   -1    4      0.58      0.00
   -8   -1    4      1.32      0.00
   -7   -1    4      4.01      0.00
   -6   -1    4      8.41      0.00
   -5   -1    4     10.16      0.00
   -4   -1    4      3.37      0.00
   -3   -1    4    -10.95      0.00
   -2   -1    4    -20.35      0.00
   -1   -1    4    -14.65      0.00
    0   -1    4     -2.23      0.00
    1   -1    4      2.03      0.00
    2   -1    4     -0.94      0.00
    3   -1    4     -0.33      0.00
    4   -1    4      5.47      0.00
    5   -1    4      9.29      0.00
    6   -1    4      7.02      0.00
    7   -1    4      1.60      0.00
    8   -1    4     -1.91      0.00
    9   -1    4     -1.96      0.00
   10   -1    4     -0.71      0.00
  -10    0    4     -2.00      0.00
   -9    0    4     -2.91      0.00
   -8    0    4     -1.05      0.00
   -7    0    4      2.33      0.00
   -6    0    4      4.66      0.00
   -5    0    4      5.09      0.00
   -4    0    4      5.74      0.00
   -3    0    4      8.86      0.00
   -2    0    4      9.01      0.00
   -1    0    4     -3.11      0.00
    0    0    4    -22.01      0.00
    1    0    4    -27.97      0.00
    2    0    4    -14.42      0.00
    3    0    4      2.79      0.00
    4    0    4      8.86      0.00
    5    0    4      5.56      0.00
    6    0    4      1.54      0.00
    7    0    4      0.83      0.00
    8    0    4      1.93      0.00
    9    0    4      1.96      0.00
   10    0    4      0.72      0.00
  -10    1    4     -1.34      0.00
   -9    1    4     -1.70      0.00
   -8    1    4     -2.28      0.00
   -7    1    4     -3.10      0.00
   -6    1    4     -1.20      0.00
   -5    1    4      6.24      0.00
   -4    1    4     16.11      0.00
   -3    1    4     17.94      0.00
   -2    1    4      4.90      0.00
   -1    1    4    -12.86      0.00
    0    1    4    -18.48      0.00
    1    1    4    -11.78      0.00
    2    1    4     -6.45      0.00
    3    1    4     -7.49      0.00
    4    1    4     -7.98      0.00
    5    1    4     -3.50      0.00
    6    1    4      2.44      0.00
    7    1    4      4.81      0.00
    8    1    4      2.93      0.00
    9    1    4      0.23      0.00
   10    1    4     -0.60      0.00
  -10    2    4      0.27      0.00
   -9    2    4     -1.60      0.00
   -8    2    4     -3.92      0.00
   -7    2    4     -3.59      0.00
   -6    2    4     -0.03      0.00
   -5    2    4      4.16      0.00
   -4    2    4      5.85      0.00
   -3    2    4      6.24      0.00
   -2    2    4     10.16      0.00
   -1    2    4     15.40      0.00
    0    2    4     11.67      0.00
    1    2    4     -2.69      0.00
    2    2    4    -14.56      0.00
    3    2    4    -13.49      0.00
    4    2    4     -4.48      0.00
    5    2    4      1.93      0.00
    6    2    4      2.24      0.00
    7    2    4     -0.23      0.00
    8    2    4     -1.40      0.00
    9    2    4     -0.63      0.00
  -10    3    4     -0.23      0.00
   -9    3    4     -0.95      0.00
   -8    3    4     -0.94      0.00
   -7    3    4     -1.47      0.00
   -6    3    4     -4.06      0.00
   -5    3    4     -6.34      0.00
   -4    3    4     -3.13      0.00
   -3    3    4      6.87      0.00
   -2    3    4     15.87      0.00
   -1    3    4     14.25      0.00
    0    3    4      4.51      0.00
    1    3    4     -1.50      0.00
    2    3    4      0.21      0.00
    3    3    4      2.44      0.00
    4    3    4      0.09      0.00
    5    3    4     -3.72      0.00
    6    3    4     -4.30      0.00
    7    3    4     -1.53      0.00
    8    3    4      1.14      0.00
    9    3    4      1.36      0.00
  -10    4    4      0.84      0.00
   -9    4    4      1.48      0.00
   -8    4    4     -0.11      0.00
   -7    4    4     -3.74      0.00
   -6    4    4     -6.27      0.00
   -5    4    4     -5.26      0.00
   -4    4    4     -1.91      0.00
   -3    4    4     -0.18      0.00
   -2    4    4     -0.66      0.00
   -1    4    4      1.29      0.00
    0    4    4      6.95      0.00
    1    4    4     10.12      0.00
    2    4    4      5.94      0.00
    3    4    4     -1.62      0.00
    4    4    4     -5.13      0.00
    5    4    4     -2.87      0.00
    6    4    4      0.85      0.00
    7    4    4      2.09      0.00
    8    4    4      1.05      0.00
    9    4    4      0.06      0.00
  -10    5    4      0.87      0.00
   -9    5    4      0.49      0.00
   -8    5    4     -0.48      0.00
   -7    5    4     -0.38      0.00
   -6    5    4      0.20      0.00
   -5    5    4     -1.20      0.00
   -4    5    4     -4.75      0.00
   -3    5    4     -6.33      0.00
   -2    5    4     -2.25      0.00
   -1    5    4      4.22      0.00
    0    5    4      5.93      0.00
    1    5    4      1.93      0.00
    2    5    4     -1.69      0.00
    3    5    4     -0.88      0.00
    4    5    4      1.79      0.00
    5    5    4      2.24      0.00
    6    5    4      0.20      0.00
    7    5    4     -1.51      0.00
    8    5    4     -1.22      0.00
   -9    6    4      0.47      0.00
   -8    6    4      1.90      0.00
   -7    6    4      2.63      0.00
   -6    6    4      0.97      0.00
   -5    6    4     -1.88      0.00
   -4    6    4     -2.87      0.00
   -3    6    4     -1.31      0.00
   -2    6    4     -0.13      0.00
   -1    6    4     -1.23      0.00
    0    6    4     -2.21      0.00
    1    6    4     -0.30      0.00
    2    6    4      2.97      0.00
    3    6    4      3.68      0.00
    4    6    4      0.95      0.00
    5    6    4     -2.02      0.00
    6    6    4     -2.41      0.00
    7    6    4     -0.96      0.00
    8    6    4      0.11      0.00
   -9    7    4      0.67      0.00
   -8    7    4      0.99      0.00
   -7    7    4      0.34      0.00
   -6    7    4     -0.06      0.00
   -5    7    4      0.61      0.00
   -4    7    4      0.83      0.00
   -3    7    4     -1.00      0.00
   -2    7    4     -3.41      0.00
   -1    7    4     -3.22      0.00
    0    7    4     -0.21      0.00
    1    7    4      2.16      0.00
    2    7    4      1.47      0.00
    3    7    4     -0.57      0.00
    4    7    4     -1.00      0.00
    5    7    4      0.38      0.00
    6    7    4      1.38      0.00
    7    7    4      0.96      0.00
   -8    8    4     -0.54      0.00
   -7    8    4      0.11      0.00
   -6    8    4      1.33      0.00
   -5    8    4      1.37      0.00
   -4    8    4     -0.16      0.00
   -3    8    4     -1.36      0.00
   -2    8    4     -0.73      0.00
   -1    8    4      0.51      0.00
    0    8    4      0.33      0.00
    1    8    4     -0.92      0.00
    2    8    4     -1.11      0.00
    3    8    4      0.42      0.00
    4    8    4      1.85      0.00
    5    8    4      1.60      0.00
    6    8    4      0.52      0.00
   -7    9    4      0.59      0.00
   -6    9    4      0.50      0.00
   -5    9    4      0.11      0.00
   -4    9    4      0.45      0.00
   -3    9    4      1.13      0.00
   -2    9    4      0.76      0.00
   -1    9    4     -0.64      0.00
    0    9    4     -1.49      0.00
    1    9    4     -0.76      0.00
    2    9    4      0.54      0.00
    3    9    4      0.71      0.00
    4    9    4     -0.19      0.00
    5    9    4     -0.63      0.00
   -6   10    4     -0.06      0.00
   -5   10    4      0.54      0.00
   -4   10    4      0.91      0.00
   -3   10    4      0.32      0.00
   -2   10    4     -0.54      0.00
   -1   10    4     -0.60      0.00
    0   10    4      0.01      0.00
    1   10    4      0.19      0.00
    2   10    4     -0.40      0.00
    3   10    4     -0.82      0.00
   -4   11    4     -0.32      0.00
   -3   11    4     -0.29      0.00
   -2   11    4      0.22      0.00
   -1   11    4      0.53      0.00
    0   11    4      0.06      0.00
    1   11    4     -0.62      0.00
    0  -12    5     -0.15      0.00
    1  -12    5      0.08      0.00
    2  -12    5      0.17      0.00
   -3  -11    5     -0.49      0.00
   -2  -11    5      0.06      0.00
   -1  -11    5      0.87      0.00
    0  -11    5      0.88      0.00
    1  -11    5      0.10      0.00
    2  -11    5     -0.54      0.00
    3  -11    5     -0.39      0.00
    4  -11    5     -0.06      0.00
    5  -11    5     -0.18      0.00
   -5  -10    5     -0.54      0.00
   -4  -10    5     -0.67      0.00
   -3  -10    5     -0.07      0.00
   -2  -10    5      0.49      0.00
   -1  -10    5      0.20      0.00
    0  -10    5     -0.42      0.00
    1  -10    5     -0.28      0.00
    2  -10    5      0.49      0.00
    3  -10    5      0.69      0.00
    4  -10    5     -0.05      0.00
    5  -10    5     -0.71      0.00
    6  -10    5     -0.68      0.00
   -6   -9    5     -0.27      0.00
   -5   -9    5     -0.15      0.00
   -4   -9    5     -0.19      0.00
   -3   -9    5     -1.07      0.00
   -2   -9    5     -2.19      0.00
   -1   -9    5     -1.88      0.00
    0   -9    5      0.28      0.00
    1   -9    5      2.45      0.00
    2   -9    5      2.55      0.00
    3   -9    5      0.91      0.00
    4   -9    5     -0.35      0.00
    5   -9    5     -0.35      0.00
    6   -9    5     -0.01      0.00
    7   -9    5      0.04      0.00
   -7   -8    5      0.67      0.00
   -6   -8    5      1.21      0.00
   -5   -8    5      0.62      0.00
   -4   -8    5     -1.15      0.00
   -3   -8    5     -2.31      0.00
   -2   -8    5     -1.31      0.00
   -1   -8    5      0.70      0.00
    0   -8    5      1.45      0.00
    1   -8    5      0.67      0.00
    2   -8    5     -0.05      0.00
    3   -8    5      0.62      0.00
    4   -8    5      1.86      0.00
    5   -8    5      1.82      0.00
    6   -8    5      0.33      0.00
    7   -8    5     -1.01      0.00
    8   -8    5     -1.02      0.00
   -8   -7    5      0.57      0.00
   -7   -7    5      1.19      0.00
   -6   -7    5      1.07      0.00
   -5   -7    5      0.70      0.00
   -4   -7    5      1.05      0.00
   -3   -7    5      1.50      0.00
   -2   -7    5     -0.03      0.00
   -1   -7    5     -3.65      0.00
    0   -7    5     -5.92      0.00
    1   -7    5     -3.67      0.00
    2   -7    5      1.63      0.00
    3   -7    5      5.12      0.00
    4   -7    5      4.35      0.00
    5   -7    5      1.48      0.00
    6   -7    5     -0.32      0.00
    7   -7    5     -0.39      0.00
    8   -7    5     -0.07      0.00
   -8   -6    5     -0.24      0.00
   -7   -6    5     -0.40      0.00
   -6   -6    5      0.65      0.00
   -5   -6    5      2.71      0.00
   -4   -6    5      3.04      0.00
   -3   -6    5     -0.65      0.00
   -2   -6    5     -6.15      0.00
   -1   -6    5     -8.23      0.00
    0   -6    5     -5.18      0.00
    1   -6    5     -0.87      0.00
    2   -6    5      0.67      0.00
    3   -6    5      0.00      0.00
    4   -6    5      0.28      0.00
    5   -6    5      2.36      0.00
    6   -6    5      3.98      0.00
    7   -6    5      3.19      0.00
    8   -6    5      0.98      0.00
    9   -6    5     -0.30      0.00
   -9   -5    5     -0.95      0.00
   -8   -5    5     -1.56      0.00
   -7   -5    5     -0.46      0.00
   -6   -5    5      1.36      0.00
   -5   -5    5      1.78      0.00
   -4   -5    5      1.04      0.00
   -3   -5    5      1.49      0.00
   -2   -5    5      3.59      0.00
   -1   -5    5      3.51      0.00
    0   -5    5     -2.37      0.00
    1   -5    5    -10.43      0.00
    2   -5    5    -12.65      0.00
    3   -5    5     -6.99      0.00
    4   -5    5      0.56      0.00
    5   -5    5      3.95      0.00
    6   -5    5      2.72      0.00
    7   -5    5      0.47      0.00
    8   -5    5     -0.14      0.00
    9   -5    5      0.15      0.00
   -9   -4    5     -0.63      0.00
   -8   -4    5     -0.57      0.00
   -7   -4    5     -0.37      0.00
   -6   -4    5     -0.12      0.00
   -5   -4    5      2.21      0.00
   -4   -4    5      8.52      0.00
   -3   -4    5     15.18      0.00
   -2   -4    5     13.93      0.00
   -1   -4    5      2.50      0.00
    0   -4    5     -9.81      0.00
    1   -4    5    -12.97      0.00
    2   -4    5     -8.39      0.00
    3   -4    5     -4.35      0.00
    4   -4    5     -4.09      0.00
    5   -4    5     -4.39      0.00
    6   -4    5     -2.46      0.00
    7   -4    5      0.57      0.00
    8   -4    5      1.99      0.00
    9   -4    5      1.12      0.00
  -10   -3    5      0.48      0.00
   -9   -3    5      0.33      0.00
   -8   -3    5     -1.47      0.00
   -7   -3    5     -3.42      0.00
   -6   -3    5     -2.76      0.00
   -5   -3    5      0.88      0.00
   -4   -3    5      4.67      0.00
   -3   -3    5      5.72      0.00
   -2   -3    5      5.75      0.00
   -1   -3    5      9.24      0.00
    0   -3    5     14.04      0.00
    1   -3    5     11.47      0.00
    2   -3    5      0.30      0.00
    3   -3    5     -9.32      0.00
    4   -3    5     -9.73      0.00
    5   -3    5     -3.88      0.00
    6   -3    5      1.15      0.00
    7   -3    5      2.01      0.00
    8   -3    5      0.49      0.00
    9   -3    5     -0.31      0.00
   10   -3    5     -0.01      0.00
  -10   -2    5      0.38      0.00
   -9   -2    5     -0.67      0.00
   -8   -2    5     -2.31      0.00
   -7   -2    5     -3.73      0.00
   -6   -2    5     -5.96      0.00
   -5   -2    5     -9.75      0.00
   -4   -2    5    -11.35      0.00
   -3   -2    5     -3.61      0.00
   -2   -2    5     13.87      0.00
   -1   -2    5     28.00      0.00
    0   -2    5     25.33      0.00
    1   -2    5     10.19      0.00
    2   -2    5     -1.24      0.00
    3   -2    5     -2.45      0.00
    4   -2    5     -0.35      0.00
    5   -2    5     -0.98      0.00
    6   -2    5     -2.91      0.00
    7   -2    5     -2.79      0.00
    8   -2    5     -0.51      0.00
    9   -2    5      1.26      0.00
   10   -2    5      1.04      0.00
  -10   -1    5      0.37      0.00
   -9   -1    5      1.45      0.00
   -8   -1    5      1.62      0.00
   -7   -1    5     -1.09      0.00
   -6   -1    5     -6.20      0.00
   -5   -1    5     -9.94      0.00
   -4   -1    5     -7.95      0.00
   -3   -1    5     -1.31      0.00
   -2   -1    5      2.67      0.00
   -1   -1    5      1.38      0.00
    0   -1    5      2.13      0.00
    1   -1    5      8.44      0.00
    2   -1    5     11.90      0.00
    3   -1    5      6.07      0.00
    4   -1    5     -3.39      0.00
    5   -1    5     -7.91      0.00
    6   -1    5     -5.86      0.00
    7   -1    5     -1.59      0.00
    8   -1    5      0.48      0.00
    9   -1    5      0.16      0.00
   10   -1    5     -0.26      0.00
  -10    0    5      1.94      0.00
   -9    0    5      3.38      0.00
   -8    0    5      3.02      0.00
   -7    0    5      1.99      0.00
   -6    0    5      1.36      0.00
   -5    0    5     -0.41      0.00
   -4    0    5     -6.55      0.00
   -3    0    5    -16.53      0.00
   -2    0    5    -20.74      0.00
   -1    0    5    -10.09      0.00
    0    0    5      7.79      0.00
    1    0    5     15.53      0.00
    2    0    5      9.23      0.00
    3    0    5      0.97      0.00
    4    0    5     -0.65      0.00
    5    0    5      1.18      0.00
    6    0    5      1.00      0.00
    7    0    5     -1.45      0.00
    8    0    5     -3.13      0.00
    9    0    5     -2.30      0.00
   10    0    5     -0.56      0.00
  -10    1    5      0.04      0.00
   -9    1    5      0.72      0.00
   -8    1    5      3.01      0.00
   -7    1    5      5.84      0.00
   -6    1    5      5.68      0.00
   -5    1    5     -0.27      0.00
   -4    1    5     -9.50      0.00
   -3    1    5    -13.95      0.00
   -2    1    5     -9.50      0.00
   -1    1    5     -2.78      0.00
    0    1    5     -0.75      0.00
    1    1    5      0.19      0.00
    2    1    5      5.44      0.00
    3    1    5     11.19      0.00
    4    1    5     10.80      0.00
    5    1    5      4.71      0.00
    6    1    5     -1.32      0.00
    7    1    5     -3.04      0.00
    8    1    5     -1.17      0.00
    9    1    5      0.49      0.00
  -10    2    5     -1.10      0.00
   -9    2    5      0.23      0.00
   -8    2    5      2.21      0.00
   -7    2    5      2.63      0.00
   -6    2    5      1.88      0.00
   -5    2    5      2.02      0.00
   -4    2    5      3.31      0.00
   -3    2    5      1.83      0.00
   -2    2    5     -6.00      0.00
   -1    2    5    -14.34      0.00
    0    2    5    -12.68      0.00
    1    2    5     -1.61      0.00
    2    2    5      6.79      0.00
    3    2    5      5.82      0.00
    4    2    5      0.95      0.00
    5    2    5     -0.81      0.00
    6    2    5      0.85      0.00
    7    2    5      2.37      0.00
    8    2    5      1.65      0.00
    9    2    5      0.04      0.00
  -10    3    5     -0.36      0.00
   -9    3    5     -0.90      0.00
   -8    3    5     -1.47      0.00
   -7    3    5      0.01      0.00
   -6    3    5      4.37      0.00
   -5    3    5      8.57      0.00
   -4    3    5      7.71      0.00
   -3    3    5      0.91      0.00
   -2    3    5     -5.83      0.00
   -1    3    5     -6.99      0.00
    0    3    5     -5.20      0.00
    1    3    5     -5.84      0.00
    2    3    5     -7.67      0.00
    3    3    5     -5.67      0.00
    4    3    5     -0.03      0.00
    5    3    5      4.11      0.00
    6    3    5      3.67      0.00
    7    3    5      0.58      0.00
    8    3    5     -1.36      0.00
    9    3    5     -0.96      0.00
  -10    4    5     -1.01      0.00
   -9    4    5     -1.92      0.00
   -8    4    5     -0.81      0.00
   -7    4    5      1.76      0.00
   -6    4    5      3.19      0.00
   -5    4    5      2.59      0.00
   -4    4    5      1.91      0.00
   -3    4    5      3.31      0.00
   -2    4    5      4.55      0.00
   -1    4    5      1.10      0.00
    0    4    5     -5.49      0.00
    1    4    5     -8.16      0.00
    2    4    5     -4.28      0.00
    3    4    5      1.05      0.00
    4    4    5      2.30      0.00
    5    4    5      0.00      0.00
    6    4    5     -1.81      0.00
    7    4    5     -1.27      0.00
    8    4    5      0.05      0.00
  -10    5    5     -0.24      0.00
   -9    5    5      0.02      0.00
   -8    5    5     -0.21      0.00
   -7    5    5     -1.71      0.00
   -6    5    5     -2.83      0.00
   -5    5    5     -1.04      0.00
   -4    5    5      3.13      0.00
   -3    5    5      5.45      0.00
   -2    5    5      3.33      0.00
   -1    5    5     -0.12      0.00
    0    5    5     -0.51      0.00
    1    5    5      1.36      0.00
    2    5    5      1.35      0.00
    3    5    5     -1.31      0.00
    4    5    5     -3.08      0.00
    5    5    5     -1.73      0.00
    6    5    5      0.86      0.00
    7    5    5      1.88      0.00
    8    5    5      0.97      0.00
   -9    6    5     -0.36      0.00
   -8    6    5     -1.79      0.00
   -7    6    5     -2.33      0.00
   -6    6    5     -0.94      0.00
   -5    6    5      0.88      0.00
   -4    6    5      1.12      0.00
   -3    6    5      0.43      0.00
   -2    6    5      1.22      0.00
   -1    6    5      3.27      0.00
    0    6    5      3.44      0.00
    1    6    5      0.59      0.00
    2    6    5     -2.36      0.00
    3    6    5     -2.29      0.00
    4    6    5      0.14      0.00
    5    6    5      1.73      0.00
    6    6    5      1.14      0.00
    7    6    5     -0.05      0.00
   -9    7    5     -0.24      0.00
   -8    7    5     -0.09      0.00
   -7    7    5      0.35      0.00
   -6    7    5     -0.18      0.00
   -5    7    5     -1.62      0.00
   -4    7    5     -1.91      0.00
   -3    7    5      0.00      0.00
   -2    7    5      2.10      0.00
   -1    7    5      1.87      0.00
    0    7    5     -0.12      0.00
    1    7    5     -0.99      0.00
    2    7    5      0.16      0.00
    3    7    5      1.19      0.00
    4    7    5      0.35      0.00
    5    7    5     -1.19      0.00
    6    7    5     -1.51      0.00
   -8    8    5      0.66      0.00
   -7    8    5     -0.12      0.00
   -6    8    5     -1.32      0.00
   -5    8    5     -1.38      0.00
   -4    8    5     -0.36      0.00
   -3    8    5      0.07      0.00
   -2    8    5     -0.66      0.00
   -1    8    5     -1.04      0.00
    0    8    5     -0.01      0.00
    1    8    5      1.26      0.00
    2    8    5      1.00      0.00
    3    8    5     -0.50      0.00
    4    8    5     -1.27      0.00
    5    8    5     -0.64      0.00
    6    8    5      0.09      0.00
   -7    9    5     -0.43      0.00
   -6    9    5     -0.07      0.00
   -5    9    5      0.18      0.00
   -4    9    5     -0.50      0.00
   -3    9    5     -1.21      0.00
   -2    9    5     -0.69      0.00
   -1    9    5      0.55      0.00
    0    9    5      1.03      0.00
    1    9    5      0.31      0.00
    2    9    5     -0.39      0.00
    3    9    5     -0.03      0.00
    4    9    5      0.67      0.00
   -6   10    5      0.23      0.00
   -5   10    5     -0.26      0.00
   -4   10    5     -0.47      0.00
   -3   10    5      0.02      0.00
   -2   10    5      0.41      0.00
   -1   10    5      0.09      0.00
    0   10    5     -0.40      0.00
    1   10    5     -0.14      0.00
    2   10    5      0.60      0.00
    3   10    5      0.71      0.00
   -3   11    5      0.08      0.00
   -2   11    5     -0.44      0.00
   -1   11    5     -0.58      0.00
    0   11    5     -0.04      0.00
    1  -12    6      0.11      0.00
   -3  -11    6      0.48      0.00
   -2  -11    6     -0.04      0.00
   -1  -11    6     -0.67      0.00
    0  -11    6     -0.56      0.00
    1  -11    6      0.08      0.00
    2  -11    6      0.40      0.00
    3  -11    6      0.13      0.00
    4  -11    6     -0.04      0.00
   -5  -10    6      0.40      0.00
   -4  -10    6      0.43      0.00
   -3  -10    6      0.27      0.00
   -2  -10    6      0.40      0.00
   -1  -10    6      0.92      0.00
    0  -10    6      1.01      0.00
    1  -10    6      0.08      0.00
    2  -10    6     -1.05      0.00
    3  -10    6     -1.14      0.00
    4  -10    6     -0.39      0.00
    5  -10    6      0.17      0.00
    6  -10    6      0.30      0.00
   -6   -9    6     -0.16      0.00
   -5   -9    6     -0.45      0.00
   -4   -9    6     -0.09      0.00
   -3   -9    6      1.20      0.00
   -2   -9    6      2.33      0.00
   -1   -9    6      1.83      0.00
    0   -9    6     -0.08      0.00
    1   -9    6     -1.63      0.00
    2   -9    6     -1.58      0.00
    3   -9    6     -0.65      0.00
    4   -9    6     -0.32      0.00
    5   -9    6     -0.65      0.00
    6   -9    6     -0.73      0.00
    7   -9    6     -0.32      0.00
   -7   -8    6     -0.76      0.00
   -6   -8    6     -1.39      0.00
   -5   -8    6     -1.11      0.00
   -4   -8    6     -0.10      0.00
   -3   -8    6      0.36      0.00
   -2   -8    6     -0.25      0.00
   -1   -8    6     -0.49      0.00
    0   -8    6      0.74      0.00
    1   -8    6      2.18      0.00
    2   -8    6      1.81      0.00
    3   -8    6     -0.37      0.00
    4   -8    6     -2.16      0.00
    5   -8    6     -2.02      0.00
    6   -8    6     -0.59      0.00
    7   -8    6      0.59      0.00
    8   -8    6      0.68      0.00
   -8   -7    6     -0.26      0.00
   -7   -7    6     -0.47      0.00
   -6   -7    6     -0.55      0.00
   -5   -7    6     -1.25      0.00
   -4   -7    6     -2.74      0.00
   -3   -7    6     -3.24      0.00
   -2   -7    6     -0.75      0.00
   -1   -7    6      3.65      0.00
    0   -7    6      6.21      0.00
    1   -7    6      4.47      0.00
    2   -7    6      0.26      0.00
    3   -7    6     -2.40      0.00
    4   -7    6     -2.16      0.00
    5   -7    6     -1.05      0.00
    6   -7    6     -0.91      0.00
    7   -7    6     -1.28      0.00
    8   -7    6     -0.98      0.00
   -8   -6    6      0.93      0.00
   -7   -6    6      1.48      0.00
   -6   -6    6      0.43      0.00
   -5   -6    6     -1.72      0.00
   -4   -6    6     -2.50      0.00
   -3   -6    6     -0.59      0.00
   -2   -6    6      1.95      0.00
   -1   -6    6      2.32      0.00
    0   -6    6      1.11      0.00
    1   -6    6      1.23      0.00
    2   -6    6      3.23      0.00
    3   -6    6      4.28      0.00
    4   -6    6      2.28      0.00
    5   -6    6     -1.29      0.00
    6   -6    6     -3.34      0.00
    7   -6    6     -2.62      0.00
    8   -6    6     -0.75      0.00
    9   -6    6      0.18      0.00
   -9   -5    6      0.86      0.00
   -8   -5    6      1.67      0.00
   -7   -5    6      1.35      0.00
   -6   -5    6      0.64      0.00
   -5   -5    6      0.59      0.00
   -4   -5    6     -0.40      0.00
   -3   -5    6     -4.51      0.00
   -2   -5    6     -9.57      0.00
   -1   -5    6     -9.70      0.00
    0   -5    6     -2.40      0.00
    1   -5    6      6.83      0.00
    2   -5    6     10.29      0.00
    3   -5    6      7.11      0.00
    4   -5    6      2.59      0.00
    5   -5    6      0.76      0.00
    6   -5    6      1.15      0.00
    7   -5    6      1.22      0.00
    8   -5    6      0.17      0.00
    9   -5    6     -0.53      0.00
   -9   -4    6     -0.14      0.00
   -8   -4    6      0.01      0.00
   -7   -4    6      1.13      0.00
   -6   -4    6      2.33      0.00
   -5   -4    6      0.91      0.00
   -4   -4    6     -4.59      0.00
   -3   -4    6    -10.72      0.00
   -2   -4    6    -11.34      0.00
   -1   -4    6     -5.76      0.00
    0   -4    6     -0.27      0.00
    1   -4    6      0.91      0.00
    2   -4    6      0.80      0.00
    3   -4    6      3.18      0.00
    4   -4    6      6.32      0.00
    5   -4    6      6.49      0.00
    6   -4    6      3.40      0.00
    7   -4    6     -0.02      0.00
    8   -4    6     -1.21      0.00
    9   -4    6     -0.52      0.00
  -10   -3    6     -0.69      0.00
   -9   -3    6     -1.02      0.00
   -8   -3    6      0.54      0.00
   -7   -3    6      2.86      0.00
   -6   -3    6      3.74      0.00
   -5   -3    6      3.58      0.00
   -4   -3    6      4.38      0.00
   -3   -3    6      5.13      0.00
   -2   -3    6      1.12      0.00
   -1   -3    6     -9.25      0.00
    0   -3    6    -18.66      0.00
    1   -3    6    -17.52      0.00
    2   -3    6     -7.10      0.00
    3   -3    6      1.92      0.00
    4   -3    6      3.52      0.00
    5   -3    6      0.97      0.00
    6   -3    6     -0.60      0.00
    7   -3    6      0.10      0.00
    8   -3    6      0.99      0.00
    9   -3    6      0.58      0.00
  -10   -2    6     -0.25      0.00
   -9   -2    6     -0.17      0.00
   -8   -2    6     -0.04      0.00
   -7   -2    6      0.71      0.00
   -6   -2    6      3.98      0.00
   -5   -2    6     10.22      0.00
   -4   -2    6     14.88      0.00
   -3   -2    6     10.69      0.00
   -2   -2    6     -2.47      0.00
   -1   -2    6    -14.17      0.00
    0   -2    6    -15.75      0.00
    1   -2    6    -10.77      0.00
    2   -2    6     -7.47      0.00
    3   -2    6     -6.69      0.00
    4   -2    6     -4.19      0.00
    5   -2    6      0.52      0.00
    6   -2    6      3.72      0.00
    7   -2    6      3.15      0.00
    8   -2    6      0.60      0.00
    9   -2    6     -0.77      0.00
  -10   -1    6     -0.38      0.00
   -9   -1    6     -2.21      0.00
   -8   -1    6     -3.53      0.00
   -7   -1    6     -2.29      0.00
   -6   -1    6      0.97      0.00
   -5   -1    6      3.68      0.00
   -4   -1    6      4.34      0.00
   -3   -1    6      5.34      0.00
   -2   -1    6      9.57      0.00
   -1   -1    6     13.02      0.00
    0   -1    6      8.15      0.00
    1   -1    6     -2.93      0.00
    2   -1    6     -8.87      0.00
    3   -1    6     -5.02      0.00
    4   -1    6      1.65      0.00
    5   -1    6      4.11      0.00
    6   -1    6      2.43      0.00
    7   -1    6      0.40      0.00
    8   -1    6      0.32      0.00
    9   -1    6      0.95      0.00
  -10    0    6     -0.90      0.00
   -9    0    6     -1.91      0.00
   -8    0    6     -2.65      0.00
   -7    0    6     -4.24      0.00
   -6    0    6     -6.64      0.00
   -5    0    6     -6.56      0.00
   -4    0    6      0.43      0.00
   -3    0    6     12.95      0.00
   -2    0    6     20.71      0.00
   -1    0    6     16.03      0.00
    0    0    6      4.96      0.00
    1    0    6     -1.33      0.00
    2    0    6     -1.37      0.00
    3    0    6     -1.56      0.00
    4    0    6     -4.16      0.00
    5    0    6     -5.40      0.00
    6    0    6     -2.91      0.00
    7    0    6      0.95      0.00
    8    0    6      2.53      0.00
    9    0    6      1.39      0.00
  -10    1    6      1.33      0.00
   -9    1    6      1.23      0.00
   -8    1    6     -1.31      0.00
   -7    1    6     -4.88      0.00
   -6    1    6     -6.22      0.00
   -5    1    6     -3.42      0.00
   -4    1    6      1.31      0.00
   -3    1    6      3.26      0.00
   -2    1    6      2.24      0.00
   -1    1    6      3.00      0.00
    0    1    6      5.87      0.00
    1    1    6      4.60      0.00
    2    1    6     -2.52      0.00
    3    1    6     -8.51      0.00
    4    1    6     -7.97      0.00
    5    1    6     -3.25      0.00
    6    1    6      0.48      0.00
    7    1    6      0.77      0.00
    8    1    6     -0.67      0.00
    9    1    6     -0.91      0.00
  -10    2    6      1.30      0.00
   -9    2    6      1.05      0.00
   -8    2    6      0.55      0.00
   -7    2    6      0.67      0.00
   -6    2    6     -0.14      0.00
   -5    2    6     -3.78      0.00
   -4    2    6     -8.70      0.00
   -3    2    6     -9.19      0.00
   -2    2    6     -2.06      0.00
   -1    2    6      6.66      0.00
    0    2    6      8.35      0.00
    1    2    6      3.72      0.00
    2    2    6      0.49      0.00
    3    2    6      1.52      0.00
    4    2    6      2.63      0.00
    5    2    6      0.76      0.00
    6    2    6     -2.14      0.00
    7    2    6     -2.88      0.00
    8    2    6     -1.19      0.00
    9    2    6      0.34      0.00
  -10    3    6      0.27      0.00
   -9    3    6      1.57      0.00
   -8    3    6      2.87      0.00
   -7    3    6      1.68      0.00
   -6    3    6     -2.38      0.00
   -5    3    6     -6.29      0.00
   -4    3    6     -6.36      0.00
   -3    3    6     -2.77      0.00
   -2    3    6      0.33      0.00
   -1    3    6      1.21      0.00
    0    3    6      2.89      0.00
    1    3    6      6.72      0.00
    2    3    6      8.77      0.00
    3    3    6      5.75      0.00
    4    3    6      0.31      0.00
    5    3    6     -2.65      0.00
    6    3    6     -1.73      0.00
    7    3    6      0.55      0.00
    8    3    6      1.25      0.00
  -10    4    6      0.46      0.00
   -9    4    6      1.06      0.00
   -8    4    6      0.51      0.00
   -7    4    6     -0.33      0.00
   -6    4    6      0.24      0.00
   -5    4    6      1.60      0.00
   -4    4    6      1.02      0.00
   -3    4    6     -2.56      0.00
   -2    4    6     -5.46      0.00
   -1    4    6     -3.49      0.00
    0    4    6      1.26      0.00
    1    4    6      3.17      0.00
    2    4    6      1.05      0.00
    3    4    6     -1.01      0.00
    4    4    6     -0.16      0.00
    5    4    6      1.72      0.00
    6    4    6      1.88      0.00
    7    4    6      0.41      0.00
    8    4    6     -0.62      0.00
   -9    5    6     -0.69      0.00
   -8    5    6      0.13      0.00
   -7    5    6      2.27      0.00
   -6    5    6      3.59      0.00
   -5    5    6      1.89      0.00
   -4    5    6     -1.75      0.00
   -3    5    6     -3.72      0.00
   -2    5    6     -2.90      0.00
   -1    5    6     -1.96      0.00
    0    5    6     -2.72      0.00
    1    5    6     -3.35      0.00
    2    5    6     -1.52      0.00
    3    5    6      1.52      0.00
    4    5    6      2.48      0.00
    5    5    6      0.76      0.00
    6    5    6     -1.18      0.00
    7    5    6     -1.38      0.00
    8    5    6     -0.46      0.00
   -9    6    6      0.22      0.00
   -8    6    6      1.10      0.00
   -7    6    6      1.07      0.00
   -6    6    6     -0.04      0.00
   -5    6    6     -0.58      0.00
   -4    6    6      0.37      0.00
   -3    6    6      1.10      0.00
   -2    6    6     -0.33      0.00
   -1    6    6     -2.60      0.00
    0    6    6     -2.69      0.00
    1    6    6     -0.42      0.00
    2    6    6      1.30      0.00
    3    6    6      0.66      0.00
    4    6    6     -0.88      0.00
    5    6    6     -1.09      0.00
    6    6    6     -0.05      0.00
    7    6    6      0.56      0.00
   -8    7    6     -0.61      0.00
   -7    7    6     -0.83      0.00
   -6    7    6      0.32      0.00
   -5    7    6      2.12      0.00
   -4    7    6      2.46      0.00
   -3    7    6      0.91      0.00
   -2    7    6     -0.47      0.00
   -1    7    6     -0.11      0.00
    0    7    6      0.88      0.00
    1    7    6      0.58      0.00
    2    7    6     -0.79      0.00
    3    7    6     -1.19      0.00
    4    7    6     -0.01      0.00
    5    7    6      1.10      0.00
    6    7    6      0.95      0.00
   -8    8    6     -0.44      0.00
   -7    8    6      0.20      0.00
   -6    8    6      0.90      0.00
   -5    8    6      0.62      0.00
   -4    8    6     -0.04      0.00
   -3    8    6      0.22      0.00
   -2    8    6      1.16      0.00
   -1    8    6      1.20      0.00
    0    8    6     -0.02      0.00
    1    8    6     -1.03      0.00
    2    8    6     -0.59      0.00
    3    8    6      0.46      0.00
    4    8    6      0.65      0.00
    5    8    6      0.05      0.00
   -7    9    6      0.19      0.00
   -6    9    6     -0.43      0.00
   -5    9    6     -0.65      0.00
   -4    9    6      0.13      0.00
   -3    9    6      0.79      0.00
   -2    9    6      0.34      0.00
   -1    9    6     -0.47      0.00
    0    9    6     -0.51      0.00
    1    9    6      0.14      0.00
    2    9    6      0.33      0.00
    3    9    6     -0.26      0.00
    4    9    6     -0.59      0.00
   -5   10    6      0.20      0.00
   -4   10    6      0.23      0.00
   -3   10    6     -0.19      0.00
   -2   10    6     -0.27      0.00
   -1   10    6      0.25      0.00
    0   10    6      0.64      0.00
    1   10    6      0.19      0.00
    2   10    6     -0.49      0.00
   -2   11    6      0.48      0.00
   -1   11    6      0.47      0.00
   -3  -11    7     -0.37      0.00
   -2  -11    7     -0.07      0.00
   -1  -11    7      0.31      0.00
    0  -11    7      0.22      0.00
    1  -11    7     -0.18      0.00
    2  -11    7     -0.23      0.00
    3  -11    7      0.06      0.00
    4  -11    7      0.14      0.00
   -4  -10    7      0.04      0.00
   -3  -10    7     -0.14      0.00
   -2  -10    7     -0.80      0.00
   -1  -10    7     -1.50      0.00
    0  -10    7     -1.33      0.00
    1  -10    7     -0.11      0.00
    2  -10    7      1.01      0.00
    3  -10    7      1.03      0.00
    4  -10    7      0.46      0.00
    5  -10    7      0.13      0.00
    6  -10    7      0.04      0.00
   -6   -9    7      0.44      0.00
   -5   -9    7      0.80      0.00
   -4   -9    7      0.53      0.00
   -3   -9    7     -0.51      0.00
   -2   -9    7     -1.32      0.00
   -1   -9    7     -0.94      0.00
    0   -9    7      0.08      0.00
    1   -9    7      0.42      0.00
    2   -9    7     -0.12      0.00
    3   -9    7     -0.40      0.00
    4   -9    7      0.14      0.00
    5   -9    7      0.84      0.00
    6   -9    7      0.97      0.00
    7   -9    7      0.47      0.00
   -7   -8    7      0.51      0.00
   -6   -8    7      0.91      0.00
   -5   -8    7      0.94      0.00
   -4   -8    7      0.97      0.00
   -3   -8    7      1.51      0.00
   -2   -8    7      2.02      0.00
   -1   -8    7      1.09      0.00
    0   -8    7     -1.47      0.00
    1   -8    7     -3.58      0.00
    2   -8    7     -3.03      0.00
    3   -8    7     -0.52      0.00
    4   -8    7      1.27      0.00
    5   -8    7      1.24      0.00
    6   -8    7      0.40      0.00
    7   -8    7     -0.15      0.00
   -7   -7    7     -0.40      0.00
   -6   -7    7     -0.50      0.00
   -5   -7    7      0.61      0.00
   -4   -7    7      2.66      0.00
   -3   -7    7      3.51      0.00
   -2   -7    7      1.62      0.00
   -1   -7    7     -1.70      0.00
    0   -7    7     -3.59      0.00
    1   -7    7     -2.75      0.00
    2   -7    7     -0.83      0.00
    3   -7    7     -0.03      0.00
    4   -7    7     -0.30      0.00
    5   -7    7     -0.12      0.00
    6   -7    7      0.95      0.00
    7   -7    7      1.70      0.00
    8   -7    7      1.17      0.00
   -8   -6    7     -1.09      0.00
   -7   -6    7     -1.95      0.00
   -6   -6    7     -1.53      0.00
   -5   -6    7     -0.28      0.00
   -4   -6    7      0.29      0.00
   -3   -6    7      0.17      0.00
   -2   -6    7      0.97      0.00
   -1   -6    7      2.98      0.00
    0   -6    7      3.78      0.00
    1   -6    7      1.20      0.00
    2   -6    7     -3.11      0.00
    3   -6    7     -5.19      0.00
    4   -6    7     -3.60      0.00
    5   -6    7     -0.62      0.00
    6   -6    7      0.97      0.00
    7   -6    7      0.64      0.00
    8   -6    7     -0.13      0.00
   -9   -5    7     -0.41      0.00
   -8   -5    7     -0.81      0.00
   -7   -5    7     -1.03      0.00
   -6   -5    7     -1.79      0.00
   -5   -5    7     -2.97      0.00
   -4   -5    7     -1.95      0.00
   -3   -5    7      3.18      0.00
   -2   -5    7      9.34      0.00
   -1   -5    7     10.70      0.00
    0   -5    7      5.61      0.00
    1   -5    7     -1.14      0.00
    2   -5    7     -4.21      0.00
    3   -5    7     -3.74      0.00
    4   -5    7     -3.03      0.00
    5   -5    7     -3.36      0.00
    6   -5    7     -3.51      0.00
    7   -5    7     -2.22      0.00
    8   -5    7     -0.30      0.00
    9   -5    7      0.47      0.00
   -9   -4    7      0.94      0.00
   -8   -4    7      1.17      0.00
   -7   -4    7     -0.41      0.00
   -6   -4    7     -2.57      0.00
   -5   -4    7     -2.63      0.00
   -4   -4    7      0.02      0.00
   -3   -4    7      2.74      0.00
   -2   -4    7      3.01      0.00
   -1   -4    7      2.19      0.00
    0   -4    7      3.47      0.00
    1   -4    7      6.05      0.00
    2   -4    7      5.54      0.00
    3   -4    7      0.96      0.00
    4   -4    7     -3.51      0.00
    5   -4    7     -4.24      0.00
    6   -4    7     -2.04      0.00
    7   -4    7     -0.01      0.00
    8   -4    7      0.26      0.00
    9   -4    7     -0.19      0.00
   -9   -3    7      1.12      0.00
   -8   -3    7      0.49      0.00
   -7   -3    7     -0.75      0.00
   -6   -3    7     -1.60      0.00
   -5   -3    7     -3.65      0.00
   -4   -3    7     -8.45      0.00
   -3   -3    7    -12.35      0.00
   -2   -3    7     -8.98      0.00
   -1   -3    7      2.22      0.00
    0   -3    7     12.96      0.00
    1   -3    7     14.91      0.00
    2   -3    7      9.52      0.00
    3   -3    7      4.43      0.00
    4   -3    7      2.88      0.00
    5   -3    7      2.46      0.00
    6   -3    7      0.97      0.00
    7   -3    7     -0.93      0.00
    8   -3    7     -1.40      0.00
    9   -3    7     -0.49      0.00
  -10   -2    7     -0.21      0.00
   -9   -2    7      0.16      0.00
   -8   -2    7      1.49      0.00
   -7   -2    7      2.33      0.00
   -6   -2    7      0.03      0.00
   -5   -2    7     -5.66      0.00
   -4   -2    7    -10.64      0.00
   -3   -2    7     -9.86      0.00
   -2   -2    7     -3.93      0.00
   -1   -2    7      1.05      0.00
    0   -2    7      2.23      0.00
    1   -2    7      3.19      0.00
    2   -2    7      6.12      0.00
    3   -2    7      7.60      0.00
    4   -2    7      4.72      0.00
    5   -2    7     -0.15      0.00
    6   -2    7     -2.72      0.00
    7   -2    7     -1.90      0.00
    8   -2    7     -0.11      0.00
    9   -2    7      0.37      0.00
  -10   -1    7     -0.01      0.00
   -9   -1    7      1.51      0.00
   -8   -1    7      3.13      0.00
   -7   -1    7      3.41      0.00
   -6   -1    7      3.15      0.00
   -5   -1    7      3.80      0.00
   -4   -1    7      3.83      0.00
   -3   -1    7     -0.96      0.00
   -2   -1    7    -10.85      0.00
   -1   -1    7    -18.22      0.00
    0   -1    7    -15.54      0.00
    1   -1    7     -5.96      0.00
    2   -1    7      0.49      0.00
    3   -1    7      0.31      0.00
    4   -1    7     -1.46      0.00
    5   -1    7     -0.92      0.00
    6   -1    7      0.70      0.00
    7   -1    7      0.91      0.00
    8   -1    7     -0.35      0.00
    9   -1    7     -0.97      0.00
  -10    0    7     -0.26      0.00
   -9    0    7     -0.37      0.00
   -8    0    7      0.31      0.00
   -7    0    7      3.24      0.00
   -6    0    7      7.72      0.00
   -5    0    7      9.79      0.00
   -4    0    7      5.14      0.00
   -3    0    7     -4.61      0.00
   -2    0    7    -11.36      0.00
   -1    0    7    -10.59      0.00
    0    0    7     -6.72      0.00
    1    0    7     -4.71      0.00
    2    0    7     -3.18      0.00
    3    0    7      0.65      0.00
    4    0    7      4.95      0.00
    5    0    7      5.91      0.00
    6    0    7      3.05      0.00
    7    0    7     -0.32      0.00
    8    0    7     -1.19      0.00
    9    0    7     -0.28      0.00
  -10    1    7     -1.82      0.00
   -9    1    7     -2.45      0.00
   -8    1    7     -0.95      0.00
   -7    1    7      1.48      0.00
   -6    1    7      2.54      0.00
   -5    1    7      2.04      0.00
   -4    1    7      2.45      0.00
   -3    1    7      5.25      0.00
   -2    1    7      7.01      0.00
   -1    1    7      3.55      0.00
    0    1    7     -2.35      0.00
    1    1    7     -3.66      0.00
    2    1    7      0.53      0.00
    3    1    7      4.03      0.00
    4    1    7      3.23      0.00
    5    1    7      0.61      0.00
    6    1    7     -0.42      0.00
    7    1    7      0.62      0.00
    8    1    7      1.49      0.00
    9    1    7      0.74      0.00
  -10    2    7     -0.61      0.00
   -9    2    7     -1.00      0.00
   -8    2    7     -2.11      0.00
   -7    2    7     -3.55      0.00
   -6    2    7     -2.75      0.00
   -5    2    7      1.97      0.00
   -4    2    7      8.11      0.00
   -3    2    7      9.90      0.00
   -2    2    7      5.09      0.00
   -1    2    7     -1.26      0.00
    0    2    7     -3.65      0.00
    1    2    7     -3.14      0.00
    2    2    7     -3.59      0.00
    3    2    7     -4.93      0.00
    4    2    7     -4.24      0.00
    5    2    7     -0.99      0.00
    6    2    7      1.93      0.00
    7    2    7      2.04      0.00
    8    2    7      0.35      0.00
    9    2    7     -0.47      0.00
  -10    3    7      0.25      0.00
   -9    3    7     -0.93      0.00
   -8    3    7     -2.38      0.00
   -7    3    7     -1.88      0.00
   -6    3    7      0.48      0.00
   -5    3    7      2.16      0.00
   -4    3    7      1.40      0.00
   -3    3    7     -0.16      0.00
   -2    3    7      0.28      0.00
   -1    3    7      1.59      0.00
    0    3    7      0.14      0.00
    1    3    7     -3.84      0.00
    2    3    7     -5.84      0.00
    3    3    7     -3.64      0.00
    4    3    7     -0.16      0.00
    5    3    7      1.11      0.00
    6    3    7      0.02      0.00
    7    3    7     -1.19      0.00
    8    3    7     -0.92      0.00
   -9    4    7      0.15      0.00
   -8    4    7      0.58      0.00
   -7    4    7      0.12      0.00
   -6    4    7     -2.08      0.00
   -5    4    7     -4.17      0.00
   -4    4    7     -3.10      0.00
   -3    4    7      1.22      0.00
   -2    4    7      4.73      0.00
   -1    4    7      4.25      0.00
    0    4    7      1.71      0.00
    1    4    7      0.79      0.00
    2    4    7      1.58      0.00
    3    4    7      1.40      0.00
    4    4    7     -0.51      0.00
    5    4    7     -1.92      0.00
    6    4    7     -1.31      0.00
    7    4    7      0.18      0.00
    8    4    7      0.67      0.00
   -9    5    7      0.89      0.00
   -8    5    7      0.15      0.00
   -7    5    7     -1.63      0.00
   -6    5    7     -2.43      0.00
   -5    5    7     -0.86      0.00
   -4    5    7      1.50      0.00
   -3    5    7      2.03      0.00
   -2    5    7      1.20      0.00
   -1    5    7      1.46      0.00
    0    5    7      2.97      0.00
    1    5    7      3.39      0.00
    2    5    7      1.48      0.00
    3    5    7     -0.88      0.00
    4    5    7     -1.27      0.00
    5    5    7      0.01      0.00
    6    5    7      0.94      0.00
    7    5    7      0.65      0.00
   -9    6    7     -0.21      0.00
   -8    6    7     -0.43      0.00
   -7    6    7      0.18      0.00
   -6    6    7      1.01      0.00
   -5    6    7      0.43      0.00
   -4    6    7     -1.51      0.00
   -3    6    7     -2.47      0.00
   -2    6    7     -1.07      0.00
   -1    6    7      0.93      0.00
    0    6    7      1.09      0.00
    1    6    7     -0.22      0.00
    2    6    7     -0.73      0.00
    3    6    7      0.23      0.00
    4    6    7      1.08      0.00
    5    6    7      0.65      0.00
    6    6    7     -0.31      0.00
    7    6    7     -0.50      0.00
   -8    7    7      0.78      0.00
   -7    7    7      0.79      0.00
   -6    7    7     -0.47      0.00
   -5    7    7     -1.99      0.00
   -4    7    7     -2.04      0.00
   -3    7    7     -0.81      0.00
   -2    7    7     -0.20      0.00
   -1    7    7     -0.84      0.00
    0    7    7     -1.34      0.00
    1    7    7     -0.54      0.00
    2    7    7      0.72      0.00
    3    7    7      0.86      0.00
    4    7    7     -0.06      0.00
    5    7    7     -0.66      0.00
    6    7    7     -0.39      0.00
   -7    8    7     -0.24      0.00
   -6    8    7     -0.29      0.00
   -5    8    7      0.40      0.00
   -4    8    7      0.87      0.00
   -3    8    7      0.17      0.00
   -2    8    7     -0.88      0.00
   -1    8    7     -0.86      0.00
    0    8    7      0.14      0.00
    1    8    7      0.72      0.00
    2    8    7      0.22      0.00
    3    8    7     -0.39      0.00
    4    8    7     -0.33      0.00
    5    8    7      0.02      0.00
   -6    9    7      0.63      0.00
   -5    9    7      0.71      0.00
   -4    9    7      0.02      0.00
   -3    9    7     -0.38      0.00
   -2    9    7      0.04      0.00
   -1    9    7      0.48      0.00
    0    9    7      0.17      0.00
    1    9    7     -0.42      0.00
    2    9    7     -0.31      0.00
    3    9    7      0.30      0.00
   -4   10    7     -0.17      0.00
   -3   10    7      0.24      0.00
   -2   10    7      0.22      0.00
   -1   10    7     -0.31      0.00
    0   10    7     -0.61      0.00
    1   10    7     -0.21      0.00
   -2  -11    8      0.04      0.00
   -1  -11    8     -0.02      0.00
    0  -11    8      0.15      0.00
    1  -11    8      0.33      0.00
    2  -11    8      0.16      0.00
    3  -11    8     -0.12      0.00
   -4  -10    8     -0.40      0.00
   -3  -10    8     -0.21      0.00
   -2  -10    8      0.58      0.00
   -1  -10    8      1.36      0.00
    0  -10    8      1.20      0.00
    1  -10    8      0.17      0.00
    2  -10    8     -0.56      0.00
    3  -10    8     -0.43      0.00
    4  -10    8     -0.09      0.00
    5  -10    8     -0.04      0.00
   -5   -9    8     -0.58      0.00
   -4   -9    8     -0.59      0.00
   -3   -9    8     -0.23      0.00
   -2   -9    8     -0.03      0.00
   -1   -9    8     -0.36      0.00
    0   -9    8     -0.51      0.00
    1   -9    8      0.36      0.00
    2   -9    8      1.48      0.00
    3   -9    8      1.44      0.00
    4   -9    8      0.41      0.00
    5   -9    8     -0.46      0.00
    6   -9    8     -0.66      0.00
   -6   -8    8     -0.15      0.00
   -5   -8    8     -0.22      0.00
   -4   -8    8     -0.89      0.00
   -3   -8    8     -2.18      0.00
   -2   -8    8     -2.93      0.00
   -1   -8    8     -1.85      0.00
    0   -8    8      0.85      0.00
    1   -8    8      2.97      0.00
    2   -8    8      2.64      0.00
    3   -8    8      0.82      0.00
    4   -8    8     -0.31      0.00
    5   -8    8     -0.21      0.00
    6   -8    8      0.11      0.00
    7   -8    8      0.03      0.00
   -7   -7    8      0.77      0.00
   -6   -7    8      1.20      0.00
   -5   -7    8      0.46      0.00
   -4   -7    8     -1.19      0.00
   -3   -7    8     -2.11      0.00
   -2   -7    8     -1.43      0.00
   -1   -7    8     -0.14      0.00
    0   -7    8      0.21      0.00
    1   -7    8     -0.38      0.00
    2   -7    8     -0.37      0.00
    3   -7    8      0.70      0.00
    4   -7    8      1.53      0.00
    5   -7    8      1.06      0.00
    6   -7    8     -0.22      0.00
    7   -7    8     -0.95      0.00
    8   -7    8     -0.57      0.00
   -8   -6    8      0.62      0.00
   -7   -6    8      1.36      0.00
   -6   -6    8      1.67      0.00
   -5   -6    8      1.85      0.00
   -4   -6    8      2.28      0.00
   -3   -6    8      1.76      0.00
   -2   -6    8     -0.99      0.00
   -1   -6    8     -4.77      0.00
    0   -6    8     -6.28      0.00
    1   -6    8     -3.69      0.00
    2   -6    8      0.69      0.00
    3   -6    8      3.16      0.00
    4   -6    8      2.82      0.00
    5   -6    8      1.53      0.00
    6   -6    8      0.99      0.00
    7   -6    8      1.03      0.00
    8   -6    8      0.78      0.00
   -8   -5    8     -0.45      0.00
   -7   -5    8     -0.27      0.00
   -6   -5    8      1.39      0.00
   -5   -5    8      3.68      0.00
   -4   -5    8      3.69      0.00
   -3   -5    8     -0.01      0.00
   -2   -5    8     -4.77      0.00
   -1   -5    8     -6.54      0.00
    0   -5    8     -4.51      0.00
    1   -5    8     -1.80      0.00
    2   -5    8     -0.80      0.00
    3   -5    8     -0.32      0.00
    4   -5    8      1.19      0.00
    5   -5    8      2.95      0.00
    6   -5    8      3.27      0.00
    7   -5    8      1.82      0.00
    8   -5    8      0.19      0.00
   -9   -4    8     -1.15      0.00
   -8   -4    8     -1.87      0.00
   -7   -4    8     -0.88      0.00
   -6   -4    8      0.81      0.00
   -5   -4    8      1.37      0.00
   -4   -4    8      1.45      0.00
   -3   -4    8      2.84      0.00
   -2   -4    8      4.78      0.00
   -1   -4    8      4.08      0.00
    0   -4    8     -0.67      0.00
    1   -4    8     -5.94      0.00
    2   -4    8     -6.96      0.00
    3   -4    8     -3.75      0.00
    4   -4    8     -0.38      0.00
    5   -4    8      0.50      0.00
    6   -4    8     -0.23      0.00
    7   -4    8     -0.41      0.00
    8   -4    8      0.25      0.00
    9   -4    8      0.48      0.00
   -9   -3    8     -0.38      0.00
   -8   -3    8     -0.54      0.00
   -7   -3    8     -1.13      0.00
   -6   -3    8     -1.71      0.00
   -5   -3    8      0.49      0.00
   -4   -3    8      6.54      0.00
   -3   -3    8     12.13      0.00
   -2   -3    8     11.25      0.00
   -1   -3    8      3.65      0.00
    0   -3    8     -4.31      0.00
    1   -3    8     -7.22      0.00
    2   -3    8     -6.40      0.00
    3   -3    8     -5.69      0.00
    4   -3    8     -5.41      0.00
    5   -3    8     -3.90      0.00
    6   -3    8     -1.22      0.00
    7   -3    8      0.80      0.00
    8   -3    8      0.91      0.00
    9   -3    8      0.16      0.00
   -9   -2    8      0.44      0.00
   -8   -2    8     -1.40      0.00
   -7   -2    8     -3.30      0.00
   -6   -2    8     -2.59      0.00
   -5   -2    8      0.45      0.00
   -4   -2    8      2.84      0.00
   -3   -2    8      2.89      0.00
   -2   -2    8      2.53      0.00
   -1   -2    8      4.31      0.00
    0   -2    8      6.39      0.00
    1   -2    8      4.67      0.00
    2   -2    8     -0.24      0.00
    3   -2    8     -3.23      0.00
    4   -2    8     -2.01      0.00
    5   -2    8      0.66      0.00
    6   -2    8      1.45      0.00
    7   -2    8      0.35      0.00
    8   -2    8     -0.46      0.00
    9   -2    8     -0.20      0.00
  -10   -1    8      0.26      0.00
   -9   -1    8     -0.31      0.00
   -8   -1    8     -1.09      0.00
   -7   -1    8     -1.76      0.00
   -6   -1    8     -3.72      0.00
   -5   -1    8     -7.54      0.00
   -4   -1    8     -9.72      0.00
   -3   -1    8     -5.23      0.00
   -2   -1    8      5.19      0.00
   -1   -1    8     13.72      0.00
    0   -1    8     14.20      0.00
    1   -1    8      9.14      0.00
    2   -1    8      5.02      0.00
    3   -1    8      3.54      0.00
    4   -1    8      1.97      0.00
    5   -1    8     -0.56      0.00
    6   -1    8     -2.10      0.00
    7   -1    8     -1.43      0.00
    8   -1    8      0.07      0.00
    9   -1    8      0.44      0.00
  -10    0    8      0.78      0.00
   -9    0    8      1.85      0.00
   -8    0    8      2.00      0.00
   -7    0    8     -0.52      0.00
   -6    0    8     -4.84      0.00
   -5    0    8     -7.38      0.00
   -4    0    8     -5.45      0.00
   -3    0    8     -0.96      0.00
   -2    0    8      1.39      0.00
   -1    0    8      0.91      0.00
    0    0    8      1.25      0.00
    1    0    8      3.24      0.00
    2    0    8      3.27      0.00
    3    0    8     -0.12      0.00
    4    0    8     -3.64      0.00
    5    0    8     -4.04      0.00
    6    0    8     -1.77      0.00
    7    0    8      0.20      0.00
    8    0    8      0.25      0.00
    9    0    8     -0.22      0.00
  -10    1    8      1.22      0.00
   -9    1    8      2.00      0.00
   -8    1    8      1.77      0.00
   -7    1    8      1.47      0.00
   -6    1    8      2.06      0.00
   -5    1    8      2.01      0.00
   -4    1    8     -1.37      0.00
   -3    1    8     -7.31      0.00
   -2    1    8    -10.50      0.00
   -1    1    8     -7.42      0.00
    0    1    8     -1.61      0.00
    1    1    8      0.96      0.00
    2    1    8     -0.21      0.00
    3    1    8     -1.00      0.00
    4    1    8      0.24      0.00
    5    1    8      1.35      0.00
    6    1    8      0.61      0.00
    7    1    8     -0.98      0.00
    8    1    8     -1.31      0.00
  -10    2    8     -0.35      0.00
   -9    2    8     -0.06      0.00
   -8    2    8      1.77      0.00
   -7    2    8      4.07      0.00
   -6    2    8      3.95      0.00
   -5    2    8      0.29      0.00
   -4    2    8     -4.20      0.00
   -3    2    8     -5.37      0.00
   -2    2    8     -2.60      0.00
   -1    2    8      0.28      0.00
    0    2    8      0.95      0.00
    1    2    8      1.40      0.00
    2    2    8      3.24      0.00
    3    2    8      4.75      0.00
    4    2    8      3.74      0.00
    5    2    8      0.83      0.00
    6    2    8     -1.23      0.00
    7    2    8     -0.87      0.00
    8    2    8      0.30      0.00
   -9    3    8      0.04      0.00
   -8    3    8      0.83      0.00
   -7    3    8      0.59      0.00
   -6    3    8      0.02      0.00
   -5    3    8      0.85      0.00
   -4    3    8      2.88      0.00
   -3    3    8      3.36      0.00
   -2    3    8      0.71      0.00
   -1    3    8     -2.29      0.00
    0    3    8     -1.98      0.00
    1    3    8      0.88      0.00
    2    3    8      2.39      0.00
    3    3    8      1.17      0.00
    4    3    8     -0.40      0.00
    5    3    8     -0.28      0.00
    6    3    8      0.79      0.00
    7    3    8      1.15      0.00
    8    3    8      0.49      0.00
   -9    4    8     -0.76      0.00
   -8    4    8     -1.42      0.00
   -7    4    8     -0.61      0.00
   -6    4    8      1.99      0.00
   -5    4    8      3.93      0.00
   -4    4    8      2.63      0.00
   -3    4    8     -1.03      0.00
   -2    4    8     -3.50      0.00
   -1    4    8     -3.22      0.00
    0    4    8     -2.15      0.00
    1    4    8     -2.24      0.00
    2    4    8     -2.64      0.00
    3    4    8     -1.63      0.00
    4    4    8      0.38      0.00
    5    4    8      1.36      0.00
    6    4    8      0.60      0.00
    7    4    8     -0.46      0.00
   -9    5    8     -0.57      0.00
   -8    5    8     -0.15      0.00
   -7    5    8      0.71      0.00
   -6    5    8      0.57      0.00
   -5    5    8     -0.84      0.00
   -4    5    8     -1.62      0.00
   -3    5    8     -0.49      0.00
   -2    5    8      0.82      0.00
   -1    5    8      0.17      0.00
    0    5    8     -1.68      0.00
    1    5    8     -2.29      0.00
    2    5    8     -0.97      0.00
    3    5    8      0.43      0.00
    4    5    8      0.40      0.00
    5    5    8     -0.40      0.00
    6    5    8     -0.63      0.00
    7    5    8     -0.18      0.00
   -8    6    8      0.10      0.00
   -7    6    8     -0.78      0.00
   -6    6    8     -1.29      0.00
   -5    6    8     -0.01      0.00
   -4    6    8      2.19      0.00
   -3    6    8      2.92      0.00
   -2    6    8      1.57      0.00
   -1    6    8      0.06      0.00
    0    6    8      0.07      0.00
    1    6    8      0.82      0.00
    2    6    8      0.63      0.00
    3    6    8     -0.43      0.00
    4    6    8     -1.00      0.00
    5    6    8     -0.49      0.00
    6    6    8      0.20      0.00
   -8    7    8     -0.54      0.00
   -7    7    8     -0.40      0.00
   -6    7    8      0.58      0.00
   -5    7    8      1.37      0.00
   -4    7    8      0.88      0.00
   -3    7    8     -0.14      0.00
   -2    7    8     -0.10      0.00
   -1    7    8      0.89      0.00
    0    7    8      1.30      0.00
    1    7    8      0.48      0.00
    2    7    8     -0.50      0.00
    3    7    8     -0.54      0.00
    4    7    8      0.09      0.00
    5    7    8      0.41      0.00
   -7    8    8      0.18      0.00
   -6    8    8     -0.19      0.00
   -5    8    8     -1.02      0.00
   -4    8    8     -1.29      0.00
   -3    8    8     -0.46      0.00
   -2    8    8      0.48      0.00
   -1    8    8      0.40      0.00
    0    8    8     -0.37      0.00
    1    8    8     -0.58      0.00
    2    8    8     -0.05      0.00
    3    8    8      0.31      0.00
    4    8    8      0.23      0.00
   -6    9    8     -0.47      0.00
   -5    9    8     -0.35      0.00
   -4    9    8      0.13      0.00
   -3    9    8      0.18      0.00
   -2    9    8     -0.30      0.00
   -1    9    8     -0.54      0.00
    0    9    8     -0.07      0.00
    1    9    8      0.47      0.00
    2    9    8      0.28      0.00
    3    9    8     -0.22      0.00
   -3   10    8     -0.23      0.00
   -2   10    8     -0.22      0.00
   -1   10    8      0.16      0.00
    0   10    8      0.37      0.00
   -2  -11    9      0.12      0.00
   -1  -11    9     -0.13      0.00
    0  -11    9     -0.48      0.00
    1  -11    9     -0.50      0.00
    2  -11    9     -0.16      0.00
    3  -11    9      0.07      0.00
   -4  -10    9      0.33      0.00
   -3  -10    9      0.35      0.00
   -2  -10    9     -0.19      0.00
   -1  -10    9     -0.80      0.00
    0  -10    9     -0.65      0.00
    1  -10    9     -0.02      0.00
    2  -10    9      0.10      0.00
    3  -10    9     -0.23      0.00
    4  -10    9     -0.33      0.00
    5  -10    9     -0.17      0.00
   -5   -9    9      0.08      0.00
   -4   -9    9      0.18      0.00
   -3   -9    9      0.37      0.00
   -2   -9    9      0.80      0.00
   -1   -9    9      1.32      0.00
    0   -9    9      1.06      0.00
    1   -9    9     -0.40      0.00
    2   -9    9     -1.75      0.00
    3   -9    9     -1.63      0.00
    4   -9    9     -0.63      0.00
    5   -9    9      0.07      0.00
    6   -9    9      0.20      0.00
   -6   -8    9     -0.24      0.00
   -5   -8    9     -0.44      0.00
   -4   -8    9      0.15      0.00
   -3   -8    9      1.55      0.00
   -2   -8    9      2.57      0.00
   -1   -8    9      2.00      0.00
    0   -8    9      0.13      0.00
    1   -8    9     -1.16      0.00
    2   -8    9     -0.89      0.00
    3   -8    9     -0.10      0.00
    4   -8    9      0.05      0.00
    5   -8    9     -0.32      0.00
    6   -8    9     -0.46      0.00
    7   -8    9     -0.15      0.00
   -7   -7    9     -0.50      0.00
   -6   -7    9     -1.10      0.00
   -5   -7    9     -1.05      0.00
   -4   -7    9     -0.44      0.00
   -3   -7    9     -0.04      0.00
   -2   -7    9      0.04      0.00
   -1   -7    9      0.49      0.00
    0   -7    9      1.79      0.00
    1   -7    9      2.81      0.00
    2   -7    9      2.04      0.00
    3   -7    9      0.07      0.00
    4   -7    9     -1.21      0.00
    5   -7    9     -1.08      0.00
    6   -7    9     -0.31      0.00
    7   -7    9      0.08      0.00
   -8   -6    9      0.04      0.00
   -7   -6    9     -0.19      0.00
   -6   -6    9     -0.75      0.00
   -5   -6    9     -2.07      0.00
   -4   -6    9     -3.67      0.00
   -3   -6    9     -3.68      0.00
   -2   -6    9     -0.90      0.00
   -1   -6    9      3.16      0.00
    0   -6    9      5.26      0.00
    1   -6    9      3.90      0.00
    2   -6    9      1.12      0.00
    3   -6    9     -0.56      0.00
    4   -6    9     -0.89      0.00
    5   -6    9     -0.97      0.00
    6   -6    9     -1.33      0.00
    7   -6    9     -1.34      0.00
    8   -6    9     -0.72      0.00
   -8   -5    9      1.13      0.00
   -7   -5    9      1.44      0.00
   -6   -5    9     -0.01      0.00
   -5   -5    9     -2.31      0.00
   -4   -5    9     -3.07      0.00
   -3   -5    9     -1.65      0.00
   -2   -5    9      0.26      0.00
   -1   -5    9      0.88      0.00
    0   -5    9      0.54      0.00
    1   -5    9      0.96      0.00
    2   -5    9      2.19      0.00
    3   -5    9      2.35      0.00
    4   -5    9      0.77      0.00
    5   -5    9     -1.07      0.00
    6   -5    9     -1.53      0.00
    7   -5    9     -0.66      0.00
    8   -5    9      0.11      0.00
   -9   -4    9      0.61      0.00
   -8   -4    9      1.34      0.00
   -7   -4    9      1.38      0.00
   -6   -4    9      1.39      0.00
   -5   -4    9      1.73      0.00
   -4   -4    9      0.51      0.00
   -3   -4    9     -3.41      0.00
   -2   -4    9     -7.53      0.00
   -1   -4    9     -7.74      0.00
    0   -4    9     -3.18      0.00
    1   -4    9      2.19      0.00
    2   -4    9      4.32      0.00
    3   -4    9      3.50      0.00
    4   -4    9      2.29      0.00
    5   -4    9      1.95      0.00
    6   -4    9      1.75      0.00
    7   -4    9      0.74      0.00
    8   -4    9     -0.29      0.00
   -9   -3    9     -0.62      0.00
   -8   -3    9     -0.35      0.00
   -7   -3    9      1.56      0.00
   -6   -3    9      3.58      0.00
   -5   -3    9      2.48      0.00
   -4   -3    9     -2.22      0.00
   -3   -3    9     -6.84      0.00
   -2   -3    9     -7.46      0.00
   -1   -3    9     -4.27      0.00
    0   -3    9     -0.93      0.00
    1   -3    9      0.48      0.00
    2   -3    9      1.51      0.00
    3   -3    9      3.28      0.00
    4   -3    9      4.22      0.00
    5   -3    9      3.04      0.00
    6   -3    9      0.85      0.00
    7   -3    9     -0.37      0.00
    8   -3    9     -0.21      0.00
   -9   -2    9     -0.83      0.00
   -8   -2    9      0.47      0.00
   -7   -2    9      2.04      0.00
   -6   -2    9      2.08      0.00
   -5   -2    9      1.75      0.00
   -4   -2    9      2.85      0.00
   -3   -2    9      4.14      0.00
   -2   -2    9      2.46      0.00
   -1   -2    9     -2.77      0.00
    0   -2    9     -7.45      0.00
    1   -2    9     -7.39      0.00
    2   -2    9     -3.88      0.00
    3   -2    9     -1.28      0.00
    4   -2    9     -1.15      0.00
    5   -2    9     -1.53      0.00
    6   -2    9     -0.69      0.00
    7   -2    9      0.54      0.00
    8   -2    9      0.69      0.00
   -9   -1    9     -0.38      0.00
   -8   -1    9     -0.93      0.00
   -7   -1    9     -0.99      0.00
   -6   -1    9      1.48      0.00
   -5   -1    9      6.45      0.00
   -4   -1    9      9.92      0.00
   -3   -1    9      7.56      0.00
   -2   -1    9      0.36      0.00
   -1   -1    9     -5.84      0.00
    0   -1    9     -7.41      0.00
    1   -1    9     -6.27      0.00
    2   -1    9     -5.38      0.00
    3   -1    9     -4.42      0.00
    4   -1    9     -1.99      0.00
    5   -1    9      0.80      0.00
    6   -1    9      1.84      0.00
    7   -1    9      1.02      0.00
    8   -1    9      0.04      0.00
  -10    0    9     -0.57      0.00
   -9    0    9     -1.81      0.00
   -8    0    9     -2.67      0.00
   -7    0    9     -1.42      0.00
   -6    0    9      1.04      0.00
   -5    0    9      2.24      0.00
   -4    0    9      1.64      0.00
   -3    0    9      1.49      0.00
   -2    0    9      3.48      0.00
   -1    0    9      5.39      0.00
    0    0    9      3.94      0.00
    1    0    9      0.37      0.00
    2    0    9     -1.11      0.00
    3    0    9      0.48      0.00
    4    0    9      2.21      0.00
    5    0    9      1.87      0.00
    6    0    9      0.30      0.00
    7    0    9     -0.40      0.00
    8    0    9      0.03      0.00
  -10    1    9     -0.24      0.00
   -9    1    9     -0.52      0.00
   -8    1    9     -0.87      0.00
   -7    1    9     -2.20      0.00
   -6    1    9     -4.38      0.00
   -5    1    9     -4.86      0.00
   -4    1    9     -1.20      0.00
   -3    1    9      4.84      0.00
   -2    1    9      8.08      0.00
   -1    1    9      6.21      0.00
    0    1    9      2.50      0.00
    1    1    9      0.78      0.00
    2    1    9      0.73      0.00
    3    1    9     -0.01      0.00
    4    1    9     -1.50      0.00
    5    1    9     -1.83      0.00
    6    1    9     -0.47      0.00
    7    1    9      0.88      0.00
    8    1    9      0.80      0.00
   -9    2    9      0.86      0.00
   -8    2    9     -0.58      0.00
   -7    2    9     -2.61      0.00
   -6    2    9     -2.86      0.00
   -5    2    9     -1.00      0.00
   -4    2    9      0.70      0.00
   -3    2    9      0.25      0.00
   -2    2    9     -1.30      0.00
   -1    2    9     -1.32      0.00
    0    2    9     -0.01      0.00
    1    2    9     -0.02      0.00
    2    2    9     -1.80      0.00
    3    2    9     -3.07      0.00
    4    2    9     -2.27      0.00
    5    2    9     -0.33      0.00
    6    2    9      0.64      0.00
    7    2    9      0.08      0.00
    8    2    9     -0.49      0.00
   -9    3    9      0.25      0.00
   -8    3    9      0.42      0.00
   -7    3    9      0.95      0.00
   -6    3    9      0.58      0.00
   -5    3    9     -1.63      0.00
   -4    3    9     -4.16      0.00
   -3    3    9     -4.08      0.00
   -2    3    9     -0.91      0.00
   -1    3    9      2.11      0.00
    0    3    9      2.18      0.00
    1    3    9      0.42      0.00
    2    3    9     -0.34      0.00
    3    3    9      0.39      0.00
    4    3    9      0.78      0.00
    5    3    9     -0.05      0.00
    6    3    9     -0.88      0.00
    7    3    9     -0.69      0.00
   -9    4    9      0.66      0.00
   -8    4    9      1.47      0.00
   -7    4    9      0.96      0.00
   -6    4    9     -0.90      0.00
   -5    4    9     -1.93      0.00
   -4    4    9     -0.59      0.00
   -3    4    9      1.60      0.00
   -2    4    9      2.23      0.00
   -1    4    9      1.37      0.00
    0    4    9      1.06      0.00
    1    4    9      1.94      0.00
    2    4    9      2.40      0.00
    3    4    9      1.34      0.00
    4    4    9     -0.24      0.00
    5    4    9     -0.76      0.00
    6    4    9     -0.08      0.00
    7    4    9      0.48      0.00
   -9    5    9      0.15      0.00
   -8    5    9     -0.12      0.00
   -7    5    9     -0.19      0.00
   -6    5    9      0.70      0.00
   -5    5    9      1.78      0.00
   -4    5    9      1.27      0.00
   -3    5    9     -0.80      0.00
   -2    5    9     -2.11      0.00
   -1    5    9     -1.21      0.00
    0    5    9      0.57      0.00
    1    5    9      1.11      0.00
    2    5    9      0.29      0.00
    3    5    9     -0.33      0.00
    4    5    9      0.03      0.00
    5    5    9      0.56      0.00
    6    5    9      0.40      0.00
   -8    6    9     -0.01      0.00
   -7    6    9      0.71      0.00
   -6    6    9      0.86      0.00
   -5    6    9     -0.51      0.00
   -4    6    9     -2.19      0.00
   -3    6    9     -2.27      0.00
   -2    6    9     -0.93      0.00
   -1    6    9     -0.05      0.00
    0    6    9     -0.52      0.00
    1    6    9     -1.11      0.00
    2    6    9     -0.61      0.00
    3    6    9      0.43      0.00
    4    6    9      0.80      0.00
    5    6    9      0.32      0.00
    6    6    9     -0.12      0.00
   -7    7    9      0.00      0.00
   -6    7    9     -0.55      0.00
   -5    7    9     -0.60      0.00
   -4    7    9      0.30      0.00
   -3    7    9      1.06      0.00
   -2    7    9      0.51      0.00
   -1    7    9     -0.72      0.00
    0    7    9     -1.04      0.00
    1    7    9     -0.27      0.00
    2    7    9      0.41      0.00
    3    7    9      0.31      0.00
    4    7    9     -0.19      0.00
    5    7    9     -0.38      0.00
   -6    8    9      0.36      0.00
   -5    8    9      0.99      0.00
   -4    8    9      1.02      0.00
   -3    8    9      0.27      0.00
   -2    8    9     -0.34      0.00
   -1    8    9     -0.01      0.00
    0    8    9      0.67      0.00
    1    8    9      0.61      0.00
    2    8    9      0.00      0.00
    3    8    9     -0.25      0.00
   -5    9    9     -0.01      0.00
   -4    9    9     -0.30      0.00
   -3    9    9     -0.14      0.00
   -2    9    9      0.42      0.00
   -1    9    9      0.61      0.00
    0    9    9      0.09      0.00
    1    9    9     -0.42      0.00
    2    9    9     -0.28      0.00
    0  -11   10      0.55      0.00
    1  -11   10      0.44      0.00
   -3  -10   10     -0.10      0.00
   -2  -10   10      0.09      0.00
   -1  -10   10      0.28      0.00
    0  -10   10      0.03      0.00
    1  -10   10     -0.23      0.00
    2  -10   10      0.12      0.00
    3  -10   10      0.53      0.00
    4  -10   10      0.45      0.00
   -5   -9   10      0.17      0.00
   -4   -9   10      0.31      0.00
   -3   -9   10      0.03      0.00
   -2   -9   10     -0.75      0.00
   -1   -9   10     -1.51      0.00
    0   -9   10     -1.27      0.00
    1   -9   10      0.03      0.00
    2   -9   10      1.04      0.00
    3   -9   10      0.93      0.00
    4   -9   10      0.32      0.00
    5   -9   10     -0.03      0.00
   -6   -8   10      0.17      0.00
   -5   -8   10      0.63      0.00
   -4   -8   10      0.49      0.00
   -3   -8   10     -0.49      0.00
   -2   -8   10     -1.44      0.00
   -1   -8   10     -1.36      0.00
    0   -8   10     -0.58      0.00
    1   -8   10     -0.42      0.00
    2   -8   10     -0.89      0.00
    3   -8   10     -0.95      0.00
    4   -8   10     -0.44      0.00
    5   -8   10      0.17      0.00
    6   -8   10      0.37      0.00
   -7   -7   10      0.06      0.00
   -6   -7   10      0.46      0.00
   -5   -7   10      0.77      0.00
   -4   -7   10      1.14      0.00
   -3   -7   10      1.65      0.00
   -2   -7   10      1.70      0.00
   -1   -7   10      0.54      0.00
    0   -7   10     -1.67      0.00
    1   -7   10     -3.14      0.00
    2   -7   10     -2.55      0.00
    3   -7   10     -0.86      0.00
    4   -7   10      0.27      0.00
    5   -7   10      0.40      0.00
    6   -7   10      0.17      0.00
    7   -7   10      0.15      0.00
   -7   -6   10     -0.66      0.00
   -6   -6   10     -0.44      0.00
   -5   -6   10      1.10      0.00
   -4   -6   10      3.24      0.00
   -3   -6   10      4.08      0.00
   -2   -6   10      2.48      0.00
   -1   -6   10     -0.44      0.00
    0   -6   10     -2.19      0.00
    1   -6   10     -1.87      0.00
    2   -6   10     -0.95      0.00
    3   -6   10     -0.63      0.00
    4   -6   10     -0.59      0.00
    5   -6   10     -0.14      0.00
    6   -6   10      0.58      0.00
    7   -6   10      0.71      0.00
   -8   -5   10     -0.83      0.00
   -7   -5   10     -1.52      0.00
   -6   -5   10     -1.06      0.00
   -5   -5   10      0.00      0.00
   -4   -5   10      0.45      0.00
   -3   -5   10      0.53      0.00
   -2   -5   10      1.25      0.00
   -1   -5   10      2.52      0.00
    0   -5   10      2.87      0.00
    1   -5   10      1.33      0.00
    2   -5   10     -0.92      0.00
    3   -5   10     -1.95      0.00
    4   -5   10     -1.33      0.00
    5   -5   10     -0.27      0.00
    6   -5   10      0.04      0.00
    7   -5   10     -0.26      0.00
    8   -5   10     -0.31      0.00
   -8   -4   10     -0.05      0.00
   -7   -4   10     -0.69      0.00
   -6   -4   10     -2.41      0.00
   -5   -4   10     -4.16      0.00
   -4   -4   10     -3.31      0.00
   -3   -4   10      0.83      0.00
   -2   -4   10      5.50      0.00
   -1   -4   10      6.93      0.00
    0   -4   10      4.39      0.00
    1   -4   10      0.92      0.00
    2   -4   10     -0.92      0.00
    3   -4   10     -1.48      0.00
    4   -4   10     -1.89      0.00
    5   -4   10     -2.27      0.00
    6   -4   10     -1.92      0.00
    7   -4   10     -0.71      0.00
    8   -4   10      0.16      0.00
   -9   -3   10      1.04      0.00
   -8   -3   10      1.14      0.00
   -7   -3   10     -0.77      0.00
   -6   -3   10     -2.95      0.00
   -5   -3   10     -2.74      0.00
   -4   -3   10     -0.43      0.00
   -3   -3   10      1.53      0.00
   -2   -3   10      1.73      0.00
   -1   -3   10      1.17      0.00
    0   -3   10      1.48      0.00
    1   -3   10      2.17      0.00
    2   -3   10      1.48      0.00
    3   -3   10     -0.52      0.00
    4   -3   10     -1.80      0.00
    5   -3   10     -1.25      0.00
    6   -3   10     -0.11      0.00
    7   -3   10      0.14      0.00
    8   -3   10     -0.19      0.00
   -9   -2   10      0.59      0.00
   -8   -2   10      0.22      0.00
   -7   -2   10      0.13      0.00
   -6   -2   10      0.54      0.00
   -5   -2   10     -0.60      0.00
   -4   -2   10     -4.02      0.00
   -3   -2   10     -6.95      0.00
   -2   -2   10     -5.85      0.00
   -1   -2   10     -0.77      0.00
    0   -2   10      4.08      0.00
    1   -2   10      5.35      0.00
    2   -2   10      4.16      0.00
    3   -2   10      3.12      0.00
    4   -2   10      2.73      0.00
    5   -2   10      1.94      0.00
    6   -2   10      0.46      0.00
    7   -2   10     -0.58      0.00
    8   -2   10     -0.53      0.00
   -9   -1   10      0.33      0.00
   -8   -1   10      1.76      0.00
   -7   -1   10      2.75      0.00
   -6   -1   10      0.95      0.00
   -5   -1   10     -3.12      0.00
   -4   -1   10     -6.11      0.00
   -3   -1   10     -5.43      0.00
   -2   -1   10     -2.19      0.00
   -1   -1   10      0.31      0.00
    0   -1   10      1.07      0.00
    1   -1   10      1.73      0.00
    2   -1   10      2.93      0.00
    3   -1   10      3.05      0.00
    4   -1   10      1.29      0.00
    5   -1   10     -0.64      0.00
    6   -1   10     -0.96      0.00
    7   -1   10     -0.26      0.00
    8   -1   10      0.07      0.00
   -9    0   10      0.83      0.00
   -8    0   10      1.62      0.00
   -7    0   10      1.33      0.00
   -6    0   10      0.93      0.00
   -5    0   10      1.67      0.00
   -4    0   10      2.35      0.00
   -3    0   10      0.58      0.00
   -2    0   10     -3.50      0.00
   -1    0   10     -6.32      0.00
    0    0   10     -5.26      0.00
    1    0   10     -2.26      0.00
    2    0   10     -0.77      0.00
    3    0   10     -1.15      0.00
    4    0   10     -1.43      0.00
    5    0   10     -0.61      0.00
    6    0   10      0.38      0.00
    7    0   10      0.43      0.00
    8    0   10     -0.01      0.00
   -9    1   10     -0.62      0.00
   -8    1   10     -0.52      0.00
   -7    1   10      1.20      0.00
   -6    1   10      3.91      0.00
   -5    1   10      4.89      0.00
   -4    1   10      2.42      0.00
   -3    1   10     -1.66      0.00
   -2    1   10     -3.61      0.00
   -1    1   10     -2.59      0.00
    0    1   10     -1.23      0.00
    1    1   10     -1.11      0.00
    2    1   10     -1.13      0.00
    3    1   10     -0.05      0.00
    4    1   10      1.31      0.00
    5    1   10      1.29      0.00
    6    1   10      0.04      0.00
    7    1   10     -0.73      0.00
    8    1   10     -0.44      0.00
   -9    2   10     -0.79      0.00
   -8    2   10     -0.16      0.00
   -7    2   10      0.86      0.00
   -6    2   10      0.86      0.00
   -5    2   10      0.27      0.00
   -4    2   10      0.77      0.00
   -3    2   10      2.54      0.00
   -2    2   10      3.46      0.00
   -1    2   10      1.96      0.00
    0    2   10     -0.23      0.00
    1    2   10     -0.49      0.00
    2    2   10      0.86      0.00
    3    2   10      1.66      0.00
    4    2   10      1.04      0.00
    5    2   10     -0.01      0.00
    6    2   10     -0.22      0.00
    7    2   10      0.23      0.00
   -9    3   10     -0.10      0.00
   -8    3   10     -0.82      0.00
   -7    3   10     -1.74      0.00
   -6    3   10     -1.33      0.00
   -5    3   10      0.90      0.00
   -4    3   10      3.01      0.00
   -3    3   10      2.63      0.00
   -2    3   10      0.11      0.00
   -1    3   10     -1.71      0.00
    0    3   10     -1.37      0.00
    1    3   10     -0.34      0.00
    2    3   10     -0.27      0.00
    3    3   10     -0.84      0.00
    4    3   10     -0.70      0.00
    5    3   10      0.25      0.00
    6    3   10      0.71      0.00
    7    3   10      0.23      0.00
   -9    4   10     -0.35      0.00
   -8    4   10     -0.96      0.00
   -7    4   10     -0.80      0.00
   -6    4   10      0.03      0.00
   -5    4   10      0.05      0.00
   -4    4   10     -1.13      0.00
   -3    4   10     -1.89      0.00
   -2    4   10     -1.04      0.00
   -1    4   10      0.21      0.00
    0    4   10      0.03      0.00
    1    4   10     -1.24      0.00
    2    4   10     -1.70      0.00
    3    4   10     -0.83      0.00
    4    4   10      0.18      0.00
    5    4   10      0.31      0.00
    6    4   10     -0.14      0.00
   -8    5   10      0.35      0.00
   -7    5   10      0.17      0.00
   -6    5   10     -0.89      0.00
   -5    5   10     -1.55      0.00
   -4    5   10     -0.43      0.00
   -3    5   10      1.59      0.00
   -2    5   10      2.30      0.00
   -1    5   10      1.13      0.00
    0    5   10     -0.22      0.00
    1    5   10     -0.36      0.00
    2    5   10      0.17      0.00
    3    5   10      0.23      0.00
    4    5   10     -0.28      0.00
    5    5   10     -0.52      0.00
    6    5   10     -0.16      0.00
   -8    6   10     -0.01      0.00
   -7    6   10     -0.34      0.00
   -6    6   10     -0.24      0.00
   -5    6   10      0.77      0.00
   -4    6   10      1.59      0.00
   -3    6   10      1.07      0.00
   -2    6   10     -0.06      0.00
   -1    6   10     -0.21      0.00
    0    6   10      0.68      0.00
    1    6   10      1.14      0.00
    2    6   10      0.47      0.00
    3    6   10     -0.40      0.00
    4    6   10     -0.53      0.00
    5    6   10     -0.08      0.00
   -7    7   10      0.19      0.00
   -6    7   10      0.41      0.00
   -5    7   10      0.04      0.00
   -4    7   10     -0.89      0.00
   -3    7   10     -1.29      0.00
   -2    7   10     -0.43      0.00
   -1    7   10      0.69      0.00
    0    7   10      0.67      0.00
    1    7   10     -0.12      0.00
    2    7   10     -0.43      0.00
    3    7   10     -0.13      0.00
    4    7   10      0.21      0.00
   -6    8   10     -0.27      0.00
   -5    8   10     -0.58      0.00
   -4    8   10     -0.39      0.00
   -3    8   10      0.19      0.00
   -2    8   10      0.33      0.00
   -1    8   10     -0.36      0.00
    0    8   10     -0.97      0.00
    1    8   10     -0.64      0.00
    2    8   10      0.04      0.00
    3    8   10      0.18      0.00
   -4    9   10      0.31      0.00
   -3    9   10      0.11      0.00
   -2    9   10     -0.45      0.00
   -1    9   10     -0.57      0.00
    0    9   10     -0.01      0.00
    1    9   10      0.39      0.00
   -3  -10   11     -0.22      0.00
   -2  -10   11     -0.21      0.00
   -1  -10   11     -0.05      0.00
    0  -10   11      0.26      0.00
    1  -10   11      0.27      0.00
    2  -10   11     -0.17      0.00
    3  -10   11     -0.43      0.00
   -4   -9   11     -0.46      0.00
   -3   -9   11     -0.36      0.00
   -2   -9   11      0.39      0.00
   -1   -9   11      1.15      0.00
    0   -9   11      1.04      0.00
    1   -9   11      0.29      0.00
    2   -9   11     -0.11      0.00
    3   -9   11     -0.02      0.00
    4   -9   11      0.16      0.00
    5   -9   11      0.20      0.00
   -5   -8   11     -0.39      0.00
   -4   -8   11     -0.50      0.00
   -3   -8   11     -0.10      0.00
   -2   -8   11      0.39      0.00
   -1   -8   11      0.36      0.00
    0   -8   11      0.26      0.00
    1   -8   11      0.85      0.00
    2   -8   11      1.51      0.00
    3   -8   11      1.40      0.00
    4   -8   11      0.77      0.00
    5   -8   11      0.19      0.00
    6   -8   11     -0.02      0.00
   -6   -7   11      0.17      0.00
   -5   -7   11      0.04      0.00
   -4   -7   11     -0.77      0.00
   -3   -7   11     -2.05      0.00
   -2   -7   11     -2.77      0.00
   -1   -7   11     -1.85      0.00
    0   -7   11      0.29      0.00
    1   -7   11      1.77      0.00
    2   -7   11      1.61      0.00
    3   -7   11      0.72      0.00
    4   -7   11      0.20      0.00
    5   -7   11      0.22      0.00
    6   -7   11      0.23      0.00
   -7   -6   11      0.73      0.00
   -6   -6   11      1.03      0.00
   -5   -6   11      0.06      0.00
   -4   -6   11     -1.69      0.00
   -3   -6   11     -2.75      0.00
   -2   -6   11     -2.31      0.00
   -1   -6   11     -1.05      0.00
    0   -6   11     -0.40      0.00
    1   -6   11     -0.50      0.00
    2   -6   11     -0.34      0.00
    3   -6   11      0.32      0.00
    4   -6   11      0.85      0.00
    5   -6   11      0.66      0.00
    6   -6   11      0.05      0.00
    7   -6   11     -0.13      0.00
   -8   -5   11      0.08      0.00
   -7   -5   11      0.61      0.00
   -6   -5   11      1.04      0.00
   -5   -5   11      1.62      0.00
   -4   -5   11      2.29      0.00
   -3   -5   11      2.00      0.00
   -2   -5   11      0.05      0.00
   -1   -5   11     -2.55      0.00
    0   -5   11     -3.65      0.00
    1   -5   11     -2.52      0.00
    2   -5   11     -0.60      0.00
    3   -5   11      0.53      0.00
    4   -5   11      0.57      0.00
    5   -5   11      0.31      0.00
    6   -5   11      0.41      0.00
    7   -5   11      0.51      0.00
   -8   -4   11     -0.84      0.00
   -7   -4   11     -0.38      0.00
   -6   -4   11      1.89      0.00
   -5   -4   11      4.33      0.00
   -4   -4   11      4.32      0.00
   -3   -4   11      1.51      0.00
   -2   -4   11     -1.98      0.00
   -1   -4   11     -3.59      0.00
    0   -4   11     -2.87      0.00
    1   -4   11     -1.62      0.00
    2   -4   11     -0.92      0.00
    3   -4   11     -0.29      0.00
    4   -4   11      0.66      0.00
    5   -4   11      1.45      0.00
    6   -4   11      1.27      0.00
    7   -4   11      0.37      0.00
   -8   -3   11     -1.08      0.00
   -7   -3   11     -0.18      0.00
   -6   -3   11      0.72      0.00
   -5   -3   11      0.46      0.00
   -4   -3   11      0.05      0.00
   -3   -3   11      0.72      0.00
   -2   -3   11      1.95      0.00
   -1   -3   11      2.00      0.00
    0   -3   11      0.26      0.00
    1   -3   11     -1.57      0.00
    2   -3   11     -1.77      0.00
    3   -3   11     -0.60      0.00
    4   -3   11      0.25      0.00
    5   -3   11     -0.08      0.00
    6   -3   11     -0.50      0.00
    7   -3   11     -0.16      0.00
    8   -3   11      0.22      0.00
   -9   -2   11     -0.05      0.00
   -8   -2   11     -0.30      0.00
   -7   -2   11     -1.64      0.00
   -6   -2   11     -2.90      0.00
   -5   -2   11     -1.62      0.00
   -4   -2   11      2.21      0.00
   -3   -2   11      5.66      0.00
   -2   -2   11      5.77      0.00
   -1   -2   11      2.65      0.00
    0   -2   11     -0.59      0.00
    1   -2   11     -1.94      0.00
    2   -2   11     -2.26      0.00
    3   -2   11     -2.62      0.00
    4   -2   11     -2.63      0.00
    5   -2   11     -1.68      0.00
    6   -2   11     -0.36      0.00
    7   -2   11      0.26      0.00
    8   -2   11      0.22      0.00
   -9   -1   11      0.05      0.00
   -8   -1   11     -1.36      0.00
   -7   -1   11     -2.48      0.00
   -6   -1   11     -1.49      0.00
   -5   -1   11      0.72      0.00
   -4   -1   11      2.01      0.00
   -3   -1   11      1.71      0.00
   -2   -1   11      1.13      0.00
   -1   -1   11      1.47      0.00
    0   -1   11      1.86      0.00
    1   -1   11      0.95      0.00
    2   -1   11     -0.71      0.00
    3   -1   11     -1.36      0.00
    4   -1   11     -0.42      0.00
    5   -1   11      0.56      0.00
    6   -1   11      0.36      0.00
    7   -1   11     -0.19      0.00
    8   -1   11     -0.18      0.00
   -9    0   11      0.06      0.00
   -8    0   11      0.02      0.00
   -7    0   11      0.15      0.00
   -6    0   11     -0.71      0.00
   -5    0   11     -2.80      0.00
   -4    0   11     -4.02      0.00
   -3    0   11     -2.24      0.00
   -2    0   11      1.63      0.00
   -1    0   11      4.14      0.00
    0    0   11      3.61      0.00
    1    0   11      1.96      0.00
    2    0   11      1.34      0.00
    3    0   11      1.50      0.00
    4    0   11      1.17      0.00
    5    0   11      0.27      0.00
    6    0   11     -0.27      0.00
    7    0   11     -0.16      0.00
   -9    1   11      0.82      0.00
   -8    1   11      1.18      0.00
   -7    1   11     -0.10      0.00
   -6    1   11     -2.30      0.00
   -5    1   11     -3.18      0.00
   -4    1   11     -1.91      0.00
   -3    1   11     -0.17      0.00
   -2    1   11      0.14      0.00
   -1    1   11     -0.41      0.00
    0    1   11     -0.09      0.00
    1    1   11      0.89      0.00
    2    1   11      1.15      0.00
    3    1   11      0.23      0.00
    4    1   11     -0.79      0.00
    5    1   11     -0.63      0.00
    6    1   11      0.26      0.00
    7    1   11      0.56      0.00
   -9    2   11      0.29      0.00
   -8    2   11      0.16      0.00
   -7    2   11      0.09      0.00
   -6    2   11      0.63      0.00
   -5    2   11      0.78      0.00
   -4    2   11     -0.71      0.00
   -3    2   11     -2.91      0.00
   -2    2   11     -3.40      0.00
   -1    2   11     -1.52      0.00
    0    2   11      0.39      0.00
    1    2   11      0.37      0.00
    2    2   11     -0.67      0.00
    3    2   11     -1.03      0.00
    4    2   11     -0.46      0.00
    5    2   11      0.02      0.00
    6    2   11     -0.11      0.00
    7    2   11     -0.30      0.00
   -9    3   11     -0.04      0.00
   -8    3   11      0.67      0.00
   -7    3   11      1.69      0.00
   -6    3   11      1.56      0.00
   -5    3   11      0.01      0.00
   -4    3   11     -1.25      0.00
   -3    3   11     -0.69      0.00
   -2    3   11      0.81      0.00
   -1    3   11      1.18      0.00
    0    3   11      0.32      0.00
    1    3   11     -0.16      0.00
    2    3   11      0.27      0.00
    3    3   11      0.76      0.00
    4    3   11      0.46      0.00
    5    3   11     -0.35      0.00
    6    3   11     -0.52      0.00
   -8    4   11      0.40      0.00
   -7    4   11      0.27      0.00
   -6    4   11      0.07      0.00
   -5    4   11      0.66      0.00
   -4    4   11      1.58      0.00
   -3    4   11      1.43      0.00
   -2    4   11      0.01      0.00
   -1    4   11     -1.04      0.00
    0    4   11     -0.44      0.00
    1    4   11      0.83      0.00
    2    4   11      1.17      0.00
    3    4   11      0.55      0.00
    4    4   11      0.00      0.00
    5    4   11      0.04      0.00
    6    4   11      0.17      0.00
   -8    5   11     -0.35      0.00
   -7    5   11     -0.31      0.00
   -6    5   11      0.46      0.00
   -5    5   11      0.76      0.00
   -4    5   11     -0.36      0.00
   -3    5   11     -1.77      0.00
   -2    5   11     -1.73      0.00
   -1    5   11     -0.46      0.00
    0    5   11      0.28      0.00
    1    5   11     -0.03      0.00
    2    5   11     -0.35      0.00
    3    5   11     -0.07      0.00
    4    5   11      0.40      0.00
    5    5   11      0.39      0.00
   -7    6   11      0.08      0.00
   -6    6   11     -0.11      0.00
   -5    6   11     -0.64      0.00
   -4    6   11     -0.74      0.00
   -3    6   11     -0.03      0.00
   -2    6   11      0.62      0.00
   -1    6   11      0.18      0.00
    0    6   11     -0.80      0.00
    1    6   11     -0.96      0.00
    2    6   11     -0.26      0.00
    3    6   11      0.31      0.00
    4    6   11      0.27      0.00
   -6    7   11     -0.26      0.00
   -5    7   11      0.15      0.00
   -4    7   11      0.82      0.00
   -3    7   11      0.87      0.00
   -2    7   11      0.01      0.00
   -1    7   11     -0.62      0.00
    0    7   11     -0.12      0.00
    1    7   11      0.56      0.00
    2    7   11      0.44      0.00
    3    7   11      0.03      0.00
   -5    8   11      0.20      0.00
   -4    8   11     -0.10      0.00
   -3    8   11     -0.50      0.00
   -2    8   11     -0.23      0.00
   -1    8   11      0.65      0.00
    0    8   11      1.01      0.00
    1    8   11      0.47      0.00
    2    8   11     -0.08      0.00
   -1  -10   12      0.01      0.00
    0  -10   12     -0.17      0.00
    1  -10   12     -0.06      0.00
    2  -10   12      0.15      0.00
   -4   -9   12      0.24      0.00
   -3   -9   12      0.27      0.00
   -2   -9   12     -0.23      0.00
   -1   -9   12     -0.76      0.00
    0   -9   12     -0.67      0.00
    1   -9   12     -0.37      0.00
    2   -9   12     -0.39      0.00
    3   -9   12     -0.44      0.00
    4   -9   12     -0.36      0.00
   -5   -8   12      0.03      0.00
   -4   -8   12      0.07      0.00
   -3   -8   12      0.06      0.00
   -2   -8   12      0.17      0.00
   -1   -8   12      0.47      0.00
    0   -8   12      0.39      0.00
    1   -8   12     -0.35      0.00
    2   -8   12     -0.99      0.00
    3   -8   12     -0.99      0.00
    4   -8   12     -0.61      0.00
    5   -8   12     -0.27      0.00
   -6   -7   12     -0.42      0.00
   -5   -7   12     -0.65      0.00
   -4   -7   12      0.06      0.00
   -3   -7   12      1.59      0.00
   -2   -7   12      2.73      0.00
   -1   -7   12      2.34      0.00
    0   -7   12      0.84      0.00
    1   -7   12     -0.19      0.00
    2   -7   12     -0.25      0.00
    3   -7   12      0.02      0.00
    4   -7   12     -0.02      0.00
    5   -7   12     -0.31      0.00
    6   -7   12     -0.33      0.00
   -7   -6   12     -0.32      0.00
   -6   -6   12     -0.77      0.00
   -5   -6   12     -0.49      0.00
   -4   -6   12      0.28      0.00
   -3   -6   12      0.75      0.00
   -2   -6   12      0.64      0.00
   -1   -6   12      0.59      0.00
    0   -6   12      1.11      0.00
    1   -6   12      1.55      0.00
    2   -6   12      1.20      0.00
    3   -6   12      0.31      0.00
    4   -6   12     -0.36      0.00
    5   -6   12     -0.36      0.00
    6   -6   12     -0.04      0.00
   -7   -5   12      0.34      0.00
   -6   -5   12     -0.23      0.00
   -5   -5   12     -1.81      0.00
   -4   -5   12     -3.52      0.00
   -3   -5   12     -3.82      0.00
   -2   -5   12     -2.01      0.00
   -1   -5   12      0.72      0.00
    0   -5   12      2.27      0.00
    1   -5   12      2.00      0.00
    2   -5   12      1.04      0.00
    3   -5   12      0.48      0.00
    4   -5   12      0.43      0.00
    5   -5   12      0.24      0.00
    6   -5   12     -0.24      0.00
    7   -5   12     -0.34      0.00
   -8   -4   12      0.82      0.00
   -7   -4   12      0.87      0.00
   -6   -4   12     -0.69      0.00
   -5   -4   12     -2.59      0.00
   -4   -4   12     -2.96      0.00
   -3   -4   12     -1.69      0.00
   -2   -4   12     -0.09      0.00
   -1   -4   12      0.64      0.00
    0   -4   12      0.64      0.00
    1   -4   12      0.78      0.00
    2   -4   12      1.07      0.00
    3   -4   12      0.84      0.00
    4   -4   12     -0.04      0.00
    5   -4   12     -0.76      0.00
    6   -4   12     -0.57      0.00
    7   -4   12     -0.01      0.00
   -8   -3   12      0.43      0.00
   -7   -3   12      0.56      0.00
   -6   -3   12      1.31      0.00
   -5   -3   12      2.26      0.00
   -4   -3   12      1.93      0.00
   -3   -3   12     -0.13      0.00
   -2   -3   12     -2.50      0.00
   -1   -3   12     -3.11      0.00
    0   -3   12     -1.64      0.00
    1   -3   12      0.10      0.00
    2   -3   12      0.66      0.00
    3   -3   12      0.23      0.00
    4   -3   12      0.04      0.00
    5   -3   12      0.51      0.00
    6   -3   12      0.64      0.00
    7   -3   12      0.15      0.00
   -8   -2   12      0.05      0.00
   -7   -2   12      1.76      0.00
   -6   -2   12      3.28      0.00
   -5   -2   12      2.52      0.00
   -4   -2   12     -0.24      0.00
   -3   -2   12     -2.89      0.00
   -2   -2   12     -3.58      0.00
   -1   -2   12     -2.40      0.00
    0   -2   12     -1.02      0.00
    1   -2   12     -0.28      0.00
    2   -2   12      0.49      0.00
    3   -2   12      1.54      0.00
    4   -2   12      1.92      0.00
    5   -2   12      1.10      0.00
    6   -2   12      0.14      0.00
    7   -2   12     -0.07      0.00
   -8   -1   12      0.41      0.00
   -7   -1   12      0.79      0.00
   -6   -1   12      0.19      0.00
   -5   -1   12     -0.32      0.00
   -4   -1   12      0.13      0.00
   -3   -1   12      0.88      0.00
   -2   -1   12      0.49      0.00
   -1   -1   12     -1.05      0.00
    0   -1   12     -1.97      0.00
    1   -1   12     -1.28      0.00
    2   -1   12      0.02      0.00
    3   -1   12      0.49      0.00
    4   -1   12     -0.11      0.00
    5   -1   12     -0.57      0.00
    6   -1   12     -0.21      0.00
    7   -1   12      0.18      0.00
   -9    0   12     -0.37      0.00
   -8    0   12     -1.05      0.00
   -7    0   12     -1.41      0.00
   -6    0   12     -0.20      0.00
   -5    0   12      2.15      0.00
   -4    0   12      3.52      0.00
   -3    0   12      2.44      0.00
   -2    0   12     -0.04      0.00
   -1    0   12     -1.54      0.00
    0    0   12     -1.38      0.00
    1    0   12     -0.93      0.00
    2    0   12     -1.17      0.00
    3    0   12     -1.52      0.00
    4    0   12     -1.08      0.00
    5    0   12     -0.29      0.00
    6    0   12     -0.03      0.00
    7    0   12     -0.10      0.00
   -8    1   12     -0.87      0.00
   -7    1   12     -0.14      0.00
   -6    1   12      1.08      0.00
   -5    1   12      1.36      0.00
   -4    1   12      0.76      0.00
   -3    1   12      0.67      0.00
   -2    1   12      1.47      0.00
   -1    1   12      1.64      0.00
    0    1   12      0.41      0.00
    1    1   12     -0.87      0.00
    2    1   12     -1.01      0.00
    3    1   12     -0.19      0.00
    4    1   12      0.52      0.00
    5    1   12      0.30      0.00
    6    1   12     -0.25      0.00
    7    1   12     -0.32      0.00
   -8    2   12      0.13      0.00
   -7    2   12     -0.29      0.00
   -6    2   12     -1.25      0.00
   -5    2   12     -1.35      0.00
   -4    2   12      0.21      0.00
   -3    2   12      2.05      0.00
   -2    2   12      2.13      0.00
   -1    2   12      0.61      0.00
    0    2   12     -0.40      0.00
    1    2   12      0.04      0.00
    2    2   12      0.84      0.00
    3    2   12      0.84      0.00
    4    2   12      0.26      0.00
    5    2   12      0.05      0.00
    6    2   12      0.30      0.00
   -8    3   12     -0.43      0.00
   -7    3   12     -1.21      0.00
   -6    3   12     -1.20      0.00
   -5    3   12     -0.33      0.00
   -4    3   12      0.13      0.00
   -3    3   12     -0.50      0.00
   -2    3   12     -1.09      0.00
   -1    3   12     -0.46      0.00
    0    3   12      0.51      0.00
    1    3   12      0.46      0.00
    2    3   12     -0.29      0.00
    3    3   12     -0.72      0.00
    4    3   12     -0.37      0.00
    5    3   12      0.26      0.00
    6    3   12      0.34      0.00
   -8    4   12     -0.09      0.00
   -7    4   12      0.21      0.00
   -6    4   12      0.27      0.00
   -5    4   12     -0.44      0.00
   -4    4   12     -1.08      0.00
   -3    4   12     -0.54      0.00
   -2    4   12      0.74      0.00
   -1    4   12      1.16      0.00
    0    4   12      0.26      0.00
    1    4   12     -0.74      0.00
    2    4   12     -0.87      0.00
    3    4   12     -0.43      0.00
    4    4   12     -0.20      0.00
    5    4   12     -0.30      0.00
   -7    5   12      0.29      0.00
   -6    5   12     -0.13      0.00
   -5    5   12     -0.20      0.00
   -4    5   12      0.63      0.00
   -3    5   12      1.39      0.00
   -2    5   12      0.93      0.00
   -1    5   12     -0.15      0.00
    0    5   12     -0.34      0.00
    1    5   12      0.24      0.00
    2    5   12      0.44      0.00
    3    5   12      0.06      0.00
    4    5   12     -0.31      0.00
    5    5   12     -0.26      0.00
   -6    6   12      0.12      0.00
   -5    6   12      0.27      0.00
   -4    6   12      0.02      0.00
   -3    6   12     -0.53      0.00
   -2    6   12     -0.64      0.00
   -1    6   12      0.10      0.00
    0    6   12      0.80      0.00
    1    6   12      0.64      0.00
    2    6   12      0.08      0.00
    3    6   12     -0.17      0.00
    4    6   12     -0.12      0.00
   -5    7   12     -0.11      0.00
   -4    7   12     -0.47      0.00
   -3    7   12     -0.31      0.00
   -2    7   12      0.32      0.00
   -1    7   12      0.40      0.00
    0    7   12     -0.34      0.00
    1    7   12     -0.75      0.00
    2    7   12     -0.38      0.00
   -3    8   12      0.46      0.00
   -2    8   12      0.08      0.00
   -1    8   12     -0.59      0.00
    0    8   12     -0.63      0.00
   -3   -9   13      0.02      0.00
   -2   -9   13      0.27      0.00
   -1   -9   13      0.52      0.00
    0   -9   13      0.43      0.00
    1   -9   13      0.32      0.00
    2   -9   13      0.38      0.00
    3   -9   13      0.34      0.00
   -4   -8   13      0.23      0.00
   -3   -8   13      0.09      0.00
   -2   -8   13     -0.38      0.00
   -1   -8   13     -0.87      0.00
    0   -8   13     -0.83      0.00
    1   -8   13     -0.27      0.00
    2   -8   13      0.19      0.00
    3   -8   13      0.32      0.00
    4   -8   13      0.22      0.00
   -5   -7   13      0.67      0.00
   -4   -7   13      0.23      0.00
   -3   -7   13     -0.97      0.00
   -2   -7   13     -1.91      0.00
   -1   -7   13     -1.73      0.00
    0   -7   13     -0.94      0.00
    1   -7   13     -0.50      0.00
    2   -7   13     -0.48      0.00
    3   -7   13     -0.49      0.00
    4   -7   13     -0.25      0.00
    5   -7   13      0.09      0.00
   -6   -6   13      0.11      0.00
   -5   -6   13      0.14      0.00
   -4   -6   13      0.29      0.00
   -3   -6   13      0.74      0.00
   -2   -6   13      1.15      0.00
   -1   -6   13      0.77      0.00
    0   -6   13     -0.35      0.00
    1   -6   13     -1.15      0.00
    2   -6   13     -1.03      0.00
    3   -6   13     -0.44      0.00
    4   -6   13     -0.09      0.00
    5   -6   13     -0.13      0.00
    6   -6   13     -0.16      0.00
   -7   -5   13     -0.69      0.00
   -6   -5   13     -0.51      0.00
   -5   -5   13      1.08      0.00
   -4   -5   13      3.10      0.00
   -3   -5   13      3.86      0.00
   -2   -5   13      2.71      0.00
   -1   -5   13      0.76      0.00
    0   -5   13     -0.48      0.00
    1   -5   13     -0.73      0.00
    2   -5   13     -0.63      0.00
    3   -5   13     -0.70      0.00
    4   -5   13     -0.79      0.00
    5   -5   13     -0.42      0.00
    6   -5   13      0.11      0.00
   -7   -4   13     -0.60      0.00
   -6   -4   13     -0.12      0.00
   -5   -4   13      0.51      0.00
   -4   -4   13      0.52      0.00
   -3   -4   13      0.11      0.00
   -2   -4   13      0.04      0.00
   -1   -4   13      0.45      0.00
    0   -4   13      0.63      0.00
    1   -4   13      0.14      0.00
    2   -4   13     -0.49      0.00
    3   -4   13     -0.43      0.00
    4   -4   13      0.27      0.00
    5   -4   13      0.58      0.00
    6   -4   13      0.19      0.00
   -8   -3   13      0.13      0.00
   -7   -3   13     -0.37      0.00
   -6   -3   13     -1.98      0.00
   -5   -3   13     -3.54      0.00
   -4   -3   13     -3.40      0.00
   -3   -3   13     -1.30      0.00
   -2   -3   13      1.32      0.00
   -1   -3   13      2.46      0.00
    0   -3   13      1.81      0.00
    1   -3   13      0.76      0.00
    2   -3   13      0.38      0.00
    3   -3   13      0.43      0.00
    4   -3   13      0.08      0.00
    5   -3   13     -0.47      0.00
    6   -3   13     -0.38      0.00
   -8   -2   13      0.15      0.00
   -7   -2   13     -0.90      0.00
   -6   -2   13     -1.85      0.00
   -5   -2   13     -1.56      0.00
   -4   -2   13     -0.28      0.00
   -3   -2   13      0.97      0.00
   -2   -2   13      1.43      0.00
   -1   -2   13      1.30      0.00
    0   -2   13      1.17      0.00
    1   -2   13      0.95      0.00
    2   -2   13      0.13      0.00
    3   -2   13     -1.07      0.00
    4   -2   13     -1.44      0.00
    5   -2   13     -0.63      0.00
    6   -2   13      0.07      0.00
    7   -2   13      0.05      0.00
   -8   -1   13      0.29      0.00
   -7   -1   13      0.77      0.00
   -6   -1   13      1.33      0.00
   -5   -1   13      0.97      0.00
   -4   -1   13     -0.40      0.00
   -3   -1   13     -1.63      0.00
   -2   -1   13     -1.33      0.00
   -1   -1   13      0.19      0.00
    0   -1   13      1.06      0.00
    1   -1   13      0.55      0.00
    2   -1   13     -0.27      0.00
    3   -1   13     -0.26      0.00
    4   -1   13      0.37      0.00
    5   -1   13      0.54      0.00
    6   -1   13      0.18      0.00
   -8    0   13      1.04      0.00
   -7    0   13      1.44      0.00
   -6    0   13      0.49      0.00
   -5    0   13     -1.27      0.00
   -4    0   13     -2.24      0.00
   -3    0   13     -1.75      0.00
   -2    0   13     -0.72      0.00
   -1    0   13     -0.16      0.00
    0    0   13      0.03      0.00
    1    0   13      0.44      0.00
    2    0   13      1.16      0.00
    3    0   13      1.51      0.00
    4    0   13      0.97      0.00
    5    0   13      0.27      0.00
    6    0   13      0.13      0.00
   -8    1   13      0.16      0.00
   -7    1   13     -0.23      0.00
   -6    1   13     -0.53      0.00
   -5    1   13     -0.20      0.00
   -4    1   13      0.12      0.00
   -3    1   13     -0.55      0.00
   -2    1   13     -1.65      0.00
   -1    1   13     -1.50      0.00
    0    1   13     -0.07      0.00
    1    1   13      0.97      0.00
    2    1   13      0.77      0.00
    3    1   13     -0.06      0.00
    4    1   13     -0.48      0.00
    5    1   13     -0.21      0.00
    6    1   13      0.08      0.00
   -8    2   13     -0.26      0.00
   -7    2   13      0.29      0.00
   -6    2   13      1.27      0.00
   -5    2   13      1.36      0.00
   -4    2   13      0.13      0.00
   -3    2   13     -1.03      0.00
   -2    2   13     -0.86      0.00
   -1    2   13     -0.06      0.00
    0    2   13      0.00      0.00
    1    2   13     -0.62      0.00
    2    2   13     -1.00      0.00
    3    2   13     -0.67      0.00
    4    2   13     -0.09      0.00
    5    2   13     -0.05      0.00
    6    2   13     -0.31      0.00
   -8    3   13      0.28      0.00
   -7    3   13      0.72      0.00
   -6    3   13      0.60      0.00
   -5    3   13      0.18      0.00
   -4    3   13      0.24      0.00
   -3    3   13      0.76      0.00
   -2    3   13      0.71      0.00
   -1    3   13     -0.25      0.00
    0    3   13     -0.90      0.00
    1    3   13     -0.41      0.00
    2    3   13      0.44      0.00
    3    3   13      0.72      0.00
    4    3   13      0.34      0.00
    5    3   13     -0.10      0.00
   -7    4   13     -0.38      0.00
   -6    4   13     -0.48      0.00
   -5    4   13      0.11      0.00
   -4    4   13      0.53      0.00
   -3    4   13     -0.06      0.00
   -2    4   13     -0.92      0.00
   -1    4   13     -0.79      0.00
    0    4   13      0.15      0.00
    1    4   13      0.71      0.00
    2    4   13      0.56      0.00
    3    4   13      0.21      0.00
    4    4   13      0.18      0.00
    5    4   13      0.36      0.00
   -6    5   13      0.13      0.00
   -5    5   13      0.17      0.00
   -4    5   13     -0.30      0.00
   -3    5   13     -0.65      0.00
   -2    5   13     -0.21      0.00
   -1    5   13      0.44      0.00
    0    5   13      0.25      0.00
    1    5   13     -0.40      0.00
    2    5   13     -0.54      0.00
    3    5   13     -0.20      0.00
    4    5   13      0.09      0.00
   -6    6   13      0.00      0.00
   -5    6   13      0.07      0.00
   -4    6   13      0.41      0.00
   -3    6   13      0.70      0.00
   -2    6   13      0.42      0.00
   -1    6   13     -0.35      0.00
    0    6   13     -0.73      0.00
    1    6   13     -0.38      0.00
    2    6   13      0.03      0.00
    3    6   13      0.09      0.00
   -4    7   13      0.19      0.00
   -3    7   13      0.02      0.00
   -2    7   13     -0.37      0.00
   -1    7   13     -0.24      0.00
    0    7   13      0.39      0.00
    1    7   13      0.58      0.00
   -1   -9   14     -0.29      0.00
    0   -9   14     -0.26      0.00
    1   -9   14     -0.21      0.00
   -3   -8   14      0.02      0.00
   -2   -8   14      0.48      0.00
   -1   -8   14      0.87      0.00
    0   -8   14      0.83      0.00
    1   -8   14      0.51      0.00
    2   -8   14      0.20      0.00
    3   -8   14      0.02      0.00
   -5   -7   14     -0.32      0.00
   -4   -7   14     -0.09      0.00
   -3   -7   14      0.57      0.00
   -2   -7   14      0.96      0.00
   -1   -7   14      0.70      0.00
    0   -7   14      0.35      0.00
    1   -7   14      0.34      0.00
    2   -7   14      0.42      0.00
    3   -7   14      0.38      0.00
    4   -7   14      0.22      0.00
   -6   -6   14      0.36      0.00
   -5   -6   14      0.38      0.00
   -4   -6   14     -0.23      0.00
   -3   -6   14     -1.24      0.00
   -2   -6   14     -1.88      0.00
   -1   -6   14     -1.57      0.00
    0   -6   14     -0.59      0.00
    1   -6   14      0.22      0.00
    2   -6   14      0.38      0.00
    3   -6   14      0.19      0.00
    4   -6   14      0.17      0.00
    5   -6   14      0.25      0.00
   -6   -5   14      0.64      0.00
   -5   -5   14     -0.38      0.00
   -4   -5   14     -1.91      0.00
   -3   -5   14     -2.52      0.00
   -2   -5   14     -1.87      0.00
   -1   -5   14     -0.93      0.00
    0   -5   14     -0.42      0.00
    1   -5   14     -0.13      0.00
    2   -5   14      0.19      0.00
    3   -5   14      0.50      0.00
    4   -5   14      0.51      0.00
    5   -5   14      0.14      0.00
   -7   -4   14      0.06      0.00
   -6   -4   14      0.23      0.00
   -5   -4   14      0.72      0.00
   -4   -4   14      1.43      0.00
   -3   -4   14      1.67      0.00
   -2   -4   14      0.96      0.00
   -1   -4   14     -0.15      0.00
    0   -4   14     -0.71      0.00
    1   -4   14     -0.46      0.00
    2   -4   14     -0.02      0.00
    3   -4   14     -0.17      0.00
    4   -4   14     -0.62      0.00
    5   -4   14     -0.49      0.00
    6   -4   14     -0.05      0.00
   -7   -3   14      0.07      0.00
   -6   -3   14      1.48      0.00
   -5   -3   14      3.07      0.00
   -4   -3   14      3.33      0.00
   -3   -3   14      1.87      0.00
   -2   -3   14     -0.18      0.00
   -1   -3   14     -1.32      0.00
    0   -3   14     -1.30      0.00
    1   -3   14     -0.93      0.00
    2   -3   14     -0.76      0.00
    3   -3   14     -0.52      0.00
    4   -3   14      0.08      0.00
    5   -3   14      0.42      0.00
    6   -3   14      0.10      0.00
   -7   -2   14      0.02      0.00
   -6   -2   14      0.11      0.00
   -5   -2   14     -0.11      0.00
   -4   -2   14     -0.43      0.00
   -3   -2   14     -0.47      0.00
   -2   -2   14     -0.30      0.00
   -1   -2   14     -0.44      0.00
    0   -2   14     -0.87      0.00
    1   -2   14     -0.87      0.00
    2   -2   14      0.02      0.00
    3   -2   14      1.10      0.00
    4   -2   14      1.17      0.00
    5   -2   14      0.38      0.00
    6   -2   14     -0.07      0.00
   -7   -1   14     -1.14      0.00
   -6   -1   14     -1.73      0.00
   -5   -1   14     -1.36      0.00
   -4   -1   14     -0.01      0.00
   -3   -1   14      1.32      0.00
   -2   -1   14      1.39      0.00
   -1   -1   14      0.41      0.00
    0   -1   14     -0.22      0.00
    1   -1   14      0.03      0.00
    2   -1   14      0.34      0.00
    3   -1   14     -0.04      0.00
    4   -1   14     -0.58      0.00
    5   -1   14     -0.46      0.00
    6   -1   14     -0.11      0.00
   -8    0   14     -0.44      0.00
   -7    0   14     -0.61      0.00
   -6    0   14     -0.08      0.00
   -5    0   14      0.81      0.00
   -4    0   14      1.20      0.00
   -3    0   14      0.98      0.00
   -2    0   14      0.85      0.00
   -1    0   14      0.87      0.00
    0    0   14      0.37      0.00
    1    0   14     -0.58      0.00
    2    0   14     -1.39      0.00
    3    0   14     -1.44      0.00
    4    0   14     -0.74      0.00
    5    0   14     -0.17      0.00
    6    0   14     -0.07      0.00
   -7    1   14      0.48      0.00
   -6    1   14      0.25      0.00
   -5    1   14     -0.39      0.00
   -4    1   14     -0.56      0.00
   -3    1   14      0.23      0.00
   -2    1   14      1.11      0.00
   -1    1   14      0.88      0.00
    0    1   14     -0.14      0.00
    1    1   14     -0.67      0.00
    2    1   14     -0.25      0.00
    3    1   14      0.40      0.00
    4    1   14      0.48      0.00
    5    1   14      0.15      0.00
   -7    2   14     -0.33      0.00
   -6    2   14     -1.05      0.00
   -5    2   14     -1.06      0.00
   -4    2   14     -0.25      0.00
   -3    2   14      0.31      0.00
   -2    2   14      0.14      0.00
   -1    2   14      0.07      0.00
    0    2   14      0.60      0.00
    1    2   14      1.09      0.00
    2    2   14      0.97      0.00
    3    2   14      0.40      0.00
    4    2   14     -0.05      0.00
    5    2   14      0.00      0.00
   -7    3   14     -0.34      0.00
   -6    3   14     -0.12      0.00
   -5    3   14      0.02      0.00
   -4    3   14     -0.31      0.00
   -3    3   14     -0.63      0.00
   -2    3   14     -0.28      0.00
   -1    3   14      0.51      0.00
    0    3   14      0.71      0.00
    1    3   14      0.09      0.00
    2    3   14     -0.53      0.00
    3    3   14     -0.56      0.00
    4    3   14     -0.18      0.00
   -6    4   14      0.38      0.00
   -5    4   14     -0.08      0.00
   -4    4   14     -0.41      0.00
   -3    4   14      0.01      0.00
   -2    4   14      0.53      0.00
   -1    4   14      0.21      0.00
    0    4   14     -0.46      0.00
    1    4   14     -0.56      0.00
    2    4   14     -0.18      0.00
    3    4   14      0.11      0.00
    4    4   14      0.02      0.00
   -6    5   14     -0.26      0.00
   -5    5   14     -0.36      0.00
   -4    5   14     -0.20      0.00
   -3    5   14     -0.05      0.00
   -2    5   14     -0.24      0.00
   -1    5   14     -0.43      0.00
    0    5   14     -0.04      0.00
    1    5   14      0.52      0.00
    2    5   14      0.56      0.00
    3    5   14      0.25      0.00
   -4    6   14     -0.48      0.00
   -3    6   14     -0.62      0.00
   -2    6   14     -0.22      0.00
   -1    6   14      0.48      0.00
    0    6   14      0.66      0.00
    1    6   14      0.24      0.00
   -2   -8   15     -0.48      0.00
   -1   -8   15     -0.62      0.00
    0   -8   15     -0.56      0.00
    1   -8   15     -0.40      0.00
    2   -8   15     -0.19      0.00
   -4   -7   15     -0.07      0.00
   -3   -7   15     -0.32      0.00
   -2   -7   15     -0.35      0.00
   -1   -7   15     -0.07      0.00
    0   -7   15      0.14      0.00
    1   -7   15      0.05      0.00
    2   -7   15     -0.07      0.00
    3   -7   15     -0.09      0.00
   -5   -6   15     -0.54      0.00
   -4   -6   15      0.08      0.00
   -3   -6   15      1.01      0.00
   -2   -6   15      1.49      0.00
   -1   -6   15      1.36      0.00
    0   -6   15      0.91      0.00
    1   -6   15      0.38      0.00
    2   -6   15      0.04      0.00
    3   -6   15     -0.05      0.00
    4   -6   15     -0.09      0.00
   -6   -5   15     -0.30      0.00
   -5   -5   15      0.13      0.00
   -4   -5   15      0.81      0.00
   -3   -5   15      0.93      0.00
   -2   -5   15      0.55      0.00
   -1   -5   15      0.34      0.00
    0   -5   15      0.36      0.00
    1   -5   15      0.25      0.00
    2   -5   15     -0.05      0.00
    3   -5   15     -0.27      0.00
    4   -5   15     -0.14      0.00
    5   -5   15      0.08      0.00
   -6   -4   15     -0.04      0.00
   -5   -4   15     -1.00      0.00
   -4   -4   15     -2.17      0.00
   -3   -4   15     -2.43      0.00
   -2   -4   15     -1.57      0.00
   -1   -4   15     -0.43      0.00
    0   -4   15      0.27      0.00
    1   -4   15      0.39      0.00
    2   -4   15      0.26      0.00
    3   -4   15      0.42      0.00
    4   -4   15      0.54      0.00
    5   -4   15      0.21      0.00
   -6   -3   15     -0.73      0.00
   -5   -3   15     -1.77      0.00
   -4   -3   15     -2.08      0.00
   -3   -3   15     -1.31      0.00
   -2   -3   15     -0.20      0.00
   -1   -3   15      0.51      0.00
    0   -3   15      0.78      0.00
    1   -3   15      0.83      0.00
    2   -3   15      0.66      0.00
    3   -3   15      0.15      0.00
    4   -3   15     -0.40      0.00
    5   -3   15     -0.40      0.00
   -7   -2   15      0.27      0.00
   -6   -2   15      0.72      0.00
   -5   -2   15      1.19      0.00
   -4   -2   15      1.27      0.00
   -3   -2   15      0.66      0.00
   -2   -2   15     -0.04      0.00
   -1   -2   15      0.00      0.00
    0   -2   15      0.57      0.00
    1   -2   15      0.64      0.00
    2   -2   15     -0.16      0.00
    3   -2   15     -0.92      0.00
    4   -2   15     -0.76      0.00
    5   -2   15     -0.20      0.00
   -7   -1   15      0.57      0.00
   -6   -1   15      1.09      0.00
   -5   -1   15      1.05      0.00
   -4   -1   15      0.17      0.00
   -3   -1   15     -0.86      0.00
   -2   -1   15     -1.11      0.00
   -1   -1   15     -0.70      0.00
    0   -1   15     -0.31      0.00
    1   -1   15     -0.20      0.00
    2   -1   15      0.00      0.00
    3   -1   15      0.49      0.00
    4   -1   15      0.71      0.00
    5   -1   15      0.37      0.00
   -7    0   15     -0.08      0.00
   -6    0   15     -0.31      0.00
   -5    0   15     -0.62      0.00
   -4    0   15     -0.59      0.00
   -3    0   15     -0.38      0.00
   -2    0   15     -0.60      0.00
   -1    0   15     -0.87      0.00
    0    0   15     -0.38      0.00
    1    0   15      0.64      0.00
    2    0   15      1.28      0.00
    3    0   15      1.03      0.00
    4    0   15      0.38      0.00
    5    0   15      0.07      0.00
   -7    1   15     -0.32      0.00
   -6    1   15      0.05      0.00
   -5    1   15      0.66      0.00
   -4    1   15      0.73      0.00
   -3    1   15      0.10      0.00
   -2    1   15     -0.45      0.00
   -1    1   15     -0.39      0.00
    0    1   15     -0.07      0.00
    1    1   15     -0.06      0.00
    2    1   15     -0.41      0.00
    3    1   15     -0.63      0.00
    4    1   15     -0.41      0.00
    5    1   15     -0.09      0.00
   -6    2   15      0.68      0.00
   -5    2   15      0.65      0.00
   -4    2   15      0.26      0.00
   -3    2   15      0.07      0.00
   -2    2   15      0.10      0.00
   -1    2   15     -0.23      0.00
    0    2   15     -0.86      0.00
    1    2   15     -1.06      0.00
    2    2   15     -0.65      0.00
    3    2   15     -0.13      0.00
    4    2   15      0.07      0.00
   -6    3   15     -0.12      0.00
   -5    3   15     -0.07      0.00
   -4    3   15      0.37      0.00
   -3    3   15      0.58      0.00
   -2    3   15      0.20      0.00
   -1    3   15     -0.26      0.00
    0    3   15     -0.19      0.00
    1    3   15      0.24      0.00
    2    3   15      0.45      0.00
    3    3   15      0.27      0.00
   -5    4   15      0.16      0.00
   -4    4   15      0.48      0.00
   -3    4   15      0.30      0.00
   -2    4   15     -0.01      0.00
   -1    4   15      0.19      0.00
    0    4   15      0.50      0.00
    1    4   15      0.31      0.00
    2    4   15     -0.09      0.00
    3    4   15     -0.23      0.00
   -4    5   15      0.35      0.00
   -3    5   15      0.30      0.00
   -2    5   15      0.34      0.00
   -1    5   15      0.27      0.00
    0    5   15     -0.15      0.00
    1    5   15     -0.51      0.00
   -2    6   15      0.11      0.00
   -1    6   15     -0.44      0.00
   -2   -7   16      0.14      0.00
   -1   -7   16      0.00      0.00
    0   -7   16     -0.23      0.00
    1   -7   16     -0.26      0.00
    2   -7   16     -0.11      0.00
   -4   -6   16     -0.03      0.00
   -3   -6   16     -0.57      0.00
   -2   -6   16     -0.75      0.00
   -1   -6   16     -0.75      0.00
    0   -6   16     -0.70      0.00
    1   -6   16     -0.41      0.00
    2   -6   16     -0.04      0.00
    3   -6   16      0.11      0.00
   -5   -5   16     -0.11      0.00
   -4   -5   16     -0.13      0.00
   -3   -5   16      0.07      0.00
   -2   -5   16      0.22      0.00
   -1   -5   16      0.18      0.00
    0   -5   16      0.07      0.00
    1   -5   16     -0.02      0.00
    2   -5   16      0.03      0.00
    3   -5   16      0.10      0.00
   -5   -4   16      0.80      0.00
   -4   -4   16      1.85      0.00
   -3   -4   16      2.04      0.00
   -2   -4   16      1.41      0.00
   -1   -4   16      0.70      0.00
    0   -4   16      0.08      0.00
    1   -4   16     -0.30      0.00
    2   -4   16     -0.34      0.00
    3   -4   16     -0.31      0.00
    4   -4   16     -0.17      0.00
   -6   -3   16      0.28      0.00
   -5   -3   16      0.62      0.00
   -4   -3   16      0.65      0.00
   -3   -3   16      0.37      0.00
   -2   -3   16      0.12      0.00
   -1   -3   16     -0.11      0.00
    0   -3   16     -0.43      0.00
    1   -3   16     -0.66      0.00
    2   -3   16     -0.46      0.00
    3   -3   16      0.12      0.00
    4   -3   16      0.44      0.00
   -6   -2   16     -0.62      0.00
   -5   -2   16     -1.31      0.00
   -4   -2   16     -1.47      0.00
   -3   -2   16     -0.75      0.00
   -2   -2   16      0.07      0.00
   -1   -2   16      0.16      0.00
    0   -2   16     -0.26      0.00
    1   -2   16     -0.39      0.00
    2   -2   16      0.06      0.00
    3   -2   16      0.43      0.00
    4   -2   16      0.25      0.00
   -6   -1   16     -0.31      0.00
   -5   -1   16     -0.43      0.00
   -4   -1   16      0.02      0.00
   -3   -1   16      0.53      0.00
   -2   -1   16      0.69      0.00
   -1   -1   16      0.69      0.00
    0   -1   16      0.61      0.00
    1   -1   16      0.30      0.00
    2   -1   16     -0.22      0.00
    3   -1   16     -0.61      0.00
    4   -1   16     -0.56      0.00
   -6    0   16      0.30      0.00
   -5    0   16      0.40      0.00
   -4    0   16      0.17      0.00
   -3    0   16     -0.07      0.00
   -2    0   16      0.18      0.00
   -1    0   16      0.54      0.00
    0    0   16      0.36      0.00
    1    0   16     -0.29      0.00
    2    0   16     -0.64      0.00
    3    0   16     -0.38      0.00
    4    0   16     -0.04      0.00
   -6    1   16     -0.22      0.00
   -5    1   16     -0.68      0.00
   -4    1   16     -0.68      0.00
   -3    1   16     -0.26      0.00
   -2    1   16      0.05      0.00
   -1    1   16      0.16      0.00
    0    1   16      0.34      0.00
    1    1   16      0.60      0.00
    2    1   16      0.70      0.00
    3    1   16      0.53      0.00
    4    1   16      0.25      0.00
   -6    2   16     -0.25      0.00
   -5    2   16     -0.23      0.00
   -4    2   16     -0.17      0.00
   -3    2   16     -0.19      0.00
   -2    2   16     -0.11      0.00
   -1    2   16      0.21      0.00
    0    2   16      0.57      0.00
    1    2   16      0.56      0.00
    2    2   16      0.21      0.00
    3    2   16     -0.04      0.00
   -5    3   16      0.04      0.00
   -4    3   16     -0.36      0.00
   -3    3   16     -0.55      0.00
   -2    3   16     -0.30      0.00
   -1    3   16     -0.09      0.00
    0    3   16     -0.20      0.00
    1    3   16     -0.33      0.00
    2    3   16     -0.24      0.00
   -4    4   16     -0.33      0.00
   -3    4   16     -0.34      0.00
   -2    4   16     -0.18      0.00
   -1    4   16     -0.22      0.00
    0    4   16     -0.32      0.00
    1    4   16     -0.11      0.00
   -2    5   16     -0.16      0.00
   -2   -6   17      0.28      0.00
   -1   -6   17      0.35      0.00
    0   -6   17      0.37      0.00
    1   -6   17      0.16      0.00
   -3   -5   17     -0.34      0.00
   -2   -5   17     -0.30      0.00
   -1   -5   17     -0.33      0.00
    0   -5   17     -0.36      0.00
    1   -5   17     -0.10      0.00
    2   -5   17      0.09      0.00
   -4   -4   17     -1.06      0.00
   -3   -4   17     -1.16      0.00
   -2   -4   17     -0.92      0.00
   -1   -4   17     -0.65      0.00
    0   -4   17     -0.19      0.00
    1   -4   17      0.23      0.00
    2   -4   17      0.30      0.00
    3   -4   17      0.13      0.00
   -5   -3   17     -0.03      0.00
   -4   -3   17      0.21      0.00
   -3   -3   17      0.21      0.00
   -2   -3   17      0.01      0.00
   -1   -3   17     -0.03      0.00
    0   -3   17      0.19      0.00
    1   -3   17      0.43      0.00
    2   -3   17      0.32      0.00
    3   -3   17     -0.06      0.00
   -5   -2   17      0.84      0.00
   -4   -2   17      1.06      0.00
   -3   -2   17      0.57      0.00
   -2   -2   17      0.02      0.00
   -1   -2   17     -0.12      0.00
    0   -2   17      0.00      0.00
    1   -2   17      0.07      0.00
    2   -2   17      0.00      0.00
    3   -2   17     -0.06      0.00
   -5   -1   17      0.00      0.00
   -4   -1   17     -0.19      0.00
   -3   -1   17     -0.26      0.00
   -2   -1   17     -0.24      0.00
   -1   -1   17     -0.44      0.00
    0   -1   17     -0.66      0.00
    1   -1   17     -0.47      0.00
    2   -1   17      0.03      0.00
    3   -1   17      0.29      0.00
   -5    0   17     -0.14      0.00
   -4    0   17      0.11      0.00
   -3    0   17      0.29      0.00
   -2    0   17      0.09      0.00
   -1    0   17     -0.23      0.00
    0    0   17     -0.30      0.00
    1    0   17     -0.09      0.00
    2    0   17      0.06      0.00
    3    0   17     -0.04      0.00
   -5    1   17      0.44      0.00
   -4    1   17      0.42      0.00
   -3    1   17      0.16      0.00
   -2    1   17     -0.01      0.00
   -1    1   17     -0.12      0.00
    0    1   17     -0.33      0.00
    1    1   17     -0.52      0.00
    2    1   17     -0.45      0.00
   -4    2   17      0.04      0.00
   -3    2   17      0.13      0.00
   -2    2   17      0.04      0.00
   -1    2   17     -0.09      0.00
    0    2   17     -0.13      0.00
    1    2   17     -0.05      0.00
    2    2   17      0.04      0.00
   -3    3   17      0.37      0.00
   -2    3   17      0.28      0.00
   -1    3   17      0.18      0.00
    0    3   17      0.21      0.00
   -2   -4   18      0.51      0.00
   -1   -4   18      0.46      0.00
    0   -4   18      0.17      0.00
    1   -4   18     -0.09      0.00
   -3   -3   18     -0.30      0.00
   -2   -3   18     -0.07      0.00
   -1   -3   18      0.02      0.00
    0   -3   18     -0.05      0.00
    1   -3   18     -0.17      0.00
   -3   -2   18     -0.32      0.00
   -2   -2   18     -0.15      0.00
   -1   -2   18     -0.06      0.00
    0   -2   18      0.10      0.00
    1   -2   18      0.19      0.00
   -4   -1   18      0.19      0.00
   -3   -1   18      0.05      0.00
   -2   -1   18     -0.05      0.00
   -1   -1   18      0.17      0.00
    0   -1   18      0.51      0.00
    1   -1   18      0.50      0.00
   -3    0   18     -0.22      0.00
   -2    0   18     -0.06      0.00
   -1    0   18      0.11      0.00
    0    0   18      0.15      0.00
    1    0   18      0.09      0.00
   -3    1   18      0.03      0.00
   -2    1   18      0.12      0.00
   -1    1   18      0.14      0.00
    0    1   18      0.14      0.00
  -10    6    0     -0.04      0.00
   -3   12    0     -0.31      0.00
   -1  -12    1     -0.11      0.00
  -10    6    1     -0.01      0.00
    8    7    1     -0.27      0.00
    5   10    1      0.37      0.00
    0   12    1     -0.04      0.00
  -10    6    2      0.21      0.00
    7    8    2      0.23      0.00
   -8    9    2      0.18      0.00
    6    9    2     -0.06      0.00
   -7   10    2      0.03      0.00
    3   11    2     -0.30      0.00
   -1   12    2      0.28      0.00
   -4  -11    3     -0.03      0.00
    7  -10    3      0.26      0.00
    8   -9    3      0.36      0.00
   -9   -6    3      0.39      0.00
   -5   11    3     -0.28      0.00
    3  -12    4     -0.01      0.00
    4   10    4     -0.52      0.00
    2   11    4     -0.54      0.00
   -1  -12    5     -0.25      0.00
    9   -7    5     -0.13      0.00
   10   -4    5     -0.02      0.00
    7    7    5     -0.66      0.00
    5    9    5      0.61      0.00
   -4   11    5      0.26      0.00
    1   11    5      0.45      0.00
    0  -12    6      0.12      0.00
    2  -12    6      0.05      0.00
    5  -11    6      0.14      0.00
    9    3    6      0.42      0.00
    3   10    6     -0.43      0.00
   -5  -10    7     -0.05      0.00
   -8   -7    7     -0.05      0.00
  -10   -3    7      0.54      0.00
  -10    4    7      0.10      0.00
    4    9    7      0.38      0.00
   -5   10    7     -0.31      0.00
    2   10    7      0.26      0.00
   -3  -11    8      0.10      0.00
    4  -11    8     -0.14      0.00
   -6   -9    8     -0.30      0.00
   -7   -8    8     -0.12      0.00
   -9   -5    8     -0.09      0.00
  -10   -2    8      0.58      0.00
    9    1    8     -0.32      0.00
  -10    3    8     -0.50      0.00
   -4   10    8      0.10      0.00
    1   10    8      0.13      0.00
    9   -3    9      0.11      0.00
    9   -2    9      0.18      0.00
  -10   -1    9     -0.20      0.00
    9   -1    9     -0.05      0.00
  -10    2    9      0.73      0.00
    8    3    9     -0.09      0.00
    4    8    9     -0.14      0.00
   -2   10    9      0.18      0.00
   -1   10    9     -0.02      0.00
   -1  -11   10      0.17      0.00
    2  -11   10      0.08      0.00
   -8   -6   10     -0.33      0.00
   -9   -4   10      0.12      0.00
    7    4   10     -0.28      0.00
   -6   -8   11      0.00      0.00
   -7   -7   11      0.13      0.00
    8   -4   11     -0.10      0.00
   -9   -3   11     -0.72      0.00
    8    0   11      0.02      0.00
    7    3   11     -0.06      0.00
    5    6   11     -0.02      0.00
   -2    9   11      0.35      0.00
   -1    9   11      0.30      0.00
   -2  -10   12      0.24      0.00
   -9   -1   12     -0.27      0.00
   -9    1   12     -0.44      0.00
   -7    6   12     -0.02      0.00
   -4    8   12      0.21      0.00
   -5   -8   13      0.13      0.00
   -6   -7   13      0.31      0.00
    7   -3   13      0.02      0.00
    7   -1   13     -0.02      0.00
   -7    5   13     -0.12      0.00
   -2   -9   14     -0.21      0.00
    2   -9   14     -0.16      0.00
   -4   -8   14     -0.14      0.00
   -8   -1   14     -0.40      0.00
   -8    1   14      0.28      0.00
    5    3   14      0.04      0.00
   -5    6   14     -0.19      0.00
    2    6   14     -0.09      0.00
   -2    7   14      0.26      0.00
   -1    7   14      0.18      0.00
   -7   -3   15      0.01      0.00
   -7    2   15      0.31      0.00
    4    3   15     -0.01      0.00
   -6    4   15     -0.17      0.00
   -5    5   15      0.37      0.00
    2    5   15     -0.40      0.00
   -3    6   15      0.38      0.00
   -3   -7   16      0.12      0.00
    4   -5   16      0.00      0.00
   -1    5   16     -0.11      0.00
   -4   -5   17     -0.15      0.00
   -4    3   17      0.22      0.00
    1    3   17      0.19      0.00
   -1   -5   18      0.26      0.00
    0   -5   18      0.37      0.00
   -3   -4   18      0.44      0.00
    2   -3   18     -0.18      0.00
   -4   -2   18     -0.50      0.00
    2   -2   18      0.12      0.00
    2   -1   18      0.18      0.00
   -4    0   18     -0.18      0.00
    1    1   18      0.17      0.00
   -2    2   18      0.00      0.00
   -1    2   18      0.02      0.00
    0    0    0      0.00      0.00
# SQUEEZE RESULTS (Version =  71116)
# Note: Data are Listed for all Voids in the P1 Unit Cell
# i.e. Centre of Gravity, Solvent Accessible Volume,
# Recovered number of Electrons in the Void and
# Details about the Squeezed Material
loop_
  _platon_squeeze_void_nr
  _platon_squeeze_void_average_x
  _platon_squeeze_void_average_y
  _platon_squeeze_void_average_z
  _platon_squeeze_void_volume
  _platon_squeeze_void_count_electrons
  _platon_squeeze_void_content
   1  0.000 -0.007  0.500       213        80 ' '
_platon_squeeze_void_probe_radius                  1.20
_platon_squeeze_details
)
TITL AX1527    P -1         R = 0.22
CELL    7.5940    8.5623   13.0880     97.27     95.85     95.58
SPGR P-1
# Solvent Accessible Volume =       215
# Electrons Found in S.A.V. =        80
# Note: Atoms in Void as Cxxx and Qxxx all others
C101 0.088 0.876 0.365 !      17.22 eA-3
C102 0.818 0.664 0.417 !      12.42 eA-3
C103 0.898 0.688 0.469 !       5.98 eA-3
C104 0.025 0.744 0.454 !       4.56 eA-3
C105 0.945 0.724 0.336 !       3.12 eA-3
Q106 0.313 0.405 0.206 !       2.53 eA-3
Q107 0.585 0.662 0.138 !       2.11 eA-3
Q108 0.301 0.315 0.189 !       1.95 eA-3
Q109 0.289 0.276 0.214 !       1.81 eA-3
Q110 0.919 0.251 0.303 !       1.12 eA-3
Q111 0.374 0.029 0.155 !       1.03 eA-3
Q112 0.632 0.506 0.121 !       1.01 eA-3
Q113 0.348 0.467 0.326 !       1.00 eA-3
Q114 0.405 0.033 0.192 !       0.97 eA-3
Q115 0.154 0.597 0.121 !       0.97 eA-3
Q116 0.534 0.970 0.273 !       0.90 eA-3
Q117 0.343 0.941 0.043 !       0.90 eA-3
Q118 0.369 0.586 0.359 !       0.89 eA-3
Q119 0.280 0.117 0.110 !       0.88 eA-3
Q120 0.125 0.624 0.084 !       0.86 eA-3
Q121 0.724 0.092 0.046 !       0.78 eA-3
Q122 0.231 0.468 0.156 !       0.77 eA-3
Q123 0.799 0.874 0.015 !       0.77 eA-3
Q124 0.235 0.158 0.048 !       0.77 eA-3
Q125 0.368 0.161 0.282 !       0.75 eA-3
Q126 0.537 0.437 0.156 !       0.73 eA-3
Q127 0.404 0.225 0.256 !       0.71 eA-3
Q128 0.411 0.622 0.415 !       0.70 eA-3
Q129 0.609 0.037 0.380 !       0.70 eA-3
Q130 0.259 0.215 0.120 !       0.66 eA-3
Q131 0.320 0.038 0.079 !       0.66 eA-3
Q132 0.786 0.026 0.075 !       0.64 eA-3
Q133 0.468 0.215 0.264 !       0.62 eA-3
Q134 0.128 0.317 0.269 !       0.61 eA-3
Q135 0.461 0.153 0.323 !       0.57 eA-3
Q136 0.035 0.251 0.299 !       0.56 eA-3
Q137 0.092 0.245 0.274 !       0.55 eA-3
Q138 0.590 0.371 0.142 !       0.53 eA-3
Q139 0.539 0.224 0.353 !       0.53 eA-3
)
;
_shelx_fab_checksum              51777
loop_
_space_group_symop_operation_xyz
'x, y, z'
'-x, -y, -z'
loop_
_atom_site_label
_atom_site_type_symbol
_atom_site_fract_x
_atom_site_fract_y
_atom_site_fract_z
_atom_site_U_iso_or_equiv
_atom_site_adp_type
_atom_site_occupancy
_atom_site_site_symmetry_order
_atom_site_calc_flag
_atom_site_refinement_flags_posn
_atom_site_refinement_flags_adp
C1 C 0.8217(2) 0.83703(19) 1.00650(13) 0.0278(3) Uani 1 1 d . .
H1 H 0.8730 0.7445 1.0217 0.033 Uiso 1 1 calc R U
C2 C 0.8310(2) 0.9638(2) 1.08432(14) 0.0308(3) Uani 1 1 d . .
H2 H 0.8870 0.9583 1.1519 0.037 Uiso 1 1 calc R U
C3 C 0.7575(2) 1.0985(2) 1.06193(14) 0.0308(3) Uani 1 1 d . .
H3B H 0.7634 1.1875 1.1140 0.037 Uiso 1 1 calc R U
C4 C 0.6751(2) 1.10331(18) 0.96331(14) 0.0286(3) Uani 1 1 d . .
H4 H 0.6236 1.1949 0.9465 0.034 Uiso 1 1 calc R U
C5 C 0.6696(2) 0.97167(17) 0.88999(13) 0.0242(3) Uani 1 1 d . .
C6 C 0.5780(2) 0.95527(19) 0.78450(13) 0.0265(3) Uani 1 1 d . .
C7 C 0.4139(3) 0.9979(3) 0.63798(16) 0.0438(5) Uani 1 1 d . .
H7A H 0.4638 1.0610 0.5872 0.053 Uiso 1 1 calc R U
H7B H 0.2824 0.9941 0.6289 0.053 Uiso 1 1 calc R U
C8 C 0.4735(3) 0.8284(2) 0.62648(14) 0.0382(4) Uani 1 1 d . .
H8A H 0.3692 0.7468 0.6153 0.046 Uiso 1 1 calc R U
H8B H 0.5453 0.8119 0.5678 0.046 Uiso 1 1 calc R U
C9 C 0.9045(3) 0.7027(2) 0.73879(14) 0.0333(4) Uani 1 1 d . .
C10 C 0.8079(2) 0.5089(2) 0.85792(14) 0.0295(3) Uani 1 1 d . .
C11 C 0.6348(3) 0.4994(2) 0.68096(15) 0.0350(4) Uani 1 1 d . .
C12 C 0.3899(2) 0.4884(2) 0.86686(15) 0.0330(4) Uani 1 1 d . .
H12 H 0.2818 0.4922 0.8972 0.040 Uiso 1 1 calc R U
Mn1 Mn 0.69936(3) 0.65259(3) 0.79030(2) 0.02378(8) Uani 1 1 d . .
N1 N 0.74291(17) 0.83967(15) 0.91035(11) 0.0236(3) Uani 1 1 d . .
N2 N 0.5809(2) 0.82257(17) 0.72527(11) 0.0290(3) Uani 1 1 d . .
N3 N 0.4871(3) 1.0622(2) 0.74323(13) 0.0389(4) Uani 1 1 d D .
O1 O 1.0353(2) 0.7314(2) 0.70471(13) 0.0507(4) Uani 1 1 d . .
O2 O 0.8841(2) 0.41866(17) 0.89540(12) 0.0428(3) Uani 1 1 d . .
O3 O 0.5988(3) 0.40341(19) 0.61116(13) 0.0543(4) Uani 1 1 d . .
O4 O 0.46518(16) 0.61917(14) 0.85038(11) 0.0320(3) Uani 1 1 d . .
O5 O 0.4393(3) 0.35803(17) 0.84851(16) 0.0560(4) Uani 1 1 d . .
H3A H 0.473(4) 1.150(2) 0.775(2) 0.054(8) Uiso 1 1 d D .
loop_
_atom_site_aniso_label
_atom_site_aniso_U_11
_atom_site_aniso_U_22
_atom_site_aniso_U_33
_atom_site_aniso_U_23
_atom_site_aniso_U_13
_atom_site_aniso_U_12
C1 0.0281(7) 0.0256(7) 0.0303(8) 0.0058(6) 0.0031(6) 0.0031(6)
C2 0.0300(8) 0.0321(8) 0.0293(8) 0.0020(6) 0.0027(6) 0.0015(6)
C3 0.0275(8) 0.0254(7) 0.0376(9) -0.0026(6) 0.0055(6) 0.0007(6)
C4 0.0303(8) 0.0185(6) 0.0378(9) 0.0019(6) 0.0100(6) 0.0035(5)
C5 0.0252(7) 0.0187(6) 0.0303(7) 0.0050(5) 0.0078(6) 0.0032(5)
C6 0.0315(8) 0.0216(7) 0.0293(8) 0.0080(6) 0.0088(6) 0.0067(6)
C7 0.0596(13) 0.0408(10) 0.0337(9) 0.0106(8) -0.0003(9) 0.0182(9)
C8 0.0486(11) 0.0412(10) 0.0266(8) 0.0068(7) 0.0002(7) 0.0156(8)
C9 0.0389(9) 0.0300(8) 0.0307(8) 0.0012(6) 0.0052(7) 0.0055(7)
C10 0.0307(8) 0.0246(7) 0.0336(8) 0.0021(6) 0.0042(6) 0.0065(6)
C11 0.0410(9) 0.0276(8) 0.0361(9) 0.0014(7) 0.0016(7) 0.0092(7)
C12 0.0343(8) 0.0235(7) 0.0417(10) 0.0048(7) 0.0066(7) 0.0028(6)
Mn1 0.02810(13) 0.01812(12) 0.02562(13) 0.00187(9) 0.00312(9) 0.00664(9)
N1 0.0244(6) 0.0190(6) 0.0274(6) 0.0024(5) 0.0050(5) 0.0017(5)
N2 0.0380(7) 0.0241(6) 0.0263(7) 0.0058(5) 0.0017(6) 0.0092(5)
N3 0.0577(10) 0.0309(8) 0.0322(8) 0.0060(6) 0.0061(7) 0.0224(7)
O1 0.0436(8) 0.0595(10) 0.0500(9) 0.0027(7) 0.0202(7) 0.0016(7)
O2 0.0428(7) 0.0354(7) 0.0534(9) 0.0145(6) -0.0003(6) 0.0159(6)
O3 0.0727(11) 0.0390(8) 0.0440(8) -0.0166(7) -0.0016(8) 0.0078(7)
O4 0.0292(6) 0.0205(5) 0.0470(7) 0.0030(5) 0.0084(5) 0.0047(4)
O5 0.0721(11) 0.0227(6) 0.0802(12) 0.0123(7) 0.0310(9) 0.0105(7)
loop_
_atom_type_symbol
_atom_type_description
_atom_type_scat_dispersion_real
_atom_type_scat_dispersion_imag
_atom_type_scat_source
C C 0.0033 0.0016 'International Tables Vol C Tables 4.2.6.8 and 6.1.1.4'
H H 0.0000 0.0000 'International Tables Vol C Tables 4.2.6.8 and 6.1.1.4'
N N 0.0061 0.0033 'International Tables Vol C Tables 4.2.6.8 and 6.1.1.4'
O O 0.0106 0.0060 'International Tables Vol C Tables 4.2.6.8 and 6.1.1.4'
Mn Mn 0.3368 0.7283 'International Tables Vol C Tables 4.2.6.8 and 6.1.1.4'
loop_
_geom_angle_atom_site_label_1
_geom_angle_atom_site_label_2
_geom_angle_atom_site_label_3
_geom_angle
N1 C1 C2 122.48(16)
N1 C1 H1 118.8
C2 C1 H1 118.8
C3 C2 C1 118.70(17)
C3 C2 H2 120.6
C1 C2 H2 120.6
C2 C3 C4 119.66(16)
C2 C3 H3B 120.2
C4 C3 H3B 120.2
C5 C4 C3 118.31(15)
C5 C4 H4 120.8
C3 C4 H4 120.8
N1 C5 C4 122.72(15)
N1 C5 C6 112.59(14)
C4 C5 C6 124.62(15)
N2 C6 N3 115.95(16)
N2 C6 C5 117.42(14)
N3 C6 C5 126.61(15)
N3 C7 C8 102.58(15)
N3 C7 H7A 111.3
C8 C7 H7A 111.3
N3 C7 H7B 111.3
C8 C7 H7B 111.3
H7A C7 H7B 109.2
N2 C8 C7 104.05(15)
N2 C8 H8A 110.9
C7 C8 H8A 110.9
N2 C8 H8B 110.9
C7 C8 H8B 110.9
H8A C8 H8B 109.0
O1 C9 Mn1 178.48(17)
O2 C10 Mn1 175.31(16)
O3 C11 Mn1 178.08(19)
O5 C12 O4 127.71(18)
O5 C12 H12 116.1
O4 C12 H12 116.1
C9 Mn1 C11 89.70(9)
C9 Mn1 C10 88.68(8)
C11 Mn1 C10 88.65(8)
C9 Mn1 N2 92.26(8)
C11 Mn1 N2 95.45(7)
C10 Mn1 N2 175.80(7)
C9 Mn1 O4 174.35(7)
C11 Mn1 O4 94.07(7)
C10 Mn1 O4 95.61(7)
N2 Mn1 O4 83.20(6)
C9 Mn1 N1 94.44(7)
C11 Mn1 N1 172.63(7)
C10 Mn1 N1 97.52(7)
N2 Mn1 N1 78.32(6)
O4 Mn1 N1 81.37(5)
C1 N1 C5 118.11(14)
C1 N1 Mn1 126.60(11)
C5 N1 Mn1 115.03(11)
C6 N2 C8 108.27(14)
C6 N2 Mn1 116.50(12)
C8 N2 Mn1 134.75(12)
C6 N3 C7 109.06(15)
C6 N3 H3A 125(2)
C7 N3 H3A 126(2)
C12 O4 Mn1 125.98(12)
loop_
_geom_bond_atom_site_label_1
_geom_bond_atom_site_label_2
_geom_bond_distance
C1 N1 1.341(2)
C1 C2 1.383(2)
C1 H1 0.9500
C2 C3 1.381(3)
C2 H2 0.9500
C3 C4 1.383(3)
C3 H3B 0.9500
C4 C5 1.379(2)
C4 H4 0.9500
C5 N1 1.352(2)
C5 C6 1.465(2)
C6 N2 1.295(2)
C6 N3 1.333(2)
C7 N3 1.450(3)
C7 C8 1.556(3)
C7 H7A 0.9900
C7 H7B 0.9900
C8 N2 1.465(2)
C8 H8A 0.9900
C8 H8B 0.9900
C9 O1 1.147(2)
C9 Mn1 1.7955(19)
C10 O2 1.139(2)
C10 Mn1 1.8165(18)
C11 O3 1.140(2)
C11 Mn1 1.8071(19)
C12 O5 1.215(2)
C12 O4 1.261(2)
C12 H12 0.9500
Mn1 N2 2.0160(14)
Mn1 O4 2.0262(13)
Mn1 N1 2.0732(14)
N3 H3A 0.835(17)
loop_
_geom_hbond_atom_site_label_D
_geom_hbond_atom_site_label_H
_geom_hbond_atom_site_label_A
_geom_hbond_distance_DH
_geom_hbond_distance_HA
_geom_hbond_distance_DA
_geom_hbond_angle_DHA
_geom_hbond_site_symmetry_A
N3 H3A O5 0.835(17) 1.966(17) 2.801(2) 180(3) 1_565
loop_
_geom_torsion_atom_site_label_1
_geom_torsion_atom_site_label_2
_geom_torsion_atom_site_label_3
_geom_torsion_atom_site_label_4
_geom_torsion
N1 C1 C2 C3 -0.4(3)
C1 C2 C3 C4 0.6(2)
C2 C3 C4 C5 -0.1(2)
C3 C4 C5 N1 -0.8(2)
C3 C4 C5 C6 176.11(15)
N1 C5 C6 N2 -1.1(2)
C4 C5 C6 N2 -178.30(15)
N1 C5 C6 N3 177.10(17)
C4 C5 C6 N3 -0.1(3)
N3 C7 C8 N2 -2.9(2)
C2 C1 N1 C5 -0.4(2)
C2 C1 N1 Mn1 -174.17(12)
C4 C5 N1 C1 1.0(2)
C6 C5 N1 C1 -176.23(13)
C4 C5 N1 Mn1 175.51(12)
C6 C5 N1 Mn1 -1.73(16)
N3 C6 N2 C8 -1.7(2)
C5 C6 N2 C8 176.75(15)
N3 C6 N2 Mn1 -174.89(13)
C5 C6 N2 Mn1 3.5(2)
C7 C8 N2 C6 2.8(2)
C7 C8 N2 Mn1 174.26(14)
N2 C6 N3 C7 -0.4(2)
C5 C6 N3 C7 -178.64(17)
C8 C7 N3 C6 2.1(2)
O5 C12 O4 Mn1 -1.7(3)
