#------------------------------------------------------------------------------
#$Date: 2020-03-05 02:32:35 +0200 (Thu, 05 Mar 2020) $
#$Revision: 249055 $
#$URL: file:///home/coder/svn-repositories/cod/cif/7/23/97/7239799.cif $
#------------------------------------------------------------------------------
#
# This file is available in the Crystallography Open Database (COD),
# http://www.crystallography.net/
#
# All data on this site have been placed in the public domain by the
# contributors.
#
data_7239799
loop_
_publ_author_name
'Kumar, Vijith'
'Xu, Yijue'
'Leroy, C\'esar'
'Bryce, David L.'
_publ_section_title
;
 Direct investigation of chalcogen bonds by multinuclear solid-state
 magnetic resonance and vibrational spectroscopy.
;
_journal_issue                   7
_journal_name_full               'Physical chemistry chemical physics : PCCP'
_journal_page_first              3817
_journal_page_last               3824
_journal_paper_doi               10.1039/c9cp06267j
_journal_volume                  22
_journal_year                    2020
_chemical_formula_moiety         'C8 H7 N Te'
_chemical_formula_sum            'C8 H7 N Te'
_chemical_formula_weight         244.75
_space_group_crystal_system      monoclinic
_space_group_IT_number           14
_space_group_name_Hall           '-P 2ybc'
_space_group_name_H-M_alt        'P 1 21/c 1'
_atom_sites_solution_hydrogens   geom
_audit_creation_date             2019-09-27
_audit_creation_method
;
Olex2 1.2
(compiled 2018.05.29 svn.r3508 for OlexSys, GUI svn.r5506)
;
_audit_update_record
;
2019-09-27 deposited with the CCDC.	2020-01-21 downloaded from the CCDC.
;
_cell_angle_alpha                90
_cell_angle_beta                 95.82(2)
_cell_angle_gamma                90
_cell_formula_units_Z            4
_cell_length_a                   6.031(4)
_cell_length_b                   16.042(11)
_cell_length_c                   8.787(7)
_cell_measurement_reflns_used    9909
_cell_measurement_temperature    293(2)
_cell_measurement_theta_max      26.89
_cell_measurement_theta_min      2.54
_cell_volume                     845.8(11)
_computing_molecular_graphics    'Olex2 (Dolomanov et al., 2009)'
_computing_publication_material  'Olex2 (Dolomanov et al., 2009)'
_computing_structure_refinement  'ShelXL (Sheldrick, 2015)'
_computing_structure_solution    'SHELXT 2014/5 (Sheldrick, 2014)'
_diffrn_ambient_temperature      293.15
_diffrn_detector                 'Bruker APEX2 area detector'
_diffrn_detector_area_resol_mean 7.9
_diffrn_detector_type            'CCD area detector'
_diffrn_measured_fraction_theta_full 1.000
_diffrn_measured_fraction_theta_max 0.995
_diffrn_measurement_device       'three-circle diffractometer'
_diffrn_measurement_device_type  'Bruker SMART APEX2 area detector'
_diffrn_measurement_method       '\w and \f scans'
_diffrn_radiation_monochromator  'mirror optics'
_diffrn_radiation_probe          x-ray
_diffrn_radiation_type           MoK\a
_diffrn_radiation_wavelength     0.71073
_diffrn_reflns_av_R_equivalents  0.0407
_diffrn_reflns_av_unetI/netI     0.0144
_diffrn_reflns_Laue_measured_fraction_full 1.000
_diffrn_reflns_Laue_measured_fraction_max 0.995
_diffrn_reflns_limit_h_max       7
_diffrn_reflns_limit_h_min       -7
_diffrn_reflns_limit_k_max       20
_diffrn_reflns_limit_k_min       -20
_diffrn_reflns_limit_l_max       11
_diffrn_reflns_limit_l_min       -11
_diffrn_reflns_number            31142
_diffrn_reflns_point_group_measured_fraction_full 1.000
_diffrn_reflns_point_group_measured_fraction_max 0.995
_diffrn_reflns_theta_full        25.242
_diffrn_reflns_theta_max         27.506
_diffrn_reflns_theta_min         2.539
_diffrn_source                   'microfocus sealed X-ray tube'
_diffrn_source_type              'Incoatec I\ms'
_exptl_absorpt_coefficient_mu    3.441
_exptl_absorpt_correction_T_max  0.7456
_exptl_absorpt_correction_T_min  0.5315
_exptl_absorpt_correction_type   multi-scan
_exptl_absorpt_process_details
'SADABS-2016/2 (Bruker,2016/2) was used for absorption correction. wR2(int) was 0.0816 before and 0.0530 after correction. The Ratio of minimum to maximum transmission is 0.7128. The \l/2 correction factor is Not present.'
_exptl_crystal_colour            'clear light colourless'
_exptl_crystal_colour_lustre     clear
_exptl_crystal_colour_modifier   light
_exptl_crystal_colour_primary    colourless
_exptl_crystal_density_diffrn    1.922
_exptl_crystal_description       plate
_exptl_crystal_F_000             456
_exptl_crystal_size_max          0.18
_exptl_crystal_size_mid          0.16
_exptl_crystal_size_min          0.08
_refine_diff_density_max         0.435
_refine_diff_density_min         -0.337
_refine_diff_density_rms         0.060
_refine_ls_extinction_method     none
_refine_ls_goodness_of_fit_ref   1.158
_refine_ls_hydrogen_treatment    constr
_refine_ls_matrix_type           full
_refine_ls_number_parameters     146
_refine_ls_number_reflns         1938
_refine_ls_number_restraints     84
_refine_ls_restrained_S_all      1.145
_refine_ls_R_factor_all          0.0241
_refine_ls_R_factor_gt           0.0190
_refine_ls_shift/su_max          0.001
_refine_ls_shift/su_mean         0.000
_refine_ls_structure_factor_coef Fsqd
_refine_ls_weighting_details
'w=1/[\s^2^(Fo^2^)+(0.0180P)^2^+0.2454P] where P=(Fo^2^+2Fc^2^)/3'
_refine_ls_weighting_scheme      calc
_refine_ls_wR_factor_gt          0.0410
_refine_ls_wR_factor_ref         0.0424
_reflns_Friedel_coverage         0.000
_reflns_number_gt                1709
_reflns_number_total             1938
_reflns_threshold_expression     'I > 2\s(I)'
_cod_data_source_file            c9cp06267j2.cif
_cod_data_source_block           vks16_a
_cod_depositor_comments
'Adding full bibliography for 7239797--7239799.cif.'
_cod_original_cell_volume        845.7(11)
_cod_database_code               7239799
_shelx_shelxl_version_number     2018/3
_shelx_space_group_comment
;
The symmetry employed for this shelxl refinement is uniquely defined
by the following loop, which should always be used as a source of
symmetry information in preference to the above space-group names.
They are only intended as comments.
;
_shelx_estimated_absorpt_t_max   0.770
_shelx_estimated_absorpt_t_min   0.576
_olex2_refinement_description
;
1. Fixed Uiso
 At 1.2 times of:
  All C(H) groups, All C(H,H,H,H) groups
2. Rigid body (RIGU) restrains
 C1, C2, C3, C4, C5, C6, C1A, C2A, C3A, C4A, C5A, C6A
 with sigma for 1-2 distances of 0.004 and sigma for 1-3 distances of 0.004
 C1, C1A
 with sigma for 1-2 distances of 0.0001 and sigma for 1-3 distances of 0.0001
3. Same fragment restrains
{C1, C2, C3, C4, C5, C6} sigma for 1-2: 0.02, 1-3: 0.04
as
{C1A, C2A, C3A, C4A, C5A, C6A}
4. Others
 Sof(H7BC)=Sof(H7BD)=Sof(C1A)=Sof(C2A)=Sof(H2A)=Sof(C3A)=Sof(H3A)=Sof(C4A)=
 Sof(H4A)=Sof(C5A)=Sof(H5A)=Sof(C6A)=Sof(H6A)=1-FVAR(1)
 Sof(H7AA)=Sof(H7AB)=Sof(C1)=Sof(C2)=Sof(H2)=Sof(C3)=Sof(H3)=Sof(C4)=Sof(H4)=
 Sof(C5)=Sof(H5)=Sof(C6)=Sof(H6)=FVAR(1)
5.a Secondary CH2 refined with riding coordinates:
 C7(H7AA,H7AB), C7(H7BC,H7BD)
5.b Aromatic/amide H refined with riding coordinates:
 C2(H2), C3(H3), C4(H4), C5(H5), C6(H6), C2A(H2A), C3A(H3A), C4A(H4A),
 C5A(H5A), C6A(H6A)
;
_shelx_res_file
;
TITL VKS16_a.res in P2(1)/c
    vks16_a.res
    created by SHELXL-2018/3 at 11:35:17 on 27-Sep-2019
REM SADI C1 C2 C3 C4 C5 C6
REM FLAT C1 C2 C3 C4 C5 C6
REM EADP C1 C2 C3 C4 C5 C6
CELL 0.71073 6.031 16.042 8.7869 90 95.821 90
ZERR 4 0.0044 0.0111 0.0072 0 0.022 0
LATT 1
SYMM -X,0.5+Y,0.5-Z
SFAC C H N Te
UNIT 32 28 4 4
RIGU C1 C2 C3 C4 C5 C6 C1A C2A C3A C4A C5A C6A
RIGU 0.0001 0.0001 C1 C1A

L.S. 20
PLAN  -20 0 0
SIZE 0.18 0.16 0.08
TEMP 20
LIST 4
BOND $H
CONF
fmap 2
acta
REM <olex2.extras>
REM <HklSrc "%.\\VKS16_a.hkl">
REM </olex2.extras>

WGHT    0.018000    0.245400
FVAR       0.41532   0.45825
TE1   4    0.157444    0.604080    0.068363    11.00000    0.03091    0.05197 =
         0.04732   -0.00577   -0.00069   -0.00163
N1    3    0.692690    0.606172    0.091001    11.00000    0.03630    0.08807 =
         0.07255   -0.00655    0.00483    0.00110
C7    1    0.159446    0.690042    0.260031    11.00000    0.04855    0.04656 =
         0.05554   -0.00937   -0.00061    0.00776
PART 1
AFIX  23
H7AA  2    0.229788    0.741583    0.232912    21.00000   -1.20000
H7AB  2    0.006480    0.702886    0.276343    21.00000   -1.20000
AFIX  23
PART 0
PART 2
H7BC  2    0.212560    0.744079    0.229987   -21.00000   -1.20000
H7BD  2    0.008657    0.696941    0.287302   -21.00000   -1.20000
AFIX   0
PART 0
C8    1    0.503970    0.607298    0.083562    11.00000    0.03677    0.05811 =
         0.05193   -0.00459    0.00411   -0.00091
PART 1
C1    1    0.271763    0.660037    0.400513    21.00000    0.03041    0.03441 =
         0.06115   -0.01511    0.01199    0.00585
C2    1    0.492144    0.679280    0.450391    21.00000    0.05272    0.05081 =
         0.05381   -0.00713    0.01401   -0.00888
AFIX  43
H2    2    0.568504    0.715698    0.391968    21.00000   -1.20000
AFIX   0
C3    1    0.604794    0.646317    0.584792    21.00000    0.05698    0.06409 =
         0.07065   -0.01619   -0.00615   -0.00136
AFIX  43
H3    2    0.750587    0.661669    0.617436    21.00000   -1.20000
AFIX   0
C4    1    0.490664    0.590526    0.665852    21.00000    0.08216    0.06064 =
         0.05435   -0.00538   -0.00583    0.00406
AFIX  43
H4    2    0.557929    0.569854    0.758102    21.00000   -1.20000
AFIX   0
C5    1    0.282970    0.564875    0.614971    21.00000    0.09512    0.06617 =
         0.05116   -0.00309   -0.00842   -0.02165
AFIX  43
H5    2    0.211493    0.525247    0.669876    21.00000   -1.20000
AFIX   0
C6    1    0.177439    0.597219    0.482434    21.00000    0.05636    0.06032 =
         0.04517   -0.00999   -0.00269   -0.01997
AFIX  43
H6    2    0.038077    0.576499    0.445977    21.00000   -1.20000
AFIX   0
SAME 0.02 0.04 C1 > C6
PART 0
PART 2
C1A   1    0.309483    0.658040    0.399633   -21.00000    0.02969    0.04873 =
         0.03468   -0.00311    0.00004    0.00708
C2A   1    0.513928    0.697843    0.435109   -21.00000    0.04605    0.04204 =
         0.05079   -0.00813   -0.00201   -0.01008
AFIX  43
H2A   2    0.559579    0.740571    0.373903   -21.00000   -1.20000
AFIX   0
C3A   1    0.646618    0.671883    0.563934   -21.00000    0.05429    0.06372 =
         0.05850   -0.02161   -0.01430   -0.00008
AFIX  43
H3A   2    0.784100    0.697275    0.589005   -21.00000   -1.20000
AFIX   0
C4A   1    0.579043    0.608998    0.656110   -21.00000    0.08381    0.06189 =
         0.05267   -0.00879   -0.01643    0.01556
AFIX  43
H4A   2    0.675883    0.589617    0.737534   -21.00000   -1.20000
AFIX   0
C5A   1    0.371149    0.575017    0.628702   -21.00000    0.08986    0.05191 =
         0.05157    0.00044   -0.00623   -0.00700
AFIX  43
H5A   2    0.321832    0.534701    0.693463   -21.00000   -1.20000
AFIX   0
C6A   1    0.237255    0.602069    0.502929   -21.00000    0.05890    0.05867 =
         0.05463   -0.00828    0.00327   -0.01701
AFIX  43
H6A   2    0.092226    0.581886    0.486716   -21.00000   -1.20000
AFIX   0
HKLF 4




REM  VKS16_a.res in P2(1)/c
REM wR2 = 0.0424, GooF = S = 1.158, Restrained GooF = 1.145 for all data
REM R1 = 0.0190 for 1709 Fo > 4sig(Fo) and 0.0241 for all 1938 data
REM 146 parameters refined using 84 restraints

END

WGHT      0.0180      0.2454

REM Highest difference peak  0.435,  deepest hole -0.337,  1-sigma level  0.060
Q1    1   0.1553  0.5646  0.1431  11.00000  0.05    0.43
Q2    1   0.1221  0.6383  0.1564  11.00000  0.05    0.43
Q3    1   0.2146  0.6021 -0.0133  11.00000  0.05    0.41
Q4    1   0.1219  0.5542 -0.0276  11.00000  0.05    0.24
Q5    1   0.7715  0.6216  0.0467  11.00000  0.05    0.21
Q6    1   0.6796  0.6297  0.6605  11.00000  0.05    0.21
Q7    1  -0.0743  0.6891  0.4297  11.00000  0.05    0.20
Q8    1   0.6251  0.5949  0.7972  11.00000  0.05    0.19
Q9    1   0.2368  0.6744  0.4213  11.00000  0.05    0.18
Q10   1   0.5816  0.5885  0.0393  11.00000  0.05    0.18
Q11   1  -0.1971  0.6101  0.3363  11.00000  0.05    0.18
Q12   1   0.4333  0.6047  0.7927  11.00000  0.05    0.18
Q13   1  -0.0427  0.6604  0.2779  11.00000  0.05    0.18
Q14   1   0.1576  0.4853  0.6036  11.00000  0.05    0.18
Q15   1   0.3599  0.6796  0.4443  11.00000  0.05    0.16
Q16   1   0.5462  0.6154  0.6931  11.00000  0.05    0.16
Q17   1   0.7810  0.5952  0.1626  11.00000  0.05    0.15
Q18   1   0.4791  0.6983  0.7171  11.00000  0.05    0.15
Q19   1   0.2304  0.6322  0.4421  11.00000  0.05    0.15
Q20   1   0.5079  0.5922  0.1198  11.00000  0.05    0.15
;
_shelx_res_checksum              59233
_shelx_hkl_file
;
  -1   0   0  106.89    5.10
   1   0   0  101.79    5.20
   1   0   0  105.59    5.10
   1   0   0  106.89    5.00
   1   0   0   98.39    5.10
   1   0   0  111.49    4.90
   1   0   0  110.19    5.10
   1   0   0  104.69    5.00
   1   0   0  109.59    5.10
   1   0   0  109.99    5.10
  -1   0   0  107.79    5.10
  -1   0   0  100.59    5.30
  -1   0   0  102.79    5.10
  -1   0   0  112.89    5.00
  -1   0   0  103.99    5.10
  -1   0   0  106.29    5.00
  -1   0   0  110.39    5.10
  -1   0   0  111.39    5.10
  -1   0   0  110.89    5.10
  -1   0   0  103.09    5.20
   2   0   0 1053.79   45.40
   2   0   0 1072.49   45.50
   2   0   0  996.80   45.20
   2   0   0 1049.59   45.40
   2   0   0 1111.49   45.50
  -2   0   0 1011.70   45.80
  -2   0   0  994.40   45.40
   2   0   0 1022.30   45.40
  -2   0   0 1021.10   45.30
  -2   0   0 1093.09   45.50
  -2   0   0 1069.79   45.40
   2   0   0 1015.90   45.60
  -2   0   0 1034.80   45.20
  -2   0   0 1021.80   45.50
  -2   0   0 1043.10   45.60
  -2   0   0 1066.59   45.40
  -2   0   0 1051.19   45.40
   2   0   0  936.91   45.70
   2   0   0 1013.50   45.40
   2   0   0 1061.49   45.20
  -2   0   0 1032.40   45.50
   3   0   0 3348.06  143.59
   3   0   0 3382.56  143.79
   3   0   0 3360.36  143.39
   3   0   0 3193.78  143.39
   3   0   0 3075.79  142.99
  -3   0   0 3331.27  143.49
  -3   0   0 3270.07  143.19
  -3   0   0 3334.47  143.59
  -3   0   0 3178.68  143.99
   3   0   0 3530.75  143.59
  -3   0   0 3314.97  143.19
  -4   0   0  620.84   27.90
  -4   0   0  641.64   28.40
   4   0   0  610.34   27.30
   4   0   0  602.54   28.60
   4   0   0  643.24   28.30
   4   0   0  574.74   28.10
  -4   0   0  566.94   29.00
   4   0   0  635.44   28.40
  -4   0   0  636.24   28.00
   4   0   0  598.54   28.30
  -4   0   0  674.13   28.40
  -4   0   0  623.54   28.40
   5   0   0   10.40    2.70
   5   0   0    8.20    2.60
  -5   0   0    7.20    2.70
   5   0   0    4.70    2.80
   5   0   0    4.90    2.60
  -5   0   0    5.90    2.00
   5   0   0    4.50    2.50
  -5   0   0    4.00    3.10
  -5   0   0    7.20    2.60
  -5   0   0    5.90    2.30
  -5   0   0    4.70    2.60
   6   0   0  738.73   33.60
  -6   0   0  696.73   34.80
  -6   0   0  698.73   32.80
   6   0   0  684.33   33.00
  -6   0   0  721.03   33.70
  -6   0   0  710.33   33.50
  -6   0   0  760.72   33.40
   6   0   0  720.83   33.40
   6   0   0  682.03   33.40
   6   0   0  730.23   34.00
  -7   0   0  188.48   11.50
   7   0   0  173.38   11.40
  -7   0   0  191.08   11.80
  -7   0   0  183.18   12.80
   7   0   0  190.58   11.70
   7   0   0  163.08   11.90
   7   0   0  209.88   12.00
   0  -1   0    0.30    0.20
   0  -1   0    0.20    0.20
   0  -1   0    0.30    0.30
   0  -1   0    0.10    0.30
   0  -1   0   -0.10    0.10
   0  -1   0   -0.30    0.20
   0  -1   0    0.10    0.10
   0  -1   0    0.00    0.20
   0  -1   0    0.00    0.10
   0  -1   0    0.10    0.30
   0   1   0    0.60    0.40
   0   1   0    0.20    0.30
   0   1   0    0.00    0.20
   0   1   0   -0.10    0.20
   0   1   0    0.60    0.40
   0   1   0   -0.30    0.40
   0   1   0    0.00    0.20
   0   1   0    0.00    0.30
   0   1   0   -0.20    0.30
   0   1   0    0.10    0.20
   0   1   0    0.20    0.20
  -1  -1   0 2554.74  102.29
  -1  -1   0 2387.56  102.49
  -1  -1   0 2464.65  102.29
  -1  -1   0 2266.07  102.29
  -1  -1   0 2409.46  102.49
   1  -1   0 2225.78  101.99
   1  -1   0 2400.26  102.29
  -1  -1   0 2381.96  102.19
   1  -1   0 2317.07  102.09
   1  -1   0 2350.26  102.19
   1  -1   0 2276.77  102.19
   1  -1   0 2211.18  101.99
   1  -1   0 2302.17  102.59
   1  -1   0 2307.57  102.19
  -1  -1   0 2384.66  102.29
   1  -1   0 2338.77  102.19
   1  -1   0 2491.85  101.99
  -1  -1   0 2529.15  102.49
   1  -1   0 2437.56  102.49
  -1  -1   0 2475.65  102.59
   1   1   0 2504.85  102.19
  -1   1   0 2143.49  102.09
  -1   1   0 2296.07  102.19
  -1   1   0 2431.56  102.09
  -1   1   0 2210.98  102.19
   1   1   0 2433.76  102.39
   1   1   0 2340.87  102.19
   1   1   0 2234.88  102.09
   1   1   0 2392.96  102.29
   1   1   0 2518.25  102.69
  -1   1   0 2269.37  101.99
  -1   1   0 2425.36  102.29
  -1   1   0 2406.56  102.09
   1   1   0 2271.67  102.39
  -1   1   0 2253.67  101.99
  -1   1   0 2328.37  102.09
  -1   1   0 2203.28  102.09
  -1   1   0 2298.57  102.49
   1   1   0 2414.56  102.29
   1   1   0 2459.35  102.19
   2  -1   0 2609.44  116.99
   2  -1   0 2586.14  117.29
  -2  -1   0 2855.61  117.49
  -2  -1   0 2841.72  117.39
  -2  -1   0 2788.02  117.29
   2  -1   0 2537.85  117.19
   2  -1   0 2755.22  117.39
   2  -1   0 2960.10  117.49
   2  -1   0 2807.12  117.39
   2  -1   0 2357.96  117.59
   2  -1   0 2764.92  117.39
   2  -1   0 2523.65  117.29
  -2  -1   0 2601.54  117.39
  -2  -1   0 2812.42  117.29
   2  -1   0 2712.93  117.09
  -2  -1   0 2827.12  117.39
  -2  -1   0 2673.03  117.49
   2  -1   0 2671.13  117.59
  -2  -1   0 2824.72  117.29
  -2  -1   0 2983.00  117.89
  -2  -1   0 2668.63  117.09
   2   1   0 2820.72  117.39
  -2   1   0 2711.03  117.29
  -2   1   0 2626.74  117.29
  -2   1   0 2769.82  117.19
   2   1   0 2670.43  117.29
  -2   1   0 2887.51  117.49
  -2   1   0 2718.43  117.39
   2   1   0 2758.82  117.29
  -2   1   0 2661.13  117.79
  -2   1   0 2636.24  117.29
  -2   1   0 2512.65  117.29
   2   1   0 2774.22  117.49
   2   1   0 2608.74  116.99
  -2   1   0 2774.42  117.09
   2   1   0 2778.52  117.19
  -2   1   0 2601.54  117.49
   2   1   0 2821.62  117.39
  -2   1   0 2531.55  117.29
   2   1   0 2609.24  117.59
   2   1   0 2560.84  117.39
   2   1   0 2633.14  117.49
   3  -1   0    1.10    1.40
  -3  -1   0    3.10    1.40
   3  -1   0   -1.10    1.50
   3  -1   0   -0.10    1.70
  -3  -1   0    1.20    1.70
  -3  -1   0   -0.70    1.40
   3  -1   0   -0.40    1.50
  -3  -1   0    4.60    2.10
  -3  -1   0    2.70    1.30
   3  -1   0    0.20    0.90
   3  -1   0    1.60    1.00
   3  -1   0    0.70    1.60
  -3  -1   0   -1.00    1.40
  -3   1   0    2.40    2.20
   3   1   0    1.10    1.50
   3   1   0   -1.50    1.30
   3   1   0   -0.80    1.00
  -3   1   0   -2.10    1.40
  -3   1   0    1.60    1.60
   3   1   0    1.70    1.60
   3   1   0    0.10    1.50
  -3   1   0    1.80    1.60
   3   1   0    2.80    1.60
  -3   1   0    0.60    0.90
   3   1   0    1.70    1.50
  -3   1   0   -0.50    1.20
   4  -1   0  422.56   19.70
   4  -1   0  405.26   19.50
   4  -1   0  398.56   19.40
   4  -1   0  390.06   19.80
  -4  -1   0  407.56   19.10
  -4  -1   0  438.86   19.70
   4  -1   0  426.06   19.60
  -4  -1   0  428.66   19.20
  -4  -1   0  415.46   20.50
  -4  -1   0  412.56   19.70
  -4   1   0  438.46   19.70
   4   1   0  397.16   19.80
   4   1   0  410.36   19.50
  -4   1   0  452.55   19.80
  -4   1   0  396.26   19.00
  -4   1   0  426.26   19.40
   4   1   0  376.86   19.40
   4   1   0  415.66   19.70
   4   1   0  424.36   19.50
  -4   1   0  420.56   19.60
  -4   1   0  430.56   20.60
  -5  -1   0  416.06   18.80
  -5  -1   0  382.16   18.90
  -5  -1   0  376.66   19.90
   5  -1   0  394.06   19.00
  -5  -1   0  378.96   18.30
   5  -1   0  365.56   19.20
  -5  -1   0  392.36   18.30
   5  -1   0  388.36   18.90
   5  -1   0  399.26   18.90
   5  -1   0  369.16   18.60
  -5  -1   0  386.86   19.10
   5   1   0  396.16   19.10
   5   1   0  390.96   18.90
  -5   1   0  388.76   19.00
   5   1   0  368.66   19.20
   5   1   0  382.96   17.60
   5   1   0  412.66   18.90
  -5   1   0  400.46   19.10
  -5   1   0  347.87   19.70
   5   1   0  370.26   18.70
  -5   1   0  423.36   19.10
  -5   1   0  393.46   18.60
  -6  -1   0   23.60    4.30
   6  -1   0   27.90    4.90
   6  -1   0   38.20    4.90
   6  -1   0   29.70    4.60
  -6  -1   0   39.70    4.90
  -6  -1   0   34.60    5.70
  -6  -1   0   36.60    4.00
  -6  -1   0   33.20    4.00
   6  -1   0   22.10    4.20
   6  -1   0   23.00    3.90
  -6  -1   0   34.10    4.80
   6   1   0   21.00    4.20
   6   1   0   31.80    4.60
  -6   1   0   34.80    4.60
  -6   1   0   29.90    4.60
  -6   1   0   26.90    4.30
   6   1   0   35.00    4.70
  -6   1   0   30.80    5.60
  -6   1   0   35.40    4.30
   6   1   0   25.90    4.00
   6   1   0   37.70    5.10
   7  -1   0   33.00    5.20
   7  -1   0   41.00    5.60
   7  -1   0   37.00    5.20
  -7  -1   0   32.80    5.20
  -7  -1   0   28.00    6.10
   7  -1   0   33.50    5.50
  -7  -1   0   45.40    5.50
   7   1   0   40.20    5.50
  -7   1   0   43.70    5.60
  -7   1   0   41.10    5.50
   7   1   0   32.00    5.10
  -7   1   0   42.10    5.70
   7   1   0   32.70    5.20
   7   1   0   27.70    5.20
   0  -2   0  208.78    9.20
   0  -2   0  203.98    9.30
   0  -2   0  197.78    9.20
   0  -2   0  213.78    9.20
   0  -2   0  205.28    9.00
   0  -2   0  202.98    9.00
   0  -2   0  192.28    9.00
   0  -2   0  205.28    9.10
   0  -2   0  197.08    8.90
   0  -2   0  212.88    9.10
   0  -2   0  204.38    9.00
   0   2   0  200.08    9.00
   0   2   0  209.88    9.30
   0   2   0  212.78    9.30
   0   2   0  200.68    9.00
   0   2   0  201.78    9.10
   0   2   0  207.58    9.10
   0   2   0  220.78    9.20
   0   2   0  196.38    9.00
   0   2   0  192.98    9.20
   0   2   0  198.68    9.00
   0   2   0  193.18    8.90
  -1  -2   0  101.39    5.10
  -1  -2   0  108.19    5.10
   1  -2   0  102.09    5.00
   1  -2   0   97.49    4.90
  -1  -2   0  105.89    5.10
  -1  -2   0   97.19    5.10
   1  -2   0   98.69    4.70
   1  -2   0   98.89    5.00
  -1  -2   0  101.99    4.90
   1  -2   0   99.69    4.90
  -1  -2   0  106.29    4.80
  -1  -2   0  102.99    4.90
  -1  -2   0  102.69    4.90
   1  -2   0   96.39    5.10
   1  -2   0   99.99    4.90
  -1  -2   0  104.39    5.10
   1  -2   0  103.19    5.10
  -1  -2   0  110.99    4.90
   1  -2   0   99.49    5.00
  -1  -2   0  112.19    4.80
  -1   2   0   99.69    5.00
  -1   2   0   98.09    4.70
   1   2   0  102.89    4.80
   1   2   0   97.09    5.10
   1   2   0   99.89    4.90
  -1   2   0   98.19    5.00
  -1   2   0   97.39    5.00
   1   2   0  106.69    4.90
   1   2   0   96.99    5.00
   1   2   0  105.19    5.10
  -1   2   0  102.49    5.00
  -1   2   0   96.49    5.10
  -1   2   0   94.89    5.00
  -1   2   0   90.09    4.70
  -1   2   0   97.49    4.90
   1   2   0  100.09    4.90
   1   2   0  106.99    5.10
   1   2   0  104.29    5.00
   1   2   0   97.09    5.10
   1   2   0  102.09    4.90
  -1   2   0   92.49    5.10
  -2  -2   0   75.19    4.10
   2  -2   0   70.49    3.90
   2  -2   0   75.49    4.30
   2  -2   0   76.99    4.40
   2  -2   0   61.99    4.40
   2  -2   0   65.79    4.20
  -2  -2   0   70.69    4.40
  -2  -2   0   75.39    4.10
   2  -2   0   73.09    3.70
  -2  -2   0   78.09    4.20
   2  -2   0   77.39    4.20
  -2  -2   0   76.79    4.50
   2  -2   0   67.29    4.10
  -2  -2   0   74.99    4.70
  -2  -2   0   75.69    4.10
   2  -2   0   74.69    3.60
  -2  -2   0   74.79    4.40
   2  -2   0   76.69    4.20
   2  -2   0   77.09    4.30
  -2  -2   0   77.89    4.20
  -2   2   0   74.69    4.40
   2   2   0   72.49    4.40
  -2   2   0   74.19    4.10
   2   2   0   75.79    4.20
   2   2   0   72.49    4.10
  -2   2   0   66.89    4.40
   2   2   0   74.39    4.50
  -2   2   0   72.99    4.80
   2   2   0   72.79    4.10
  -2   2   0   69.09    3.60
  -2   2   0   77.29    4.40
  -2   2   0   68.99    4.20
  -2   2   0   67.79    4.10
   2   2   0   79.29    4.10
   2   2   0   79.89    4.50
   2   2   0   69.09    4.50
  -2   2   0   71.59    4.20
  -2   2   0   71.59    4.10
  -2   2   0   73.59    4.10
   2   2   0   70.69    4.30
   2   2   0   76.39    4.20
  -2   2   0   79.29    4.50
  -3  -2   0  104.19    6.40
  -3  -2   0  102.79    5.60
   3  -2   0   92.39    6.10
   3  -2   0   93.49    5.10
   3  -2   0  101.89    5.70
   3  -2   0  102.49    5.90
  -3  -2   0  101.89    5.70
   3  -2   0   97.59    5.80
  -3  -2   0  101.79    5.30
   3  -2   0  101.29    5.80
  -3  -2   0  107.99    5.60
  -3  -2   0  112.79    6.10
   3   2   0  113.39    5.80
   3   2   0   98.79    6.00
   3   2   0   98.39    5.10
   3   2   0   84.99    5.70
  -3   2   0  101.29    5.40
  -3   2   0  114.29    6.10
  -3   2   0  104.29    6.70
   3   2   0   99.79    6.00
  -3   2   0   98.49    5.70
   3   2   0  108.79    5.80
   3   2   0  102.99    5.70
  -3   2   0  109.29    6.10
  -3   2   0  106.09    5.90
   4  -2   0   57.39    4.50
   4  -2   0   54.19    4.40
  -4  -2   0   44.30    3.90
   4  -2   0   53.29    4.90
  -4  -2   0   58.49    4.40
   4  -2   0   55.69    4.20
  -4  -2   0   53.99    4.80
  -4  -2   0   49.50    3.90
   4  -2   0   52.79    4.40
  -4  -2   0   46.40    5.00
   4   2   0   51.49    4.40
  -4   2   0   46.50    3.50
  -4   2   0   57.49    4.80
  -4   2   0   46.20    5.10
   4   2   0   52.59    4.50
  -4   2   0   50.09    4.30
   4   2   0   47.00    4.30
   4   2   0   46.20    4.10
  -4   2   0   53.19    4.60
   4   2   0   50.59    4.50
  -4   2   0   60.39    4.80
   5  -2   0    7.60    2.90
   5  -2   0    2.20    2.40
  -5  -2   0    6.90    2.50
   5  -2   0   10.00    3.00
  -5  -2   0    4.60    2.70
   5  -2   0    4.70    2.60
  -5  -2   0    5.90    2.10
  -5  -2   0    4.70    2.10
  -5  -2   0    4.20    3.20
   5  -2   0    4.90    2.30
  -5  -2   0    7.90    2.70
  -5   2   0    4.70    3.40
   5   2   0    7.30    2.70
  -5   2   0    8.00    2.70
  -5   2   0    1.70    2.20
   5   2   0    5.20    2.50
   5   2   0    7.00    2.50
  -5   2   0   10.60    2.90
   5   2   0   10.90    2.90
  -5   2   0    7.60    2.70
   5   2   0    4.80    2.70
  -6  -2   0   21.40    3.90
   6  -2   0   18.10    4.20
   6  -2   0   27.00    4.40
  -6  -2   0   27.10    5.10
  -6  -2   0   25.10    3.60
  -6  -2   0   25.30    4.20
  -6  -2   0   22.10    4.10
   6  -2   0   15.90    3.80
   6  -2   0   21.50    4.20
  -6  -2   0   21.40    4.70
   6  -2   0   14.70    3.50
  -6   2   0   27.40    4.10
  -6   2   0   32.20    4.80
   6   2   0   27.10    4.20
   6   2   0   23.90    4.20
  -6   2   0   29.10    4.50
   6   2   0   22.30    4.00
  -6   2   0   27.50    4.10
   6   2   0   25.90    3.90
  -6   2   0   21.80    4.80
   6   2   0   26.60    4.50
  -7  -2   0   16.20    4.20
  -7  -2   0   13.80    4.90
   7  -2   0    8.50    3.50
  -7  -2   0   19.70    4.10
   7  -2   0   13.10    4.10
   7  -2   0   11.00    4.30
   7  -2   0    6.90    3.50
   7   2   0   10.20    3.80
  -7   2   0   12.50    4.20
   7   2   0   13.00    4.10
  -7   2   0   17.20    3.90
   7   2   0   15.20    4.10
  -7   2   0   13.30    4.00
   7   2   0    6.70    3.60
   0  -3   0    3.00    1.30
   0  -3   0    2.00    0.90
   0  -3   0    1.30    1.10
   0  -3   0    1.50    0.80
   0  -3   0    2.30    0.90
   0  -3   0    1.70    0.60
   0  -3   0    2.20    0.80
   0  -3   0    1.90    0.90
   0  -3   0    0.30    1.00
   0  -3   0    1.50    0.90
   0  -3   0    0.90    1.00
   0  -3   0    1.40    1.30
   0  -3   0    0.50    0.90
   0   3   0    0.40    0.80
   0   3   0    1.60    1.10
   0   3   0    0.30    0.80
   0   3   0    3.40    1.30
   0   3   0    2.00    0.80
   0   3   0   -0.10    0.80
   0   3   0    2.50    0.80
   0   3   0    1.70    1.00
   0   3   0   -0.20    0.90
   0   3   0   -0.30    1.30
   0   3   0   -0.70    1.30
   1  -3   0 3137.19  142.19
  -1  -3   0 3518.75  142.39
   1  -3   0 3214.28  142.19
   1  -3   0 3195.58  142.19
   1  -3   0 3008.60  142.19
   1  -3   0 3107.99  142.29
  -1  -3   0 3369.76  142.29
  -1  -3   0 3415.46  142.49
   1  -3   0 3317.67  142.69
   1  -3   0 3196.88  142.19
   1  -3   0 3016.90  142.19
  -1  -3   0 3337.57  142.89
   1  -3   0 3186.08  142.29
  -1  -3   0 3394.16  142.39
  -1  -3   0 3595.64  142.79
  -1  -3   0 3535.55  142.49
  -1  -3   0 3330.07  142.39
  -1  -3   0 3318.77  142.39
   1  -3   0 3230.78  142.59
  -1  -3   0 3409.36  142.29
   1  -3   0 3274.57  142.79
  -1  -3   0 3445.06  142.39
   1   3   0 3369.56  142.79
  -1   3   0 3174.08  142.19
  -1   3   0 2869.71  142.39
   1   3   0 3598.74  142.49
  -1   3   0 3176.58  142.19
   1   3   0 3486.15  142.29
   1   3   0 3295.77  142.69
  -1   3   0 3169.78  142.29
   1   3   0 3554.34  142.39
   1   3   0 3454.25  142.89
   1   3   0 3511.65  142.29
  -1   3   0 3349.76  142.19
  -1   3   0 3122.99  142.29
   1   3   0 3437.26  142.29
  -1   3   0 3042.10  142.19
   1   3   0 3293.07  142.39
   1   3   0 3336.97  142.59
  -1   3   0 2914.51  142.19
  -1   3   0 2960.20  141.99
  -1   3   0 3212.68  142.19
   1   3   0 3429.76  142.29
  -2  -3   0 3311.07  140.59
  -2  -3   0 3404.96  140.29
   2  -3   0 3196.08  140.29
   2  -3   0 2988.00  140.49
   2  -3   0 3133.49  140.19
  -2  -3   0 3381.86  139.89
   2  -3   0 3151.38  140.49
  -2  -3   0 3485.05  140.09
  -2  -3   0 3449.75  140.49
   2  -3   0 3148.39  139.89
   2  -3   0 3111.79  140.29
  -2  -3   0 3437.96  140.09
  -2  -3   0 3330.07  140.19
  -2  -3   0 3307.47  140.19
   2  -3   0 3252.07  140.49
  -2  -3   0 3050.39  140.39
   2  -3   0 3284.27  140.39
   2   3   0 3218.38  140.49
  -2   3   0 2941.81  140.09
  -2   3   0 3393.96  140.39
  -2   3   0 3281.57  140.29
  -2   3   0 3107.99  140.59
   2   3   0 2999.40  139.99
  -2   3   0 3114.99  139.79
   2   3   0 3388.56  140.19
  -2   3   0 3217.78  140.29
   2   3   0 3231.78  140.19
   2   3   0 3298.87  140.09
  -2   3   0 3338.07  140.39
  -2   3   0 2889.41  139.99
   2   3   0 3164.48  140.19
  -2   3   0 3138.99  140.19
   2   3   0 3147.79  140.39
   2   3   0 3395.16  140.59
  -2   3   0 3169.78  140.29
   2   3   0 3447.86  140.19
   2   3   0 3381.76  140.49
  -3  -3   0   43.70    3.40
   3  -3   0   42.80    3.60
   3  -3   0   42.20    2.70
  -3  -3   0   42.10    3.40
  -3  -3   0   45.90    3.80
   3  -3   0   47.10    4.00
   3  -3   0   46.70    3.60
   3  -3   0   45.70    3.80
  -3  -3   0   46.40    4.30
  -3  -3   0   47.90    3.50
   3   3   0   45.70    3.40
   3   3   0   42.90    3.70
  -3   3   0   46.10    4.60
  -3   3   0   50.29    4.10
   3   3   0   46.90    3.40
  -3   3   0   40.30    3.70
   3   3   0   46.00    3.50
   3   3   0   44.90    3.80
  -3   3   0   37.50    3.30
   3   3   0   44.90    3.80
  -3   3   0   41.50    3.30
  -3   3   0   43.20    3.70
  -4  -3   0  873.71   37.20
   4  -3   0  831.82   37.30
   4  -3   0  801.52   37.30
  -4  -3   0  849.61   38.10
   4  -3   0  830.12   37.60
  -4  -3   0  829.92   37.00
   4  -3   0  818.32   37.20
  -4  -3   0  820.52   37.50
  -4   3   0  832.52   37.30
  -4   3   0  824.92   37.20
  -4   3   0  804.02   36.70
  -4   3   0  821.32   37.40
   4   3   0  831.62   37.10
   4   3   0  790.32   37.30
   4   3   0  828.52   37.60
  -4   3   0  832.92   37.10
   4   3   0  825.92   37.10
   4   3   0  839.62   37.50
  -4   3   0  796.12   38.10
   5  -3   0  714.63   33.50
  -5  -3   0  736.33   33.10
  -5  -3   0  759.32   34.60
  -5  -3   0  719.33   33.10
   5  -3   0  722.43   33.90
   5  -3   0  763.92   33.60
   5  -3   0  713.93   33.60
  -5  -3   0  726.03   33.80
  -5  -3   0  767.02   33.50
  -5  -3   0  734.13   33.80
   5   3   0  754.52   33.40
  -5   3   0  701.83   34.50
  -5   3   0  720.53   33.30
   5   3   0  731.23   33.30
   5   3   0  735.33   34.00
  -5   3   0  728.23   33.70
   5   3   0  730.83   33.70
  -5   3   0  756.92   33.60
  -5   3   0  678.63   33.20
   5   3   0  648.14   33.30
   6  -3   0   34.80    5.10
  -6  -3   0   28.30    3.90
  -6  -3   0   41.90    4.70
   6  -3   0   35.20    4.80
  -6  -3   0   34.20    5.60
  -6  -3   0   40.00    4.90
  -6  -3   0   34.60    5.30
   6  -3   0   29.30    4.50
  -6  -3   0   37.60    5.00
   6  -3   0   34.30    4.90
   6   3   0   37.90    4.70
  -6   3   0   41.00    5.10
  -6   3   0   35.20    4.60
  -6   3   0   37.70    4.80
   6   3   0   37.00    5.30
   6   3   0   38.00    5.00
  -6   3   0   29.10    5.40
   6   3   0   34.60    4.60
   6   3   0   36.00    4.60
  -6   3   0   29.70    4.90
  -7  -3   0   79.79   10.40
   7  -3   0   80.69    7.70
   7  -3   0   76.89    7.60
   7  -3   0   81.39    8.40
  -7  -3   0   82.99    9.00
  -7  -3   0   71.69    7.40
  -7  -3   0   78.89    8.30
   7  -3   0   66.59    7.20
  -7   3   0   81.29    7.80
   7   3   0   73.69    7.50
  -7   3   0   76.09    7.80
   7   3   0   94.49    8.80
  -7   3   0   74.49    7.10
  -7   3   0   73.39    7.00
   7   3   0   63.29    6.90
   7   3   0   77.99    7.20
   7   3   0   71.49    7.30
   0  -4   0 9676.73  405.26
   0  -4   0 8969.90  404.96
   0  -4   0 9256.67  406.66
   0  -4   0 9732.03  405.96
   0  -4   0 9457.05  404.56
   0  -4   0 9352.46  404.36
   0  -4   0 9591.84  405.76
   0  -4   0 9251.67  404.66
   0  -4   0 9437.76  405.26
   0  -4   0 8744.03  405.16
   0  -4   0 9275.07  407.26
   0  -4   0 9465.45  405.36
   0  -4   0 9580.34  405.56
   0   4   0 8982.10  404.96
   0   4   0 9701.73  405.96
   0   4   0 9999.00  407.26
   0   4   0 9892.91  405.26
   0   4   0 8187.48  405.16
   0   4   0 9550.84  405.16
   0   4   0 9336.17  404.76
   0   4   0 9043.60  404.86
   0   4   0 9453.95  405.66
   0   4   0 9171.28  405.86
   0   4   0 9388.86  405.56
   1  -4   0  265.57   12.80
  -1  -4   0  301.67   12.90
  -1  -4   0  297.47   12.60
   1  -4   0  267.07   12.80
   1  -4   0  266.27   13.00
   1  -4   0  259.67   12.40
   1  -4   0  278.17   12.70
   1  -4   0  281.47   12.80
  -1  -4   0  282.27   13.10
   1  -4   0  267.97   12.80
  -1  -4   0  282.07   12.60
  -1  -4   0  302.97   13.20
  -1  -4   0  300.87   12.80
  -1  -4   0  310.27   12.90
  -1  -4   0  285.37   12.70
   1  -4   0  261.57   12.80
   1  -4   0  261.97   13.00
   1  -4   0  292.67   12.90
   1  -4   0  282.37   12.90
  -1   4   0  280.57   12.90
   1   4   0  289.37   13.10
   1   4   0  311.47   13.00
   1   4   0  304.27   12.80
  -1   4   0  263.27   12.80
  -1   4   0  275.77   12.80
   1   4   0  308.37   12.70
  -1   4   0  281.07   12.90
  -1   4   0  250.17   12.90
   1   4   0  278.17   12.70
  -1   4   0  285.87   13.10
   1   4   0  274.87   12.70
  -1   4   0  254.67   12.80
  -1   4   0  243.28   12.90
   1   4   0  284.77   12.80
  -1   4   0  280.37   12.70
   1   4   0  292.97   12.90
  -1   4   0  280.47   12.40
   1   4   0  292.07   12.90
   1   4   0  299.17   13.00
  -1   4   0  283.77   12.80
  -1   4   0  291.97   12.90
   1   4   0  285.27   13.10
   2  -4   0  536.85   24.30
   2  -4   0  534.15   23.90
   2  -4   0  515.45   24.30
  -2  -4   0  576.24   24.40
  -2  -4   0  590.14   24.10
   2  -4   0  475.05   24.50
  -2  -4   0  554.74   24.20
  -2  -4   0  551.04   24.20
  -2  -4   0  584.34   24.60
   2  -4   0  517.95   24.40
  -2  -4   0  589.34   24.10
  -2  -4   0  579.84   24.70
   2  -4   0  558.04   24.50
  -2  -4   0  572.14   24.50
   2  -4   0  519.25   24.00
  -2  -4   0  587.94   24.10
  -2   4   0  506.95   24.30
  -2   4   0  481.25   23.90
   2   4   0  551.74   24.20
  -2   4   0  525.85   24.70
   2   4   0  535.65   24.60
  -2   4   0  514.65   23.90
  -2   4   0  506.05   24.20
  -2   4   0  546.85   24.50
  -2   4   0  512.55   24.60
  -2   4   0  537.25   24.50
   2   4   0  515.45   24.60
   2   4   0  551.24   24.20
  -2   4   0  556.74   24.50
   2   4   0  587.14   24.30
  -2   4   0  546.55   24.50
   2   4   0  575.14   24.30
   2   4   0  572.84   24.60
   2   4   0  527.15   24.00
  -3  -4   0 1653.03   71.49
   3  -4   0 1609.74   70.29
   3  -4   0 1510.55   70.69
  -3  -4   0 1666.23   70.89
   3  -4   0 1615.64   71.29
   3  -4   0 1500.25   70.89
   3  -4   0 1700.23   71.19
  -3  -4   0 1714.53   71.29
  -3  -4   0 1632.74   70.99
  -3  -4   0 1711.53   70.99
   3  -4   0 1610.44   70.99
  -3  -4   0 1683.73   70.69
   3  -4   0 1471.05   70.29
  -3   4   0 1590.14   71.59
   3   4   0 1609.24   71.29
   3   4   0 1691.63   71.39
  -3   4   0 1613.24   70.99
   3   4   0 1698.83   70.89
   3   4   0 1714.93   70.89
  -3   4   0 1469.15   70.19
   3   4   0 1667.63   70.89
  -3   4   0 1636.24   71.19
  -3   4   0 1643.44   71.09
   3   4   0 1531.65   71.09
  -3   4   0 1525.15   70.59
  -3   4   0 1621.94   70.89
  -4  -4   0  435.46   20.00
   4  -4   0  406.66   20.20
  -4  -4   0  451.75   20.50
  -4  -4   0  453.65   20.10
   4  -4   0  412.76   20.50
  -4  -4   0  421.66   20.80
  -4  -4   0  444.66   20.30
   4  -4   0  438.16   20.20
   4  -4   0  433.96   20.20
  -4  -4   0  441.96   19.80
  -4   4   0  418.96   20.30
  -4   4   0  437.76   20.30
  -4   4   0  387.86   20.80
  -4   4   0  427.26   20.20
   4   4   0  413.06   20.50
   4   4   0  427.06   19.90
  -4   4   0  418.86   19.80
   4   4   0  416.96   20.40
   4   4   0  393.86   20.10
   4   4   0  429.36   19.90
  -4   4   0  441.76   19.80
  -5  -4   0    7.20    2.30
  -5  -4   0    6.40    3.10
   5  -4   0   12.60    3.00
  -5  -4   0    9.70    2.90
   5  -4   0   14.30    3.10
   5  -4   0   10.70    3.10
  -5  -4   0    6.00    2.30
   5  -4   0    7.60    2.90
  -5  -4   0   13.90    3.70
  -5  -4   0    7.90    2.60
   5   4   0    5.90    2.60
  -5   4   0    8.90    2.40
   5   4   0   12.20    3.10
   5   4   0   10.80    3.00
  -5   4   0    5.40    2.90
  -5   4   0   10.80    3.70
   5   4   0    9.60    2.70
  -5   4   0    9.70    3.10
  -5   4   0   10.20    3.10
   5   4   0    9.60    2.60
  -5   4   0    7.60    2.70
   6  -4   0  364.66   19.30
  -6  -4   0  375.56   19.60
   6  -4   0  380.16   19.30
  -6  -4   0  376.46   18.80
  -6  -4   0  384.56   18.60
   6  -4   0  386.76   19.30
   6  -4   0  373.26   19.80
  -6  -4   0  384.16   19.70
   6   4   0  371.26   18.90
   6   4   0  374.16   19.20
  -6   4   0  417.76   19.50
  -6   4   0  362.76   18.90
   6   4   0  375.36   19.40
  -6   4   0  376.86   19.50
  -6   4   0  372.06   20.60
   6   4   0  395.56   19.90
   6   4   0  384.86   19.00
  -6   4   0  378.06   19.40
  -7  -4   0  115.59    9.40
   7  -4   0  133.29    9.80
  -7  -4   0  110.79    9.60
  -7  -4   0  112.39    8.20
   7  -4   0  131.59    9.40
   7  -4   0  121.19    9.60
   7  -4   0  122.49    9.30
  -7   4   0  130.69    9.70
   7   4   0  135.89    9.50
   7   4   0  118.99    9.00
   7   4   0  122.79    8.90
  -7   4   0  120.09    9.50
  -7   4   0  125.19    9.60
   7   4   0  115.69    8.70
  -7   4   0  120.89    8.70
   7   4   0  126.19    9.60
   0  -5   0    0.60    1.20
   0  -5   0    3.20    1.20
   0  -5   0    0.50    1.20
   0  -5   0    0.90    1.70
   0  -5   0    0.80    0.70
   0  -5   0    0.70    1.00
   0  -5   0    1.90    1.10
   0  -5   0    1.10    0.90
   0  -5   0    0.20    1.40
   0  -5   0   -0.40    1.20
   0  -5   0    0.60    1.00
   0  -5   0    4.90    1.50
   0   5   0    2.60    1.10
   0   5   0    0.90    1.10
   0   5   0    1.60    1.30
   0   5   0    0.60    1.60
   0   5   0    1.20    1.10
   0   5   0    2.40    1.40
   0   5   0    1.50    1.50
   0   5   0    0.80    1.30
   0   5   0    2.80    1.30
   0   5   0    0.20    1.10
   0   5   0    1.70    1.20
   0   5   0   -1.30    1.50
   1  -5   0   10.70    1.10
   1  -5   0    7.20    1.50
   1  -5   0    7.30    1.30
  -1  -5   0   12.50    1.60
   1  -5   0    7.00    1.50
  -1  -5   0   11.70    1.50
   1  -5   0    7.50    1.30
   1  -5   0    7.70    1.50
  -1  -5   0    8.00    1.90
  -1  -5   0    9.80    1.50
  -1  -5   0    9.20    1.50
  -1  -5   0   10.40    1.70
  -1  -5   0    8.50    1.20
   1  -5   0    9.90    1.90
  -1  -5   0   10.40    1.30
   1  -5   0    7.50    1.40
   1  -5   0    8.80    1.50
  -1  -5   0   11.90    1.90
   1  -5   0    7.90    1.60
  -1   5   0    7.50    1.70
  -1   5   0   12.00    1.90
  -1   5   0    7.90    1.40
  -1   5   0    9.20    1.50
  -1   5   0    8.50    1.50
  -1   5   0   11.10    1.00
   1   5   0    9.50    1.90
   1   5   0    9.50    1.50
   1   5   0    9.20    1.50
   1   5   0    7.80    1.40
   1   5   0   10.50    1.70
  -1   5   0    7.80    1.70
   1   5   0    6.80    1.30
  -1   5   0    5.80    1.60
  -1   5   0    7.40    1.50
   1   5   0    7.50    1.50
   1   5   0    9.40    1.90
   1   5   0   10.70    1.70
  -1   5   0    6.70    1.40
   1   5   0   10.50    1.50
   1   5   0    7.80    1.90
  -1   5   0    7.70    1.70
  -1   5   0    8.30    1.50
   1   5   0   10.60    1.80
   2  -5   0  133.59    7.70
  -2  -5   0  157.08    7.70
   2  -5   0  151.28    7.60
  -2  -5   0  154.88    7.70
  -2  -5   0  148.29    7.30
  -2  -5   0  166.38    7.40
   2  -5   0  132.49    7.70
  -2  -5   0  154.18    7.80
  -2  -5   0  138.89    7.80
   2  -5   0  152.48    7.60
   2  -5   0  145.79    7.00
  -2  -5   0  146.19    7.40
  -2  -5   0  158.08    7.20
   2  -5   0  147.79    7.20
  -2  -5   0  158.88    7.30
   2  -5   0  153.18    7.70
   2   5   0  161.48    7.50
  -2   5   0  146.39    7.90
   2   5   0  149.39    7.40
  -2   5   0  125.79    6.90
  -2   5   0  149.09    7.90
   2   5   0  155.48    8.00
  -2   5   0  133.09    7.10
  -2   5   0  150.18    7.80
  -2   5   0  154.58    7.80
   2   5   0  143.99    7.40
   2   5   0  158.68    7.40
  -2   5   0  153.38    7.90
   2   5   0  159.68    7.80
   2   5   0  159.08    8.00
   2   5   0  158.98    7.50
   3  -5   0    2.50    1.90
  -3  -5   0    0.80    1.00
  -3  -5   0    1.40    1.40
   3  -5   0    3.10    1.00
  -3  -5   0    4.90    1.40
  -3  -5   0   -1.50    1.80
  -3  -5   0    4.50    1.90
   3  -5   0    7.30    2.00
   3  -5   0    3.10    1.20
  -3  -5   0    4.40    1.70
  -3  -5   0    1.40    2.10
   3  -5   0    2.70    1.20
  -3  -5   0    4.90    1.60
   3  -5   0    4.10    1.90
   3  -5   0    2.90    1.70
   3   5   0    3.80    1.50
  -3   5   0    1.00    2.20
   3   5   0    1.50    1.50
   3   5   0    2.50    1.80
  -3   5   0    2.30    2.20
  -3   5   0    2.90    1.90
  -3   5   0    2.20    1.10
  -3   5   0    5.30    1.50
  -3   5   0    0.20    1.70
   3   5   0    6.10    1.70
   3   5   0    1.20    1.10
  -3   5   0    3.00    1.70
   3   5   0    3.80    1.80
   4  -5   0    7.90    2.30
  -4  -5   0    5.60    2.70
  -4  -5   0    4.50    2.00
   4  -5   0    9.50    2.30
  -4  -5   0    6.70    2.50
   4  -5   0    6.50    2.40
  -4  -5   0    4.80    2.40
  -4  -5   0   11.00    2.10
   4  -5   0    7.00    1.80
   4  -5   0   11.50    2.50
  -4  -5   0   10.70    2.20
   4  -5   0    8.80    2.50
   4  -5   0    8.20    1.50
  -4   5   0    9.00    3.10
   4   5   0   10.10    2.60
  -4   5   0    6.70    2.40
   4   5   0    8.90    2.20
   4   5   0    9.80    2.30
   4   5   0   10.20    2.50
  -4   5   0    8.40    2.00
   4   5   0    4.10    2.20
  -4   5   0    6.40    2.60
  -4   5   0    4.60    2.00
  -4   5   0    5.50    2.40
  -5  -5   0   10.60    3.10
   5  -5   0   11.60    3.10
   5  -5   0   13.10    3.30
  -5  -5   0   10.30    3.40
  -5  -5   0   14.60    2.70
   5  -5   0   10.00    3.10
  -5  -5   0   12.40    2.80
   5  -5   0   17.70    3.30
   5  -5   0    8.50    2.40
  -5  -5   0   12.10    2.80
  -5  -5   0    9.20    3.50
   5   5   0    7.80    2.50
  -5   5   0    6.50    3.50
  -5   5   0   12.50    2.60
  -5   5   0   13.60    3.50
  -5   5   0   14.80    3.30
  -5   5   0   10.50    2.50
   5   5   0   13.70    3.20
   5   5   0   12.80    2.90
   5   5   0   12.50    3.30
   5   5   0   16.10    3.20
  -5   5   0    8.90    3.00
  -6  -5   0   11.00    3.90
   6  -5   0    9.80    3.60
   6  -5   0    9.00    3.50
  -6  -5   0    7.80    3.60
  -6  -5   0   17.20    3.20
  -6  -5   0   11.30    2.90
   6  -5   0    9.20    3.40
   6  -5   0   10.80    3.40
   6   5   0   10.80    3.60
  -6   5   0    9.00    3.00
  -6   5   0   15.30    4.00
   6   5   0   13.20    3.30
   6   5   0    6.80    3.00
   6   5   0    7.30    3.20
  -6   5   0    3.40    3.80
   6   5   0   15.90    4.00
  -6   5   0    5.20    3.30
  -6   5   0   13.60    3.90
   7  -5   0    3.00    3.50
  -7  -5   0   -0.70    2.50
  -7  -5   0    4.10    3.50
   7  -5   0   -0.20    3.20
  -7  -5   0   -2.80    3.30
   7  -5   0   -1.80    3.20
   7   5   0    0.90    2.80
  -7   5   0    3.90    3.50
   7   5   0    2.70    2.90
  -7   5   0    2.80    3.70
   7   5   0    6.50    3.80
  -7   5   0    1.10    3.30
   7   5   0    3.90    3.20
   7   5   0   -0.30    2.90
   0  -6   0 2103.19   99.59
   0  -6   0 2280.97   99.79
   0  -6   0 2315.87   99.69
   0  -6   0 2366.56   99.49
   0  -6   0 2202.18   99.59
   0  -6   0 2380.06   99.99
   0  -6   0 2276.87   99.79
   0  -6   0 2296.07  100.49
   0  -6   0 2319.97   99.89
   0  -6   0 2187.58   99.79
   0   6   0 2386.16  100.09
   0   6   0 2345.97   99.79
   0   6   0 2369.36  100.49
   0   6   0 2282.47   99.69
   0   6   0 2176.88   99.69
   0   6   0 2366.96  100.19
   0   6   0 2383.36   99.79
   0   6   0 2341.47  100.19
   0   6   0 2266.17   99.89
   0   6   0 2331.47  100.09
   1  -6   0  330.17   15.40
   1  -6   0  318.17   16.00
  -1  -6   0  368.66   16.10
   1  -6   0  341.47   15.50
  -1  -6   0  346.57   15.60
  -1  -6   0  365.66   15.40
   1  -6   0  315.17   15.20
  -1  -6   0  339.57   15.10
  -1  -6   0  356.26   15.70
   1  -6   0  305.97   15.20
  -1  -6   0  334.17   15.10
  -1  -6   0  346.17   15.70
   1  -6   0  322.77   15.80
  -1  -6   0  355.86   15.50
   1  -6   0  348.07   15.50
   1  -6   0  310.77   14.90
  -1   6   0  323.47   15.20
   1   6   0  327.97   15.40
  -1   6   0  329.87   15.90
   1   6   0  354.46   15.90
   1   6   0  331.37   15.40
   1   6   0  318.57   15.90
   1   6   0  348.27   15.70
  -1   6   0  325.27   15.40
  -1   6   0  329.77   15.40
  -1   6   0  314.57   14.90
  -1   6   0  343.37   15.50
   1   6   0  328.67   15.30
   1   6   0  374.66   15.10
  -1   6   0  351.76   15.70
   1   6   0  361.46   15.40
  -1   6   0  338.57   15.60
  -1   6   0  321.77   15.40
   1   6   0  359.26   15.70
  -2  -6   0  186.38    8.50
  -2  -6   0  170.38    8.70
  -2  -6   0  193.78    8.90
   2  -6   0  175.38    8.70
   2  -6   0  184.78    9.00
   2  -6   0  182.18    9.10
   2  -6   0  182.78    9.00
  -2  -6   0  189.28    8.50
   2  -6   0  165.78    9.00
  -2  -6   0  177.18    9.40
   2  -6   0  170.38    9.20
  -2  -6   0  197.98    9.10
   2  -6   0  167.78    8.20
   2  -6   0  167.98    9.20
   2   6   0  188.68    9.00
  -2   6   0  185.88    9.40
  -2   6   0  180.48    9.30
   2   6   0  178.48    8.80
  -2   6   0  175.48    9.10
  -2   6   0  166.28    9.10
   2   6   0  193.28    8.80
  -2   6   0  159.08    8.50
  -2   6   0  188.98    9.10
   2   6   0  183.88    9.50
  -2   6   0  157.28    8.10
   2   6   0  189.58    8.80
   2   6   0  210.38    9.10
   3  -6   0 1006.50   44.60
  -3  -6   0 1014.90   44.80
   3  -6   0  970.20   45.00
  -3  -6   0 1066.79   45.00
  -3  -6   0 1014.40   44.40
  -3  -6   0 1038.90   44.10
  -3  -6   0 1008.70   44.70
   3  -6   0  961.70   44.60
   3  -6   0 1011.80   44.00
  -3  -6   0  977.40   45.00
  -3  -6   0 1056.39   44.50
  -3  -6   0 1083.09   44.10
   3  -6   0  945.91   43.90
  -3  -6   0 1018.70   44.10
   3  -6   0 1029.20   44.80
   3  -6   0 1014.20   44.80
   3   6   0  973.80   45.00
  -3   6   0 1012.10   44.90
  -3   6   0  919.91   43.90
  -3   6   0  873.41   43.80
  -3   6   0  980.70   45.10
  -3   6   0 1038.50   44.90
   3   6   0 1032.20   44.40
   3   6   0 1025.60   44.40
  -3   6   0 1014.20   44.80
  -3   6   0  956.50   44.80
   3   6   0 1069.19   44.50
   3   6   0  980.30   44.10
   3   6   0  990.70   45.00
   4  -6   0  213.58   10.00
   4  -6   0  208.98   10.20
   4  -6   0  203.18   11.10
  -4  -6   0  212.98   11.60
  -4  -6   0  215.98   10.30
  -4  -6   0  204.68   11.20
   4  -6   0  208.78   11.00
  -4  -6   0  207.98   10.90
   4  -6   0  199.48   11.00
   4  -6   0  220.48   11.60
  -4  -6   0  212.58   10.90
  -4  -6   0  217.18   10.70
  -4   6   0  196.78   11.70
  -4   6   0  218.78   11.50
  -4   6   0  189.48   10.30
   4   6   0  195.88   11.30
  -4   6   0  204.48   10.90
   4   6   0  205.48   11.40
   4   6   0  219.68   11.40
  -4   6   0  196.18   11.20
  -4   6   0  201.98   11.20
   4   6   0  210.58   10.70
   4   6   0  222.38   10.80
  -5  -6   0   27.50    3.30
   5  -6   0   24.10    3.80
  -5  -6   0   28.90    3.70
   5  -6   0   23.80    3.90
  -5  -6   0   27.20    3.60
   5  -6   0   25.10    3.10
   5  -6   0   22.60    3.90
  -5  -6   0   33.00    4.30
  -5  -6   0   31.50    4.40
   5  -6   0   20.50    3.90
   5   6   0   22.80    3.80
  -5   6   0   25.50    3.20
   5   6   0   24.10    4.00
  -5   6   0   21.30    4.00
  -5   6   0   27.70    4.40
  -5   6   0   15.80    3.00
  -5   6   0   19.90    4.30
   5   6   0   24.20    3.60
  -5   6   0   25.50    4.10
   5   6   0   19.80    3.80
   5   6   0   21.10    3.50
   6  -6   0  191.68   11.30
   6  -6   0  189.88   11.70
   6  -6   0  181.78   11.20
   6  -6   0  185.88   11.20
  -6  -6   0  186.58   11.50
  -6  -6   0  171.78   10.50
  -6  -6   0  187.28   11.40
  -6   6   0  163.28   11.20
  -6   6   0  169.48   12.10
  -6   6   0  187.98   10.30
   6   6   0  177.18   11.40
  -6   6   0  174.98   11.40
  -6   6   0  194.78   11.50
   6   6   0  163.88   10.40
   6   6   0  171.28   11.10
   6   6   0  187.08   11.40
   6   6   0  185.88   10.60
   7  -6   0   44.30    6.40
  -7  -6   0   61.99    6.20
   7   6   0   61.59    7.00
  -7   6   0   56.39    7.10
  -7   6   0   61.29    7.20
   7   6   0   53.49    5.90
   7   6   0   47.70    6.10
   7   6   0   63.09    7.40
  -7   6   0   53.59    6.70
   0  -7   0   -0.40    1.20
   0  -7   0   -0.70    1.80
   0  -7   0    0.90    1.20
   0  -7   0    0.10    1.10
   0  -7   0    1.20    1.40
   0  -7   0    0.10    1.30
   0  -7   0    0.00    0.90
   0  -7   0   -0.10    0.80
   0  -7   0    0.80    1.30
   0   7   0    0.60    1.20
   0   7   0    2.60    1.30
   0   7   0   -0.60    1.40
   0   7   0    0.70    1.20
   0   7   0    1.60    1.60
   0   7   0    1.10    1.30
   0   7   0    2.00    1.50
   0   7   0    0.60    1.30
   1  -7   0 1246.28   60.19
   1  -7   0 1273.87   60.59
  -1  -7   0 1392.96   60.29
  -1  -7   0 1431.26   60.39
  -1  -7   0 1462.35   60.89
   1  -7   0 1317.87   60.39
   1  -7   0 1340.47   61.09
  -1  -7   0 1324.77   60.69
  -1  -7   0 1418.76   60.89
   1  -7   0 1345.67   60.69
  -1  -7   0 1435.46   61.49
   1  -7   0 1420.26   60.79
   1  -7   0 1359.16   61.39
   1  -7   0 1430.96   60.79
  -1  -7   0 1437.76   60.59
  -1   7   0 1401.26   60.79
   1   7   0 1465.95   60.69
  -1   7   0 1352.46   60.69
  -1   7   0 1338.37   60.39
  -1   7   0 1302.47   60.29
  -1   7   0 1395.46   60.79
   1   7   0 1382.36   60.59
   1   7   0 1525.65   60.29
   1   7   0 1404.36   60.99
   1   7   0 1380.06   60.79
  -1   7   0 1432.76   61.29
  -1   7   0 1334.27   60.69
   1   7   0 1429.86   60.69
   1   7   0 1450.45   61.19
  -2  -7   0 2113.79   91.79
   2  -7   0 2035.70   91.29
  -2  -7   0 2183.68   91.29
  -2  -7   0 2089.39   90.69
   2  -7   0 2020.10   91.49
   2  -7   0 2118.99   91.19
  -2  -7   0 2074.49   90.69
  -2  -7   0 2107.99   91.09
  -2  -7   0 2168.98   91.39
   2  -7   0 2061.39   91.19
   2  -7   0 1834.62   91.09
   2  -7   0 2107.49   91.59
   2   7   0 2083.79   91.69
   2   7   0 2173.68   91.19
   2   7   0 2156.98   91.79
  -2   7   0 2073.09   91.29
   2   7   0 2211.48   91.29
   2   7   0 2264.07   91.19
  -2   7   0 2083.69   91.29
   2   7   0 2063.29   90.99
   2   7   0 2076.59   90.99
  -2   7   0 2012.40   91.59
  -2   7   0 2080.89   91.39
  -2   7   0 1942.61   91.19
  -3  -7   0   52.09    3.40
   3  -7   0   46.40    3.10
   3  -7   0   51.59    4.60
   3  -7   0   46.50    4.10
   3  -7   0   45.50    4.30
  -3  -7   0   55.59    3.60
  -3  -7   0   58.39    3.90
  -3  -7   0   48.50    3.80
   3  -7   0   50.79    4.20
   3  -7   0   50.29    3.60
   3  -7   0   48.70    4.50
  -3  -7   0   54.79    3.50
  -3  -7   0   52.89    4.60
  -3  -7   0   47.50    4.20
  -3  -7   0   51.79    4.30
  -3   7   0   42.40    3.10
   3   7   0   53.99    3.80
  -3   7   0   45.50    4.40
   3   7   0   48.70    4.50
  -3   7   0   49.60    4.70
  -3   7   0   55.59    4.90
  -3   7   0   49.20    4.60
   3   7   0   54.79    3.90
   3   7   0   52.99    3.90
   3   7   0   50.39    4.00
  -3   7   0   40.10    4.10
   3   7   0   55.69    5.00
  -4  -7   0  649.24   27.90
   4  -7   0  625.54   27.80
   4  -7   0  629.14   29.20
  -4  -7   0  620.04   28.60
   4  -7   0  627.34   27.70
  -4  -7   0  618.34   28.90
   4  -7   0  583.84   28.70
   4  -7   0  629.84   28.70
  -4  -7   0  659.23   28.50
   4  -7   0  617.14   28.60
   4  -7   0  612.24   28.80
  -4  -7   0  652.73   28.40
   4   7   0  621.64   29.10
  -4   7   0  605.44   28.80
  -4   7   0  561.74   27.80
   4   7   0  594.74   28.90
   4   7   0  615.44   27.70
  -4   7   0  589.44   28.90
  -4   7   0  625.64   28.80
  -4   7   0  634.54   29.00
   4   7   0  645.74   28.40
  -4   7   0  598.44   29.30
   4   7   0  647.04   28.40
   4   7   0  605.34   29.10
   5  -7   0  536.75   25.90
  -5  -7   0  596.14   25.30
   5  -7   0  568.14   26.30
   5  -7   0  546.75   26.20
  -5  -7   0  555.54   25.90
   5  -7   0  528.55   26.60
  -5  -7   0  568.54   26.60
  -5  -7   0  546.75   25.90
   5  -7   0  561.14   26.40
  -5   7   0  517.95   26.30
  -5   7   0  512.55   25.20
   5   7   0  536.45   26.50
   5   7   0  580.24   26.60
   5   7   0  552.84   25.70
  -5   7   0  552.84   27.10
  -5   7   0  544.95   25.90
  -5   7   0  558.64   26.30
  -5   7   0  554.44   26.40
   5   7   0  541.75   25.70
   5   7   0  501.05   26.20
   6  -7   0   17.10    4.00
   6  -7   0   18.10    4.00
   6  -7   0   20.30    4.40
  -6  -7   0   20.10    4.30
  -6  -7   0   22.20    4.20
  -6  -7   0   15.70    3.50
   6  -7   0   17.60    4.10
  -6   7   0   11.70    4.00
   6   7   0   12.30    3.70
   6   7   0   10.60    3.10
  -6   7   0   17.60    4.80
   6   7   0   13.30    3.80
  -6   7   0   17.30    4.30
   6   7   0   17.00    3.60
   6   7   0   15.40    4.10
  -6   7   0   32.20    5.20
  -7  -7   0   53.89    6.00
  -7   7   0   50.59    6.60
  -7   7   0   46.40    6.60
   7   7   0   49.50    6.40
   7   7   0   51.49    5.90
   7   7   0   48.40    6.00
   0  -8   0  355.36   16.60
   0  -8   0  348.07   16.10
   0  -8   0  356.36   15.80
   0  -8   0  354.66   17.30
   0  -8   0  345.17   16.20
   0  -8   0  351.56   16.40
   0  -8   0  338.17   16.00
   0  -8   0  354.56   16.30
   0  -8   0  365.76   16.50
   0   8   0  374.56   16.40
   0   8   0  364.56   16.40
   0   8   0  365.26   16.90
   0   8   0  352.16   16.30
   0   8   0  369.26   16.30
   0   8   0  360.06   17.00
   0   8   0  340.97   16.50
   1  -8   0  133.79    7.90
   1  -8   0  144.09    7.50
  -1  -8   0  156.58    7.60
  -1  -8   0  139.89    8.20
  -1  -8   0  141.09    7.50
  -1  -8   0  147.99    7.10
  -1  -8   0  154.08    7.70
  -1  -8   0  143.09    6.80
  -1  -8   0  145.49    6.90
   1  -8   0  137.39    7.40
   1  -8   0  135.99    8.20
   1  -8   0  139.89    7.40
   1  -8   0  121.89    6.70
   1  -8   0  133.49    6.80
  -1   8   0  132.79    7.60
   1   8   0  152.38    7.30
  -1   8   0  135.19    7.30
   1   8   0  133.29    7.20
   1   8   0  148.09    7.50
   1   8   0  148.19    7.80
  -1   8   0  138.99    6.90
  -1   8   0  130.79    6.80
  -1   8   0  143.39    7.30
  -1   8   0  141.09    7.40
  -1   8   0  149.59    8.20
  -1   8   0  155.58    7.70
   1   8   0  150.58    8.00
   1   8   0  150.68    6.70
  -2  -8   0   66.29    3.80
  -2  -8   0   71.09    5.30
  -2  -8   0   71.09    4.70
  -2  -8   0   72.79    4.40
   2  -8   0   72.59    4.80
   2  -8   0   69.69    4.70
   2  -8   0   58.99    4.80
  -2  -8   0   70.29    4.80
   2  -8   0   62.79    5.10
  -2  -8   0   65.59    3.80
   2  -8   0   74.19    4.70
  -2   8   0   69.69    4.80
  -2   8   0   66.49    5.30
   2   8   0   67.49    5.30
   2   8   0   76.19    4.50
  -2   8   0   67.49    4.60
   2   8   0   66.29    4.80
   2   8   0   64.09    4.40
  -2   8   0   69.49    4.90
   2   8   0   65.89    4.40
   2   8   0   68.59    4.40
   2   8   0   75.79    5.30
  -2   8   0   69.39    5.50
   3  -8   0  260.07   13.40
  -3  -8   0  256.17   12.50
   3  -8   0  272.67   13.40
  -3  -8   0  241.98   13.30
  -3  -8   0  261.57   13.00
  -3  -8   0  276.57   12.10
   3  -8   0  236.68   12.80
  -3  -8   0  279.87   13.20
   3  -8   0  267.07   13.10
   3  -8   0  233.38   11.80
   3  -8   0  249.78   12.80
  -3  -8   0  263.77   12.10
   3   8   0  265.47   12.60
   3   8   0  280.67   13.70
  -3   8   0  255.27   13.10
   3   8   0  257.87   12.60
   3   8   0  279.37   12.80
  -3   8   0  270.57   13.40
  -3   8   0  271.67   13.50
   3   8   0  241.68   13.30
  -3   8   0  248.48   13.10
   3   8   0  263.97   12.70
  -3   8   0  243.78   13.20
  -4  -8   0   97.49    5.30
  -4  -8   0   88.79    6.20
   4  -8   0   83.09    5.10
  -4  -8   0   80.79    6.50
   4  -8   0   88.39    6.60
   4  -8   0   89.89    6.60
  -4  -8   0   97.09    6.00
   4  -8   0   89.89    6.30
  -4  -8   0   85.39    5.80
   4  -8   0   91.99    6.40
   4  -8   0   99.69    7.10
  -4   8   0   87.79    6.70
  -4   8   0   91.79    6.80
  -4   8   0   94.19    7.40
   4   8   0   84.69    6.60
  -4   8   0   83.29    6.80
   4   8   0   89.99    5.30
  -4   8   0   82.29    5.10
   4   8   0   80.29    6.70
   4   8   0  101.79    6.00
   4   8   0   99.89    6.10
  -4   8   0   83.99    6.90
   5  -8   0    4.30    2.80
  -5  -8   0    4.60    2.70
   5  -8   0    7.20    3.20
   5  -8   0    2.20    2.50
   5  -8   0    7.20    3.20
   5  -8   0    2.60    2.50
  -5  -8   0    4.60    2.60
  -5  -8   0   10.20    3.30
  -5   8   0    0.60    2.80
   5   8   0    6.70    2.50
  -5   8   0    4.20    2.70
  -5   8   0    8.80    3.60
   5   8   0    2.20    2.80
  -5   8   0   15.80    3.70
   5   8   0    0.60    2.80
   5   8   0    7.80    3.00
   5   8   0   11.10    2.80
  -5   8   0    2.90    3.40
   6  -8   0   61.59    6.00
  -6  -8   0   47.10    5.50
   6  -8   0   55.19    6.30
   6  -8   0   41.80    5.50
  -6  -8   0   44.10    5.80
   6  -8   0   49.70    6.20
   6  -8   0   44.70    6.20
   6   8   0   49.99    6.10
  -6   8   0   43.70    6.60
   6   8   0   50.99    5.40
  -6   8   0   44.60    6.00
  -6   8   0   71.49    7.00
   6   8   0   48.10    5.80
  -6   8   0   42.80    5.90
   6   8   0   43.80    6.00
   6   8   0   44.10    5.20
  -7  -8   0   28.50    4.70
   7  -8   0   28.70    5.00
   7   8   0   35.80    7.40
  -7   8   0   26.10    6.10
   7   8   0   23.40    4.60
  -7   8   0   29.00    8.50
   7   8   0   25.00    5.00
   0  -9   0   -0.40    2.20
   0  -9   0    2.40    1.10
   0  -9   0   -0.90    1.20
   0  -9   0    0.70    1.50
   0  -9   0    3.20    1.50
   0  -9   0    0.70    1.60
   0  -9   0   -0.40    0.90
   0  -9   0   -1.10    1.40
   0   9   0   -0.40    1.50
   0   9   0    1.50    1.50
   0   9   0    0.00    1.30
   0   9   0   -1.40    1.80
   0   9   0    0.80    1.80
   0   9   0   -0.80    1.40
   0   9   0    2.80    1.70
   1  -9   0  256.87   12.90
   1  -9   0  288.77   13.60
   1  -9   0  295.87   13.70
   1  -9   0  259.37   12.90
   1  -9   0  260.57   14.30
  -1  -9   0  280.27   12.90
  -1  -9   0  285.07   13.70
  -1  -9   0  297.27   13.80
  -1  -9   0  307.47   13.90
   1  -9   0  294.17   13.50
  -1  -9   0  296.37   13.30
  -1  -9   0  287.77   13.00
  -1  -9   0  312.77   14.70
   1  -9   0  286.77   13.70
   1  -9   0  283.57   14.20
   1   9   0  305.77   13.50
  -1   9   0  270.07   12.90
   1   9   0  304.57   14.10
  -1   9   0  278.87   14.00
   1   9   0  288.27   13.50
  -1   9   0  292.87   13.70
   1   9   0  279.87   13.70
   1   9   0  289.67   14.20
  -1   9   0  280.07   13.60
  -1   9   0  306.57   13.80
  -1   9   0  274.97   13.50
  -1   9   0  256.97   13.00
  -1   9   0  292.47   14.30
   2  -9   0  236.58   12.60
  -2  -9   0  251.97   11.30
   2  -9   0  238.78   12.20
  -2  -9   0  231.08   11.20
  -2  -9   0  253.77   12.90
   2  -9   0  267.47   12.30
   2  -9   0  213.38   12.20
   2  -9   0  251.17   12.10
  -2  -9   0  251.77   12.00
  -2  -9   0  238.58   11.80
  -2  -9   0  244.68   12.30
   2   9   0  239.28   11.90
  -2   9   0  232.58   12.20
  -2   9   0  257.07   12.50
   2   9   0  238.78   11.90
   2   9   0  247.58   11.90
   2   9   0  250.97   12.90
  -2   9   0  248.18   12.30
   2   9   0  262.77   11.80
   2   9   0  247.88   12.30
  -2   9   0  237.98   11.90
   2   9   0  254.27   12.80
  -2   9   0  244.88   12.90
  -3  -9   0   13.60    2.70
  -3  -9   0   11.90    2.30
   3  -9   0    8.80    2.60
  -3  -9   0   13.10    3.00
  -3  -9   0   12.40    1.70
   3  -9   0    9.20    2.70
   3  -9   0   14.00    2.50
   3  -9   0   15.30    3.00
  -3  -9   0   11.30    2.60
   3  -9   0    8.60    2.50
   3   9   0   13.80    3.30
   3   9   0    5.50    2.10
  -3   9   0    9.40    2.70
   3   9   0    8.60    2.70
   3   9   0   10.40    2.10
  -3   9   0    8.90    2.80
  -3   9   0   14.40    3.10
  -3   9   0   13.50    3.00
   3   9   0   10.70    2.20
   3   9   0    8.10    2.10
  -3   9   0    9.30    2.60
   4  -9   0   99.09    7.50
   4  -9   0   98.69    6.90
  -4  -9   0   96.59    7.00
  -4  -9   0  114.69    5.90
  -4  -9   0  115.19    7.40
   4  -9   0   91.69    7.60
   4  -9   0  111.39    7.50
   4  -9   0  112.19    7.20
   4   9   0  116.79    6.80
  -4   9   0   99.79    7.70
  -4   9   0   92.69    7.50
  -4   9   0   98.79    8.00
  -4   9   0  102.19    6.30
   4   9   0  115.69    6.70
  -4   9   0  108.99    7.80
  -4   9   0  115.69    7.60
   4   9   0  107.69    6.40
   4   9   0  111.69    8.00
   4   9   0  109.69    7.70
  -5  -9   0   81.19    7.00
   5  -9   0   85.29    6.80
  -5  -9   0   93.09    6.80
   5  -9   0   83.99    7.60
   5  -9   0   82.79    7.20
   5  -9   0   91.99    7.10
   5  -9   0   81.39    7.20
   5   9   0   89.79    6.30
   5   9   0   76.79    7.20
   5   9   0   85.49    7.30
  -5   9   0   69.49    7.00
  -5   9   0   73.09    7.00
  -5   9   0   79.19    7.50
  -5   9   0   89.99    7.60
  -5   9   0  102.09    7.60
   5   9   0   82.19    6.30
   6  -9   0    4.90    3.70
   6  -9   0    3.50    3.50
   6  -9   0   -0.60    3.10
   6  -9   0    6.80    3.10
   6  -9   0   -0.60    3.10
  -6  -9   0    1.90    2.90
  -6  -9   0    2.30    3.10
   6   9   0    7.80    3.00
   6   9   0    5.80    2.80
   6   9   0   -0.70    2.80
  -6   9   0   -1.00    3.70
  -6   9   0    3.20    3.60
   6   9   0    3.10    3.20
   6   9   0   -1.30    2.70
  -6   9   0    0.70    3.40
  -6   9   0    0.70    3.60
   7  -9   0   10.00    3.90
  -7  -9   0   12.10    4.20
   7   9   0   10.20    4.20
   7   9   0   12.40    3.70
   0 -10   0 2061.39   94.49
   0 -10   0 2157.18   93.79
   0 -10   0 2161.58   92.89
   0 -10   0 2157.58   93.59
   0 -10   0 1998.20   92.99
   0 -10   0 2128.89   93.29
   0 -10   0 2160.78   93.59
   0  10   0 2151.98   94.09
   0  10   0 2220.68   94.29
   0  10   0 2253.47   93.49
   0  10   0 2130.69   93.69
   0  10   0 2069.79   93.39
   0  10   0 2176.18   93.29
   1 -10   0  303.27   13.80
   1 -10   0  266.57   14.40
   1 -10   0  266.57   14.10
  -1 -10   0  272.77   12.70
   1 -10   0  283.77   13.70
  -1 -10   0  276.37   13.70
  -1 -10   0  281.27   13.70
   1 -10   0  254.07   12.60
   1 -10   0  241.68   12.70
  -1 -10   0  290.67   13.70
   1 -10   0  294.27   13.60
  -1 -10   0  282.57   12.90
  -1 -10   0  295.47   13.20
  -1 -10   0  268.97   14.50
   1 -10   0  284.17   13.40
  -1  10   0  284.97   13.50
  -1  10   0  298.67   14.50
  -1  10   0  284.77   14.00
  -1  10   0  300.07   13.70
   1  10   0  272.27   13.40
   1  10   0  297.57   13.40
   1  10   0  289.87   14.20
  -1  10   0  253.97   13.00
   1  10   0  272.77   13.70
  -1  10   0  301.47   13.80
   1  10   0  299.37   14.20
  -2 -10   0  111.99    6.80
   2 -10   0  109.99    6.70
  -2 -10   0  112.09    6.50
  -2 -10   0  117.49    7.60
   2 -10   0  110.49    6.70
   2 -10   0  104.89    7.60
  -2 -10   0  105.09    6.40
   2 -10   0   93.09    6.50
   2 -10   0  117.09    6.70
   2 -10   0  100.99    7.20
   2  10   0  116.79    7.10
  -2  10   0  109.79    6.80
   2  10   0  120.89    6.10
   2  10   0  118.49    7.50
  -2  10   0  120.89    7.40
   2  10   0  115.59    7.40
  -2  10   0  104.19    6.20
   2  10   0  107.29    6.40
   2  10   0  115.69    6.40
  -2  10   0  105.89    7.60
   2  10   0  107.89    6.40
  -2  10   0  100.39    6.70
  -3 -10   0 1144.99   51.19
   3 -10   0 1161.68   51.59
   3 -10   0 1127.49   52.09
  -3 -10   0 1173.38   51.69
  -3 -10   0 1157.88   52.39
  -3 -10   0 1151.58   51.79
   3 -10   0 1145.19   51.59
   3 -10   0 1125.79   51.69
  -3  10   0 1210.28   51.99
  -3  10   0 1103.59   51.79
  -3  10   0 1147.29   51.79
   3  10   0 1199.48   52.39
   3  10   0 1164.98   52.29
   3  10   0 1204.38   51.59
  -3  10   0 1147.59   52.29
   3  10   0 1155.58   51.19
   3  10   0 1145.69   51.29
  -3  10   0 1119.29   51.59
   4 -10   0  175.08   10.50
   4 -10   0  199.58   11.60
   4 -10   0  197.18   11.00
  -4 -10   0  196.18   10.80
   4 -10   0  192.38   10.80
  -4 -10   0  194.38   11.00
  -4 -10   0  202.18   11.40
   4 -10   0  190.68   11.30
   4  10   0  190.68   11.60
   4  10   0  209.98   10.40
   4  10   0  181.48   10.20
  -4  10   0  192.78   11.20
   4  10   0  191.18   10.10
  -4  10   0  184.38   11.30
  -4  10   0  185.98   11.10
  -4  10   0  192.18   11.60
   4  10   0  192.78   11.40
  -4  10   0  170.28   11.00
   5 -10   0   17.80    3.80
   5 -10   0   13.10    4.10
   5 -10   0   15.10    3.80
  -5 -10   0    7.00    2.90
   5 -10   0   11.00    3.20
   5 -10   0    9.50    3.40
  -5 -10   0   16.20    3.70
  -5  10   0   20.20    4.30
  -5  10   0   16.10    3.90
  -5  10   0   14.40    4.00
  -5  10   0   11.80    3.50
   5  10   0    9.90    3.60
  -5  10   0   11.40    4.00
   5  10   0   16.20    4.00
   5  10   0   16.60    3.90
   5  10   0   11.40    3.20
   6 -10   0  225.18   14.40
  -6 -10   0  247.98   14.20
   6 -10   0  238.28   14.20
   6 -10   0  244.08   13.90
   6 -10   0  234.88   13.50
  -6 -10   0  236.68   13.60
   6  10   0  232.08   14.10
   6  10   0  237.98   13.00
   6  10   0  235.88   13.10
  -6  10   0  241.48   14.70
  -6  10   0  235.88   14.30
  -6  10   0  255.27   14.50
   6  10   0  224.08   14.20
   6  10   0  225.28   14.10
   0 -11   0    7.30    2.00
   0 -11   0    3.60    1.90
   0 -11   0    4.60    1.20
   0 -11   0    4.20    1.70
   0 -11   0    7.40    2.10
   0 -11   0    6.80    2.70
   0  11   0    4.00    2.20
   0  11   0    3.50    1.80
   0  11   0    4.30    1.80
   0  11   0    3.30    2.00
   0  11   0    1.10    1.80
   0  11   0    1.70    2.20
   1 -11   0  333.17   16.10
  -1 -11   0  340.37   16.30
   1 -11   0  315.17   17.10
  -1 -11   0  320.57   15.20
  -1 -11   0  324.07   17.20
   1 -11   0  324.37   16.80
  -1 -11   0  346.77   16.40
  -1 -11   0  337.27   16.30
  -1 -11   0  353.16   15.70
   1 -11   0  330.87   15.90
   1 -11   0  327.87   16.20
   1  11   0  326.37   16.20
  -1  11   0  333.67   16.30
   1  11   0  342.77   16.80
   1  11   0  340.57   16.00
  -1  11   0  336.77   17.10
  -1  11   0  346.27   16.70
   1  11   0  341.57   15.90
  -1  11   0  341.87   16.20
  -1  11   0  338.57   15.60
  -1  11   0  347.97   16.30
   1  11   0  358.86   16.90
  -2 -11   0  639.64   31.00
   2 -11   0  678.93   31.20
  -2 -11   0  659.63   31.30
   2 -11   0  701.83   31.30
   2 -11   0  654.53   32.30
  -2 -11   0  706.03   32.40
  -2 -11   0  714.13   31.10
   2 -11   0  632.24   31.70
   2 -11   0  669.43   31.30
   2  11   0  713.23   32.00
  -2  11   0  642.84   31.30
   2  11   0  649.93   32.00
   2  11   0  728.03   30.60
  -2  11   0  706.43   31.50
   2  11   0  769.32   31.60
  -2  11   0  663.13   30.70
   2  11   0  724.63   31.70
  -2  11   0  664.13   31.30
   2  11   0  669.03   31.00
  -2  11   0  674.93   31.60
   2  11   0  692.23   31.10
  -2  11   0  691.83   32.20
   3 -11   0   21.40    3.40
  -3 -11   0   20.30    3.40
   3 -11   0   25.10    4.10
   3 -11   0   24.20    3.60
  -3 -11   0   33.20    4.70
   3 -11   0   29.90    4.00
  -3 -11   0   24.60    3.60
   3  11   0   26.60    3.40
  -3  11   0   29.40    4.00
   3  11   0   19.20    3.30
  -3  11   0   26.10    4.20
  -3  11   0   30.30    3.70
  -3  11   0   30.80    4.20
   3  11   0   33.80    4.60
   3  11   0   24.70    4.10
  -3  11   0   29.90    4.40
   3  11   0   23.30    3.20
   4 -11   0  207.58   12.70
   4 -11   0  214.78   12.10
   4 -11   0  213.08   12.10
  -4 -11   0  238.68   12.50
  -4 -11   0  207.38   12.10
   4 -11   0  210.08   12.30
   4 -11   0  213.08   12.70
  -4 -11   0  227.08   12.90
  -4  11   0  231.08   12.80
  -4  11   0  216.28   12.40
   4  11   0  233.48   13.00
   4  11   0  225.18   12.40
  -4  11   0  234.48   13.20
   4  11   0  235.48   13.20
  -4  11   0  224.38   12.60
  -4  11   0  227.88   13.20
   4  11   0  214.38   11.70
   4  11   0  223.98   11.60
  -5 -11   0  222.78   12.30
   5 -11   0  185.58   12.10
   5 -11   0  208.78   12.40
  -5 -11   0  186.08   11.70
   5 -11   0  201.98   12.80
   5 -11   0  198.98   11.70
   5 -11   0  204.08   12.00
   5  11   0  212.58   12.60
  -5  11   0  192.28   12.50
   5  11   0  207.48   12.70
  -5  11   0  198.78   12.60
   5  11   0  191.28   11.30
  -5  11   0  215.18   12.70
  -5  11   0  208.48   12.50
  -5  11   0  230.38   13.30
   5  11   0  194.88   12.60
   5  11   0  219.08   11.30
   6 -11   0   -0.10    3.20
   6 -11   0    8.70    3.30
  -6 -11   0   11.20    3.50
   6 -11   0    7.70    4.30
   6 -11   0    6.50    4.00
  -6 -11   0   10.30    3.90
   6  11   0    2.90    3.60
   6  11   0    7.00    3.90
  -6  11   0    8.90    4.80
  -6  11   0    1.30    4.10
   6  11   0    3.90    3.00
   6  11   0   10.70    3.10
  -6  11   0    4.60    3.80
   6  11   0    2.90    3.40
   0 -12   0   10.40    3.30
   0 -12   0   10.30    2.50
   0 -12   0   15.50    2.60
   0 -12   0   14.90    2.20
   0 -12   0   15.40    1.70
   0 -12   0   11.90    2.60
   0  12   0   10.90    2.50
   0  12   0   12.30    3.20
   0  12   0   14.30    2.50
   0  12   0   15.90    2.70
   0  12   0   16.50    3.20
   0  12   0   15.10    2.80
  -1 -12   0    1.50    2.20
  -1 -12   0    0.70    1.60
   1 -12   0    0.80    2.10
   1 -12   0    3.80    2.20
   1 -12   0    5.40    2.00
   1 -12   0    3.10    2.10
  -1 -12   0    2.00    2.70
   1 -12   0    1.10    2.00
  -1 -12   0    4.50    2.30
  -1 -12   0    3.10    2.10
   1 -12   0    1.60    2.60
  -1  12   0    2.10    1.60
   1  12   0    3.30    2.10
  -1  12   0    0.10    2.00
  -1  12   0   -1.50    2.30
   1  12   0    2.30    2.30
   1  12   0    2.60    1.90
   1  12   0   -0.90    2.10
  -1  12   0    2.10    2.10
  -1  12   0    1.00    2.60
   1  12   0    1.20    2.20
  -1  12   0    4.70    2.50
  -2 -12   0    3.10    3.10
  -2 -12   0    4.00    2.30
   2 -12   0    5.50    2.20
   2 -12   0    5.30    3.30
  -2 -12   0    5.60    2.10
   2 -12   0    6.50    2.50
   2 -12   0    0.40    2.20
  -2 -12   0    8.80    2.60
   2 -12   0    8.20    2.60
   2 -12   0    5.40    2.80
  -2  12   0    8.20    2.80
  -2  12   0    3.20    3.10
   2  12   0    5.10    2.20
   2  12   0    7.40    3.00
  -2  12   0    8.00    2.70
   2  12   0    9.30    3.10
  -2  12   0    8.70    2.90
   2  12   0    5.10    2.70
  -2  12   0    4.70    3.00
   2  12   0    7.10    2.50
   3 -12   0    4.50    2.40
  -3 -12   0    2.40    3.10
   3 -12   0    2.50    2.50
   3 -12   0    1.80    3.20
   3 -12   0   -0.90    2.60
   3 -12   0    4.90    2.50
  -3 -12   0    6.80    2.50
  -3 -12   0    3.70    2.50
   3  12   0   -0.70    2.60
   3  12   0    7.00    3.10
  -3  12   0    0.40    2.60
   3  12   0    1.60    2.40
   3  12   0    6.60    2.40
   3  12   0    2.70    2.20
  -3  12   0    2.30    2.40
  -3  12   0   -0.30    2.80
  -3  12   0    3.10    3.30
  -3  12   0    0.40    2.20
   4 -12   0    1.70    2.80
   4 -12   0    1.80    2.50
  -4 -12   0   -1.00    2.90
  -4 -12   0    1.90    2.40
  -4 -12   0   -0.10    2.60
   4 -12   0    4.60    2.70
   4 -12   0    2.90    3.00
   4  12   0    0.10    2.30
  -4  12   0    0.10    2.60
  -4  12   0   -0.30    2.90
  -4  12   0    2.10    3.50
  -4  12   0    0.30    2.90
   4  12   0   -0.20    3.10
  -4  12   0    1.60    2.70
   4  12   0    1.90    2.30
   4  12   0    3.80    2.90
   5 -12   0   -0.20    2.90
  -5 -12   0   -1.70    2.80
  -5 -12   0   -4.50    2.50
   5 -12   0   -5.10    2.90
   5 -12   0    2.20    3.40
   5 -12   0    0.50    3.30
   5 -12   0   -1.20    2.70
   5  12   0    3.00    2.70
  -5  12   0    2.50    3.40
   5  12   0    2.70    2.50
  -5  12   0   -0.40    3.60
  -5  12   0    8.00    3.50
   5  12   0    0.90    3.40
   5  12   0    0.80    2.90
   5  12   0    1.50    3.20
  -5  12   0   -1.60    3.20
   6 -12   0   -4.90    5.30
   6 -12   0    0.50    3.20
   6 -12   0   -2.90    3.70
  -6 -12   0    3.00    4.40
   6  12   0   -0.40    3.40
   6  12   0    0.10    2.50
   6  12   0    1.40    2.90
   0 -13   0    0.00    1.60
   0 -13   0    1.40    2.80
   0 -13   0    0.60    1.90
   0 -13   0   -1.70    2.00
   0 -13   0   -3.00    1.80
   0  13   0    1.50    2.30
   0  13   0   -2.60    1.90
   0  13   0   -0.20    2.50
   0  13   0    1.40    2.40
  -1 -13   0  300.77   14.80
   1 -13   0  304.67   14.30
   1 -13   0  288.57   14.70
   1 -13   0  273.77   14.20
  -1 -13   0  277.27   14.70
   1 -13   0  284.67   15.90
  -1 -13   0  264.57   14.60
  -1 -13   0  296.67   13.90
  -1 -13   0  282.37   15.90
   1 -13   0  292.27   14.60
  -1  13   0  299.47   15.40
  -1  13   0  294.77   14.60
   1  13   0  263.37   14.60
  -1  13   0  312.97   16.00
  -1  13   0  304.87   14.90
   1  13   0  290.97   13.80
   1  13   0  286.57   14.40
   1  13   0  308.37   15.50
   1  13   0  299.27   15.50
  -1  13   0  329.07   14.90
   2 -13   0  333.47   17.80
   2 -13   0  325.97   17.20
  -2 -13   0  362.06   16.80
   2 -13   0  327.57   17.20
   2 -13   0  332.37   16.50
   2 -13   0  350.96   17.30
  -2 -13   0  336.27   17.20
  -2 -13   0  355.46   18.70
   2 -13   0  329.87   18.40
   2  13   0  360.56   17.00
   2  13   0  363.46   18.10
  -2  13   0  375.96   17.70
   2  13   0  341.47   16.90
  -2  13   0  347.27   17.30
  -2  13   0  334.77   17.40
   2  13   0  371.26   17.90
  -2  13   0  359.26   17.80
  -2  13   0  352.76   18.50
   2  13   0  347.27   18.20
   3 -13   0    7.30    3.90
   3 -13   0   -0.20    2.60
   3 -13   0    6.50    2.70
   3 -13   0    6.90    2.80
  -3 -13   0    5.10    3.60
  -3 -13   0    4.50    2.60
  -3 -13   0    3.00    2.50
   3 -13   0    2.90    2.80
  -3  13   0    3.80    3.20
   3  13   0    2.40    3.10
  -3  13   0    1.40    2.70
   3  13   0    4.00    2.40
   3  13   0    5.10    2.40
  -3  13   0    6.50    2.90
  -3  13   0   -1.60    3.40
  -3  13   0    7.10    3.10
   3  13   0    6.80    3.30
   3  13   0    4.00    2.70
   4 -13   0  123.79    8.20
  -4 -13   0  117.79    8.20
   4 -13   0  125.09    8.60
   4 -13   0  117.29    8.20
   4 -13   0  114.59    9.00
   4 -13   0  102.69    9.40
  -4 -13   0  115.59    8.20
  -4 -13   0  124.89    9.30
  -4  13   0  118.79    8.90
  -4  13   0  110.39    9.50
   4  13   0  105.79    8.80
   4  13   0  124.49    7.50
   4  13   0  139.59    9.60
   4  13   0  121.19    7.90
  -4  13   0  102.29    9.10
  -4  13   0  104.99    8.50
   5 -13   0  119.19    9.30
  -5 -13   0  129.49    8.80
  -5 -13   0  115.49    8.30
   5 -13   0  120.59    9.00
   5 -13   0  111.39    8.60
   5 -13   0   98.39    8.10
  -5  13   0   97.59    9.50
   5  13   0   97.19    7.80
  -5  13   0  111.09    9.10
   5  13   0  117.49    7.70
  -5  13   0  104.69    8.90
  -5  13   0  101.29    9.40
   5  13   0  107.49    9.60
   5  13   0   96.59    8.70
   6 -13   0    7.20    4.10
   6 -13   0   11.00    3.80
   0 -14   0  617.54   29.30
   0 -14   0  576.04   28.40
   0 -14   0  668.93   30.90
   0 -14   0  606.24   29.40
   0  14   0  634.94   29.30
   0  14   0  690.03   30.80
   0  14   0  629.84   30.20
   0  14   0  674.13   29.10
   1 -14   0  103.39    8.40
  -1 -14   0   99.89    8.30
   1 -14   0   94.09    6.90
   1 -14   0  106.49    7.10
  -1 -14   0  108.89    7.20
  -1 -14   0  100.89    6.00
   1 -14   0   88.09    6.30
  -1 -14   0  101.29    7.00
   1 -14   0  110.09    6.70
   1  14   0  110.79    8.10
  -1  14   0  106.59    7.10
  -1  14   0  119.39    8.10
  -1  14   0  108.69    8.50
  -1  14   0   95.09    7.40
   1  14   0  106.49    8.20
   1  14   0  103.89    7.20
  -1  14   0  109.99    7.40
   1  14   0  104.39    6.80
   2 -14   0   51.39    4.50
   2 -14   0   43.80    4.90
   2 -14   0   49.20    6.30
   2 -14   0   37.70    5.30
  -2 -14   0   51.19    4.60
   2 -14   0   43.80    4.90
  -2 -14   0   40.30    4.90
   2 -14   0   53.49    5.60
  -2 -14   0   39.80    5.90
  -2  14   0   57.89    5.80
   2  14   0   47.90    6.20
   2  14   0   52.69    5.00
   2  14   0   53.09    5.60
   2  14   0   41.60    5.60
  -2  14   0   57.69    5.80
  -2  14   0   60.69    5.90
  -2  14   0   51.79    5.70
   2  14   0   55.59    5.10
  -2  14   0   47.70    5.80
  -3 -14   0  335.17   17.90
   3 -14   0  369.26   17.90
  -3 -14   0  380.46   19.60
   3 -14   0  345.87   17.90
   3 -14   0  345.07   17.80
   3 -14   0  341.47   18.50
   3 -14   0  326.27   19.30
  -3 -14   0  355.16   17.70
  -3  14   0  319.67   18.00
  -3  14   0  381.36   18.70
   3  14   0  377.66   19.20
   3  14   0  358.56   18.90
   3  14   0  344.97   18.10
  -3  14   0  353.66   18.20
  -3  14   0  346.97   18.30
   3  14   0  368.26   17.40
  -3  14   0  359.86   19.20
   3  14   0  331.87   17.50
   4 -14   0   84.49    9.10
  -4 -14   0   76.59    7.00
   4 -14   0   87.69    7.80
   4 -14   0   88.89    8.10
  -4 -14   0   90.99    8.80
   4 -14   0   80.49    6.90
   4 -14   0   82.59    7.40
  -4 -14   0   86.99    7.00
   4  14   0   77.49    8.00
   4  14   0   80.99    6.20
   4  14   0   84.99    8.30
  -4  14   0   99.89    8.80
   4  14   0   77.79    6.70
  -4  14   0   81.99    8.20
  -4  14   0   77.39    7.50
  -4  14   0   79.39    7.70
  -4  14   0   76.29    7.60
  -5 -14   0    1.80    3.30
   5 -14   0    4.50    3.40
  -5 -14   0    0.20    3.00
   5 -14   0    4.70    3.80
   5 -14   0    3.30    4.30
   5 -14   0    3.30    2.90
  -5  14   0    3.10    3.80
  -5  14   0    4.40    4.60
  -5  14   0    2.80    3.40
   5  14   0   -1.20    3.60
  -5  14   0    5.40    4.00
   5  14   0    3.60    3.40
   5  14   0    1.60    2.60
   0 -15   0    1.10    2.30
   0 -15   0    0.10    2.40
   0 -15   0    1.80    3.30
   0  15   0    2.60    2.80
   0  15   0    3.40    2.60
   0  15   0    1.10    3.20
   0  15   0    1.30    2.60
   0  15   0    4.50    2.60
  -1 -15   0   21.30    3.70
   1 -15   0   23.70    3.50
  -1 -15   0   26.70    3.80
  -1 -15   0   21.70    4.80
   1 -15   0   16.30    3.50
   1 -15   0   20.40    4.70
   1 -15   0   25.80    3.30
   1  15   0   28.00    4.00
   1  15   0   19.10    3.30
   1  15   0   14.60    4.00
  -1  15   0   26.70    4.00
  -1  15   0   20.90    4.50
   1  15   0   23.20    4.40
  -1  15   0   25.90    4.50
  -1  15   0   22.60    4.00
  -1  15   0   36.40    4.60
   2 -15   0   63.39    6.50
   2 -15   0   58.49    5.80
  -2 -15   0   58.49    5.00
   2 -15   0   53.69    4.80
  -2 -15   0   69.99    5.80
  -2 -15   0   53.99    7.00
   2 -15   0   61.09    7.10
   2  15   0   66.99    5.90
  -2  15   0   66.39    6.50
   2  15   0   66.59    6.90
  -2  15   0   50.49    6.50
   2  15   0   53.09    5.30
  -2  15   0   78.39    7.00
   2  15   0   59.09    6.30
  -2  15   0   59.29    6.10
  -2  15   0   66.29    6.60
   2  15   0   60.29    6.80
   3 -15   0    2.10    3.60
  -3 -15   0    6.70    4.20
   3 -15   0   -3.40    2.90
   3 -15   0    5.10    2.90
  -3 -15   0    7.40    3.00
   3 -15   0   11.50    3.50
  -3 -15   0    5.50    3.00
  -3  15   0    7.50    4.00
   3  15   0    0.30    3.30
   3  15   0    4.10    2.60
   3  15   0   -1.50    2.80
   3  15   0    3.50    3.50
   3  15   0    5.00    3.00
  -3  15   0    3.00    3.70
  -3  15   0   10.00    3.80
  -3  15   0    8.60    3.40
  -3  15   0    4.00    3.30
   4 -15   0   13.30    3.90
  -4 -15   0   14.60    3.70
  -4 -15   0   20.20    5.20
   4 -15   0    8.30    4.50
   4 -15   0   14.00    3.50
  -4 -15   0   17.50    4.00
   4 -15   0   14.00    4.00
  -4  15   0   16.50    4.70
  -4  15   0   21.70    4.50
  -4  15   0   14.50    4.60
   4  15   0   14.40    4.40
  -4  15   0   10.30    4.00
   4  15   0   13.20    4.00
   4  15   0   17.70    3.30
   4  15   0    9.90    4.20
  -4  15   0   19.30    4.40
   5 -15   0   16.40    4.30
  -5 -15   0   24.90    4.80
   5 -15   0   13.40    4.00
   5  15   0   17.40    3.50
  -5  15   0   12.80    5.20
   0 -16   0   71.49    6.30
   0 -16   0   82.39    8.20
   0 -16   0   80.99    6.20
   0  16   0   74.29    6.20
   0  16   0   69.79    7.40
   0  16   0   77.09    6.40
   0  16   0   76.39    7.50
   0  16   0   72.89    6.00
   1 -16   0   16.00    3.50
  -1 -16   0   13.00    4.20
  -1 -16   0   16.60    3.50
   1 -16   0   14.10    4.10
   1 -16   0   13.20    3.00
  -1 -16   0   15.50    3.60
  -1  16   0    4.10    3.70
  -1  16   0   11.60    3.70
   1  16   0    9.70    3.80
  -1  16   0   10.20    3.20
   1  16   0   12.10    4.00
  -1  16   0    6.80    3.20
  -1  16   0    4.30    3.20
   1  16   0   12.80    3.10
   1  16   0    7.90    3.10
   2 -16   0   21.20    3.80
   2 -16   0   14.00    3.60
  -2 -16   0   16.30    4.80
   2 -16   0   10.40    4.40
  -2 -16   0   20.70    3.80
   2 -16   0   15.60    3.90
  -2  16   0   15.60    4.00
  -2  16   0   12.50    4.40
   2  16   0   15.60    3.50
   2  16   0   10.70    4.10
  -2  16   0   14.90    4.10
   2  16   0   17.40    4.40
  -2  16   0   19.50    4.00
   2  16   0   15.60    4.40
  -2  16   0   17.00    4.40
  -3 -16   0   30.10    6.00
   3 -16   0   42.60    6.80
  -3 -16   0   31.00    4.50
   3 -16   0   28.20    5.20
   3 -16   0   23.70    4.30
   3 -16   0   38.90    5.60
  -3 -16   0   32.00    4.80
  -3  16   0   33.80    5.40
   3  16   0   43.00    6.20
   3  16   0   27.30    4.90
  -3  16   0   26.00    4.70
  -3  16   0   28.90    5.10
   3  16   0   22.00    3.80
  -3  16   0   31.40    5.70
   3  16   0   25.70    4.30
  -3  16   0   38.30    5.90
   3  16   0   30.70    5.60
  -4 -16   0    9.40    3.50
   4 -16   0    1.50    3.50
   4 -16   0    6.30    3.60
  -4 -16   0    0.20    3.90
   4 -16   0    2.00    4.30
   4 -16   0    7.10    3.30
  -4 -16   0    8.60    3.50
   4  16   0    5.30    3.80
  -4  16   0    5.50    4.40
  -4  16   0    9.20    4.50
  -4  16   0   12.60    4.00
  -4  16   0    6.90    4.80
  -4  16   0   10.90    4.20
   4  16   0   11.20    4.50
   4  16   0    7.70    2.80
   0 -17   0    7.10    3.80
   0 -17   0    2.00    2.90
   0 -17   0    3.50    2.60
   0  17   0   -2.60    2.60
   0  17   0    2.10    2.80
   0  17   0   -3.60    2.80
   0  17   0    0.70    2.60
   0  17   0   -5.20    3.20
   1 -17   0  113.59    9.40
  -1 -17   0  114.39    8.00
   1 -17   0  101.49    7.90
   1 -17   0  111.99    7.60
  -1 -17   0  109.89    9.50
   1  17   0  112.99    8.10
  -1  17   0  108.49    9.20
  -1  17   0  118.79    8.50
  -1  17   0  114.99    8.30
  -1  17   0  113.39    8.60
   1  17   0  125.59    9.60
   1  17   0  117.79    9.70
  -1  17   0  122.49   10.30
   1  17   0  108.49    7.80
  -2 -17   0  134.69    8.90
   2 -17   0  113.09    8.60
  -2 -17   0  119.99   10.30
   2 -17   0  125.99   10.60
  -2  17   0  128.59    9.70
  -2  17   0  131.39    9.40
  -2  17   0  136.39    9.80
  -2  17   0  131.49    9.30
   2  17   0  120.89    9.90
  -2  17   0  122.39   10.80
   2  17   0  147.19   10.60
   2  17   0  122.19    8.40
   2  17   0  137.39   10.30
   2  17   0  113.29    8.30
   3 -17   0   -0.20    4.10
   3 -17   0    0.60    3.00
   3 -17   0    0.20    3.30
  -3 -17   0    0.10    2.70
  -3 -17   0    4.10    4.20
  -3  17   0   -3.60    3.90
   3  17   0   -4.10    3.40
  -3  17   0   -5.00    2.80
   3  17   0   -2.50    3.60
   3  17   0   -5.10    3.00
  -3  17   0   -1.20    3.40
  -3  17   0    0.30    3.90
  -3  17   0    2.10    3.60
   3  17   0    0.80    2.60
   4 -17   0   40.70    5.60
  -4  17   0   26.90    6.30
   4  17   0   34.50    4.30
  -4  17   0   43.90    6.20
   0 -18   0   59.29    7.50
   0 -18   0   65.09    6.10
   0 -18   0   67.69    6.60
   0  18   0   68.09    6.50
   0  18   0   67.99    7.60
   0  18   0   81.69    8.50
   0  18   0   70.89    6.60
  -1 -18   0   10.10    3.40
   1 -18   0   16.10    3.90
   1 -18   0   15.70    4.80
  -1 -18   0   13.10    4.50
   1 -18   0   16.00    3.40
  -1  18   0   10.80    3.70
   1  18   0   12.10    4.60
  -1  18   0    9.60    3.60
  -1  18   0    6.30    4.40
   1  18   0   15.10    4.30
   1  18   0   12.20    4.30
  -1  18   0   17.30    4.50
   1  18   0   26.90    4.30
   1  18   0   12.10    3.40
  -1  18   0    6.50    3.80
  -2 -18   0    7.90    3.40
  -2 -18   0   12.30    4.50
   2 -18   0   18.70    5.30
   2 -18   0    6.00    3.20
   2  18   0    3.90    4.10
   2  18   0   15.50    4.60
  -2  18   0   12.10    4.10
   2  18   0   11.10    3.30
  -2  18   0    6.40    3.80
   2  18   0    9.30    4.10
  -2  18   0    9.40    4.70
  -2  18   0   12.00    4.50
  -2  18   0   10.40    4.40
  -3 -18   0   24.30    5.90
   3 -18   0   29.60    4.80
  -3 -18   0   35.40    6.90
  -3  18   0   20.10    5.10
   3  18   0   37.50    4.60
  -3  18   0   20.30    6.30
  -3  18   0   21.50    5.30
   3  18   0   23.60    5.10
  -3  18   0   18.50    4.90
   0 -19   0    3.10    3.20
   0 -19   0    1.90    2.80
   0  19   0    1.90    3.20
   0  19   0   -2.70    4.10
   0  19   0    0.60    2.90
   0  19   0   -0.50    3.30
  -1 -19   0    8.70    3.10
   1 -19   0    4.90    4.30
   1 -19   0    1.60    3.10
  -1 -19   0    3.00    3.90
  -1  19   0    1.70    3.90
   1  19   0   -3.90    3.80
  -1  19   0   -2.90    3.20
   1  19   0    4.00    3.90
  -1  19   0   -1.70    4.30
   1  19   0    3.90    3.70
   1  19   0    5.90    3.10
  -1  19   0   -1.10    3.60
   1  19   0    4.10    3.90
  -2 -19   0    9.30    6.80
  -2 -19   0    2.00    3.10
   2 -19   0   -1.40    3.00
  -2  19   0   -5.20    3.80
   2  19   0   -4.30    3.80
  -2  19   0    1.10    3.60
  -2  19   0    6.60    4.00
   2  19   0    1.20    2.80
  -2  19   0    2.50    3.90
   3 -19   0    2.50    3.40
  -3  19   0   -1.80    3.50
   3  19   0    3.30    3.00
   0 -20   0   61.09    6.20
   0 -20   0   53.29    6.30
   0  20   0   58.69    6.20
   0  20   0   65.59    6.80
  -1 -20   0   11.50    3.60
   1 -20   0   14.30    4.00
   1  20   0   11.90    3.60
  -1  20   0   11.40    4.10
   2 -20   0    3.80    3.20
   2  20   0    4.30    4.50
  -2  20   0    5.10    4.10
  -2  20   0    2.70    4.60
   2  20   0    4.50    3.00
   7   0  -1    1.70    3.50
   7   0  -1   -3.40    2.80
   7   0  -1    4.80    3.20
   7   0  -1    0.70    3.10
  -7   0   1    3.50    3.20
  -7   0   1   -2.20    3.70
  -7   0   1    0.60    3.00
  -6   0   1   -0.50    2.60
   6   0  -1    0.10    2.70
   6   0  -1   -0.80    2.80
   6   0  -1   -0.80    2.80
  -6   0   1   -0.70    2.60
   6   0  -1    2.50    2.70
  -6   0   1    1.80    2.70
  -6   0   1    0.50    3.60
  -6   0   1    0.70    2.60
   6   0  -1   -1.60    2.10
   5   0  -1    1.40    2.40
   5   0  -1   -0.50    1.70
  -5   0   1   -2.10    2.10
  -5   0   1   -1.00    1.90
   5   0  -1   -2.90    1.80
  -5   0   1   -2.50    1.80
  -5   0   1    2.50    2.30
   5   0  -1   -3.50    2.20
  -5   0   1    3.30    3.00
   5   0  -1   -2.00    1.90
  -4   0   1    0.00    1.90
   4   0  -1    0.10    1.90
  -4   0   1    2.60    1.80
   4   0  -1    0.60    1.80
   4   0  -1   -2.20    1.90
   4   0  -1    1.60    1.60
  -4   0   1   -1.10    1.50
  -4   0   1   -0.50    1.70
  -4   0   1    2.60    2.00
   4   0  -1   -1.00    1.60
   3   0  -1   -2.30    1.50
  -3   0   1    1.50    1.40
  -3   0   1   -1.40    1.60
   3   0  -1    2.50    1.50
   3   0  -1    0.60    1.20
  -3   0   1   -2.70    1.50
   3   0  -1    0.00    1.20
  -3   0   1   -1.90    1.90
   3   0  -1   -1.00    1.50
  -3   0   1    2.10    1.50
  -3   0   1   -0.70    1.30
   3   0  -1   -0.70    1.40
  -3   0   1    0.10    1.20
  -2   0   1    1.50    1.10
   2   0  -1    1.50    1.50
  -2   0   1   -0.40    1.10
   2   0  -1    0.30    1.30
  -2   0   1   -1.00    1.10
   2   0  -1    0.20    1.10
   2   0  -1    0.70    1.10
  -2   0   1    1.30    1.70
   2   0  -1   -0.20    1.00
  -2   0   1    0.60    1.10
  -2   0   1   -1.30    0.90
   2   0  -1   -0.20    1.00
  -2   0   1    0.10    1.30
  -2   0   1    2.50    1.10
   2   0  -1   -0.70    1.30
   2   0  -1    1.50    0.90
   2   0  -1    2.20    1.10
  -2   0   1    0.00    1.10
   2   0  -1   -1.30    1.10
  -2   0   1    0.70    1.20
  -2   0   1    1.50    1.00
   1   0  -1    0.30    0.90
  -1   0   1    0.80    0.80
  -1   0   1    1.20    0.90
  -1   0   1    0.50    0.90
  -1   0   1    0.10    0.80
   1   0  -1    1.90    0.80
  -1   0   1   -0.80    1.20
  -1   0   1    0.50    0.70
   1   0  -1   -1.10    0.90
   1   0  -1   -0.10    1.00
  -1   0   1   -0.80    0.90
  -1   0   1    0.20    1.00
   1   0  -1    2.80    1.00
   1   0  -1   -0.50    1.20
   1   0  -1    1.40    0.80
   1   0  -1   -0.20    0.70
  -1   0   1    0.10    0.70
  -1   0   1    1.60    0.80
   1   0  -1    1.00    1.00
   1   0  -1    0.90    0.80
   1   0  -1   -0.10    0.70
   0   0  -1    2.40    0.60
   0   0   1    2.40    1.10
   0   0   1    2.00    0.60
   0   0   1    2.00    0.70
   0   0  -1    1.20    0.60
   0   0  -1    0.40    0.90
   0   0   1    2.40    0.90
   0   0  -1    1.40    0.80
   0   0  -1    2.90    0.60
   0   0  -1    2.20    0.70
   0   0  -1    2.60    0.60
   0   0   1    2.20    0.40
   0   0  -1    1.90    0.60
   0   0  -1    1.70    0.80
   0   0   1    2.00    0.50
   0   0  -1    1.70    0.50
   0   0   1    2.00    0.50
   0   0   1    1.40    0.60
   0   0   1    2.60    0.50
   0   0   1    2.90    0.60
   0   0   1    1.70    0.70
   1   0   1    1.90    1.00
  -1   0  -1    4.50    1.20
   1   0   1    0.50    0.80
  -1   0  -1    1.70    0.70
  -1   0  -1    1.50    1.10
  -1   0  -1    5.00    1.00
  -1   0  -1    2.30    1.00
  -1   0  -1    3.40    1.10
  -1   0  -1    3.00    1.10
   1   0   1    3.40    1.00
  -1   0  -1    0.80    0.90
   1   0   1    3.00    1.00
   1   0   1    3.20    1.10
   1   0   1    1.90    1.00
  -1   0  -1    1.20    1.00
   1   0   1    0.90    1.20
  -1   0  -1    5.40    1.40
   1   0   1    1.20    1.10
   1   0   1    1.90    1.10
  -2   0  -1    0.20    1.30
  -2   0  -1   -1.20    1.30
  -2   0  -1    1.60    1.40
  -2   0  -1    3.10    1.30
   2   0   1    0.20    1.20
   2   0   1    2.00    1.70
   2   0   1   -0.40    1.20
   2   0   1   -0.50    0.90
  -2   0  -1    2.10    0.90
   2   0   1   -1.20    1.30
   2   0   1    0.10    1.30
  -2   0  -1   -0.60    1.30
   2   0   1    0.70    1.00
  -2   0  -1    1.00    1.40
  -2   0  -1    1.40    1.30
   2   0   1   -0.70    1.00
  -2   0  -1    1.50    1.70
   2   0   1    1.30    1.30
   2   0   1   -2.00    1.20
   2   0   1    0.00    1.30
   3   0   1    0.30    1.70
  -3   0  -1    1.00    1.60
   3   0   1    1.20    1.60
  -3   0  -1   -0.30    1.10
   3   0   1    0.60    1.40
   3   0   1    0.60    1.40
  -3   0  -1    2.10    2.10
   3   0   1    0.40    1.70
  -3   0  -1    2.80    1.40
  -3   0  -1    0.40    1.50
   3   0   1    0.20    1.00
  -4   0  -1   -1.60    1.70
   4   0   1    1.70    1.60
   4   0   1   -2.90    1.60
  -4   0  -1    2.10    1.10
   4   0   1   -2.20    1.20
   4   0   1    1.30    2.20
  -4   0  -1   -0.50    1.10
   4   0   1    0.40    1.70
   4   0   1   -2.30    1.80
  -4   0  -1   -1.10    1.70
  -4   0  -1   -0.50    1.30
  -4   0  -1    0.10    2.00
  -4   0  -1    0.90    2.60
  -4   0  -1    2.60    1.90
  -5   0  -1    2.00    2.40
   5   0   1    0.60    2.40
   5   0   1    2.90    2.70
   5   0   1   -2.20    2.10
  -5   0  -1   -1.00    2.00
   5   0   1   -0.40    2.00
  -5   0  -1    0.40    2.40
  -5   0  -1   -0.70    3.00
   5   0   1   -0.40    2.20
   5   0   1   -1.30    1.50
  -5   0  -1   -0.80    1.50
   6   0   1   -2.20    2.70
   6   0   1    3.80    2.70
   6   0   1   -0.90    2.90
   6   0   1    3.10    2.80
  -6   0  -1    4.20    3.80
   6   0   1   -0.60    2.70
  -6   0  -1   -1.10    2.30
  -6   0  -1    0.60    2.80
  -6   0  -1   -1.00    2.80
  -6   0  -1    5.20    2.90
   7   0   1   -5.90    2.60
   7   0   1   -0.40    2.80
  -7   0  -1    5.40    3.50
  -7   0  -1    3.80    3.20
   7   0   1   -5.50    3.00
  -7   0  -1    8.10    4.60
  -7   0  -1   -1.50    3.10
   7   0   1   -0.60    2.70
   7  -1  -1  166.18   10.80
  -7  -1   1  155.98   11.60
   7  -1  -1  156.18   11.20
  -7  -1   1  160.48   10.90
  -7  -1   1  165.98   10.50
   7  -1  -1  170.48   11.10
   7  -1  -1  145.69   10.30
   7   1  -1  146.69   10.30
   7   1  -1  141.59   10.80
  -7   1   1  162.08   10.70
  -7   1   1  186.38   10.70
   7   1  -1  160.98   10.50
   7   1  -1  178.88   11.20
  -7   1   1  173.78   12.10
   6  -1  -1  236.68   12.70
   6  -1  -1  209.08   11.70
  -6  -1   1  231.18   12.00
  -6  -1   1  219.28   12.40
  -6  -1   1  229.88   13.50
  -6  -1   1  215.68   12.70
  -6  -1   1  229.48   12.20
   6  -1  -1  220.18   13.00
   6  -1  -1  208.38   12.40
   6  -1  -1  210.48   13.00
   6   1  -1  224.18   13.20
  -6   1   1  232.08   12.30
   6   1  -1  223.38   12.40
   6   1  -1  229.18   12.50
  -6   1   1  233.78   12.80
   6   1  -1  218.48   11.90
  -6   1   1  217.58   12.60
  -6   1   1  227.88   13.60
   6   1  -1  232.48   13.10
  -6   1   1  238.48   12.60
  -5  -1   1   63.19    6.00
   5  -1  -1   55.59    5.30
  -5  -1   1   51.99    5.10
   5  -1  -1   59.59    5.40
  -5  -1   1   42.80    4.40
  -5  -1   1   60.69    5.10
  -5  -1   1   57.99    4.80
   5  -1  -1   52.59    4.50
   5  -1  -1   63.09    5.70
  -5  -1   1   59.29    5.10
   5  -1  -1   49.10    5.30
   5   1  -1   55.59    4.80
  -5   1   1   57.69    5.40
  -5   1   1   58.89    5.20
  -5   1   1   63.09    5.10
   5   1  -1   59.29    5.10
   5   1  -1   60.79    5.10
   5   1  -1   59.79    5.70
  -5   1   1   64.89    5.40
   5   1  -1   51.69    5.40
  -4  -1   1 1062.69   46.50
  -4  -1   1 1064.09   47.10
  -4  -1   1 1083.79   46.90
  -4  -1   1 1068.89   47.40
   4  -1  -1 1028.50   47.20
  -4  -1   1 1117.89   46.70
   4  -1  -1 1079.49   46.90
  -4  -1   1 1076.29   46.80
   4  -1  -1 1020.40   46.90
   4  -1  -1  965.10   46.40
   4  -1  -1 1043.50   47.10
  -4   1   1 1094.39   46.90
  -4   1   1 1085.19   47.00
   4   1  -1 1011.00   46.60
  -4   1   1 1079.29   46.80
   4   1  -1 1020.30   47.20
   4   1  -1 1068.99   47.20
  -4   1   1 1004.20   46.90
   4   1  -1 1063.29   46.80
  -4   1   1  982.30   47.60
   4   1  -1 1078.39   46.90
  -3  -1   1 1095.19   47.00
  -3  -1   1 1081.59   47.20
   3  -1  -1 1101.39   47.30
   3  -1  -1 1031.80   46.70
   3  -1  -1 1098.39   47.10
  -3  -1   1 1105.79   47.00
  -3  -1   1 1058.79   47.40
   3  -1  -1 1066.49   47.00
  -3  -1   1 1010.20   46.90
   3  -1  -1 1042.60   47.00
  -3  -1   1  980.50   46.80
  -3  -1   1 1086.59   46.80
  -3  -1   1 1062.99   46.80
   3  -1  -1 1066.19   47.30
   3   1  -1 1115.69   46.90
   3   1  -1  996.30   46.70
  -3   1   1 1142.19   47.10
   3   1  -1 1146.09   47.00
  -3   1   1  976.50   46.70
   3   1  -1 1053.59   46.90
  -3   1   1 1055.09   47.70
   3   1  -1 1059.29   47.30
   3   1  -1 1081.09   47.30
  -3   1   1 1121.09   47.20
  -3   1   1 1087.59   47.10
  -3   1   1 1072.39   47.00
   3   1  -1  996.10   46.80
  -2  -1   1   67.89    4.10
   2  -1  -1   62.79    3.60
  -2  -1   1   59.79    3.80
   2  -1  -1   66.29    4.20
  -2  -1   1   75.89    3.80
   2  -1  -1   74.89    4.00
   2  -1  -1   65.49    3.60
   2  -1  -1   62.59    3.90
  -2  -1   1   76.79    3.90
   2  -1  -1   70.79    4.10
  -2  -1   1   74.29    3.90
  -2  -1   1   67.69    4.50
   2  -1  -1   76.89    3.90
   2  -1  -1   66.89    3.90
   2  -1  -1   78.49    4.10
  -2  -1   1   76.59    4.10
   2  -1  -1   63.19    4.30
   2  -1  -1   75.09    4.20
   2  -1  -1   77.09    4.40
  -2  -1   1   71.29    4.00
  -2  -1   1   73.69    3.90
  -2  -1   1   66.39    4.20
   2   1  -1   70.49    4.40
   2   1  -1   68.59    3.80
   2   1  -1   69.19    3.90
  -2   1   1   71.59    4.30
  -2   1   1   65.89    3.70
   2   1  -1   74.29    4.30
  -2   1   1   68.09    3.90
  -2   1   1   67.59    4.30
  -2   1   1   72.29    4.10
   2   1  -1   84.19    4.00
   2   1  -1   73.59    4.10
   2   1  -1   68.69    3.80
   2   1  -1   78.19    3.90
  -2   1   1   64.49    3.70
   2   1  -1   72.29    4.00
  -2   1   1   72.49    4.10
  -2   1   1   70.99    4.00
   2   1  -1   67.29    3.80
  -2   1   1   78.69    4.20
  -1  -1   1 2843.92  119.19
   1  -1  -1 2681.23  118.99
  -1  -1   1 2936.71  119.29
  -1  -1   1 2587.14  119.39
   1  -1  -1 2724.53  118.99
  -1  -1   1 2887.31  119.19
   1  -1  -1 2843.82  119.29
   1  -1  -1 2806.82  119.59
   1  -1  -1 2553.24  118.99
   1  -1  -1 2877.11  119.29
   1  -1  -1 2688.13  119.19
  -1  -1   1 2933.11  119.19
   1  -1  -1 2783.12  119.29
  -1  -1   1 2918.71  119.09
   1  -1  -1 2485.75  119.09
   1  -1  -1 2749.02  119.39
  -1  -1   1 2669.03  119.89
  -1  -1   1 2833.62  119.09
  -1  -1   1 2700.03  119.09
   1   1  -1 2811.42  119.09
   1   1  -1 2638.84  119.39
  -1   1   1 2894.51  119.69
   1   1  -1 2719.73  119.49
   1   1  -1 2593.04  119.09
   1   1  -1 2836.82  119.09
  -1   1   1 2671.23  119.19
  -1   1   1 2750.92  119.09
   1   1  -1 2800.62  119.19
   1   1  -1 2912.91  119.29
  -1   1   1 2768.72  119.59
   1   1  -1 2718.73  119.39
  -1   1   1 2706.83  119.19
  -1   1   1 2809.52  118.99
  -1   1   1 2703.53  118.99
   1   1  -1 2830.82  119.19
  -1   1   1 2721.93  118.99
  -1   1   1 2834.72  119.79
  -1   1   1 2619.44  119.09
   1   1  -1 2845.02  119.19
   1   1  -1 2945.11  119.09
   1   1  -1 2517.85  119.49
   1   1  -1 2625.44  119.19
  -1   1   1 2547.25  119.09
   0  -1  -1 1692.33   72.09
   0  -1  -1 1735.93   72.09
   0  -1  -1 1746.83   71.99
   0  -1  -1 1719.83   71.99
   0  -1   1 1602.94   72.09
   0  -1   1 1708.73   71.99
   0  -1   1 1726.13   72.09
   0  -1   1 1601.84   72.19
   0  -1   1 1425.86   72.29
   0  -1   1 1561.74   71.99
   0  -1  -1 1631.34   72.29
   0  -1  -1 1706.23   72.59
   0  -1   1 1690.63   72.09
   0  -1   1 1488.45   71.89
   0  -1  -1 1753.52   72.09
   0  -1  -1 1743.83   72.49
   0   1   1 1698.63   72.09
   0   1  -1 1600.14   71.99
   0   1   1 1633.04   72.19
   0   1   1 1743.93   71.99
   0   1   1 1693.23   72.29
   0   1  -1 1604.14   71.99
   0   1   1 1704.93   71.99
   0   1  -1 1608.64   71.89
   0   1  -1 1441.26   72.29
   0   1   1 1663.63   72.19
   0   1   1 1791.92   72.39
   0   1   1 1753.32   72.09
   0   1   1 1757.52   72.09
   0   1  -1 1811.82   71.89
   0   1   1 1698.23   72.09
   0   1  -1 1674.23   72.19
   0   1  -1 1544.15   71.89
   0   1  -1 1641.24   71.99
   0   1  -1 1582.74   72.09
   0   1  -1 1697.03   71.99
   1  -1   1  108.99    5.50
   1  -1   1  107.49    5.50
  -1  -1  -1  117.89    5.70
   1  -1   1  117.89    5.60
  -1  -1  -1  114.39    5.60
   1  -1   1  105.89    5.40
   1  -1   1  114.19    5.70
   1  -1   1  109.09    5.50
  -1  -1  -1  117.59    5.40
  -1  -1  -1  120.89    5.60
   1  -1   1  110.19    5.50
  -1  -1  -1  118.69    5.60
   1  -1   1  111.79    5.40
  -1  -1  -1  110.79    5.80
  -1  -1  -1  118.49    5.60
   1  -1   1  105.29    5.50
   1  -1   1  114.69    5.20
  -1  -1  -1  119.99    5.30
  -1  -1  -1  115.59    5.60
  -1   1  -1  108.29    5.50
   1   1   1  119.29    5.50
   1   1   1  119.59    5.50
  -1   1  -1  111.69    5.60
   1   1   1  119.99    5.60
  -1   1  -1  107.49    5.50
  -1   1  -1   97.89    5.40
  -1   1  -1  106.39    5.20
   1   1   1  114.59    5.30
   1   1   1  118.19    5.60
   1   1   1  129.29    5.40
   1   1   1  123.79    5.90
   1   1   1  119.29    5.60
  -1   1  -1  105.89    5.50
   1   1   1  115.59    5.70
  -1   1  -1  111.99    5.40
  -1   1  -1  110.19    5.60
  -1   1  -1  118.39    5.60
   1   1   1  122.69    5.60
  -1   1  -1  101.69    5.80
   2  -1   1 1420.16   61.69
  -2  -1  -1 1395.86   61.79
  -2  -1  -1 1399.06   61.49
   2  -1   1 1477.15   61.89
   2  -1   1 1285.67   61.89
   2  -1   1 1418.66   61.79
   2  -1   1 1380.76   61.69
   2  -1   1 1363.86   61.79
  -2  -1  -1 1499.95   62.19
  -2  -1  -1 1436.86   61.59
  -2  -1  -1 1490.25   62.29
  -2  -1  -1 1463.65   61.99
  -2  -1  -1 1327.17   61.89
  -2  -1  -1 1396.66   61.59
   2  -1   1 1410.66   61.59
   2  -1   1 1435.06   61.99
  -2  -1  -1 1479.35   61.89
  -2  -1  -1 1386.86   61.79
   2  -1   1 1372.56   61.49
   2   1   1 1370.76   61.99
  -2   1  -1 1358.46   61.89
   2   1   1 1442.06   61.59
   2   1   1 1460.55   61.79
   2   1   1 1472.95   61.89
  -2   1  -1 1457.45   61.89
   2   1   1 1458.85   61.79
  -2   1  -1 1345.77   61.89
   2   1   1 1418.76   61.49
   2   1   1 1475.55   61.79
   2   1   1 1417.56   61.79
  -2   1  -1 1395.16   62.29
  -2   1  -1 1395.16   61.79
  -2   1  -1 1410.16   61.69
   2   1   1 1511.65   61.99
  -2   1  -1 1329.17   61.79
  -2   1  -1 1384.76   61.59
   3  -1   1 1812.82   79.49
  -3  -1  -1 1820.32   79.69
   3  -1   1 1844.72   80.29
   3  -1   1 1867.41   79.89
  -3  -1  -1 1802.32   79.59
   3  -1   1 1756.12   79.39
  -3  -1  -1 1810.02   79.49
  -3  -1  -1 1839.12   80.69
  -3  -1  -1 1924.21   80.19
   3  -1   1 1830.82   80.09
   3  -1   1 1854.71   80.09
   3  -1   1 1856.41   80.19
  -3  -1  -1 1839.82   79.99
   3   1   1 1933.91   80.09
   3   1   1 1786.72   79.69
   3   1   1 1870.41   80.29
  -3   1  -1 1828.22   79.59
  -3   1  -1 1834.22   80.19
  -3   1  -1 1836.62   80.09
   3   1   1 1824.32   79.99
  -3   1  -1 1813.32   80.79
   3   1   1 1871.71   80.29
  -3   1  -1 1797.52   79.79
   3   1   1 1755.02   79.49
  -3   1  -1 1770.32   79.49
   3   1   1 1789.92   79.99
  -4  -1  -1   56.19    4.70
  -4  -1  -1   54.49    4.20
  -4  -1  -1   58.29    5.60
   4  -1   1   54.99    4.80
   4  -1   1   56.39    3.70
  -4  -1  -1   60.29    4.60
  -4  -1  -1   57.39    3.90
  -4  -1  -1   63.69    5.00
   4  -1   1   61.29    4.80
   4  -1   1   55.49    5.00
   4  -1   1   54.19    4.40
   4  -1   1   48.00    4.50
   4   1   1   50.89    4.70
   4   1   1   54.99    4.50
  -4   1  -1   62.69    3.90
   4   1   1   49.99    4.90
  -4   1  -1   55.59    3.70
  -4   1  -1   47.90    4.50
  -4   1  -1   52.39    4.70
  -4   1  -1   59.29    4.90
  -4   1  -1   59.79    4.70
   4   1   1   61.59    4.60
  -4   1  -1   55.69    5.60
   4   1   1   55.69    4.60
  -5  -1  -1  183.88   10.30
  -5  -1  -1  183.78   11.60
  -5  -1  -1  180.48    9.60
   5  -1   1  183.18    9.10
   5  -1   1  189.58   10.50
   5  -1   1  173.88   10.80
   5  -1   1  177.68   10.40
   5  -1   1  186.38   10.60
  -5  -1  -1  197.48    9.80
  -5  -1  -1  171.98   10.50
  -5  -1  -1  193.38   10.60
   5  -1   1  184.38   10.10
   5   1   1  188.78   10.90
   5   1   1  194.78   10.40
   5   1   1  202.78   10.50
  -5   1  -1  182.28   11.70
   5   1   1  170.08   10.30
   5   1   1  180.18    9.20
  -5   1  -1  188.08   10.10
   5   1   1  183.48   10.20
  -5   1  -1  178.48    9.30
  -5   1  -1  179.08   10.40
  -5   1  -1  192.08   10.70
  -6  -1  -1  344.87   17.70
   6  -1   1  358.96   18.80
   6  -1   1  379.16   18.70
  -6  -1  -1  375.96   18.90
  -6  -1  -1  402.86   18.80
   6  -1   1  351.56   19.20
  -6  -1  -1  385.16   19.10
   6  -1   1  358.76   18.60
  -6  -1  -1  380.96   20.30
   6  -1   1  359.86   18.50
   6   1   1  375.16   19.20
  -6   1  -1  359.46   18.70
   6   1   1  389.26   18.80
  -6   1  -1  363.96   19.00
   6   1   1  364.76   18.70
   6   1   1  352.66   18.70
   6   1   1  364.86   18.70
  -6   1  -1  377.86   20.40
  -6   1  -1  362.16   18.80
  -6   1  -1  357.16   18.10
  -7  -1  -1   46.60    6.20
   7  -1   1   45.50    5.50
   7  -1   1   28.90    5.50
   7  -1   1   48.30    6.00
   7  -1   1   44.10    6.00
  -7  -1  -1   55.29    6.10
  -7  -1  -1   52.29    6.00
  -7  -1  -1   38.10    6.70
   7   1   1   42.30    5.50
  -7   1  -1   38.60    5.90
  -7   1  -1   32.00    6.10
   7   1   1   34.30    5.20
  -7   1  -1   51.99    6.30
   7   1   1   37.80    5.50
   7   1   1   34.50    5.30
   7   1   1   42.80    6.10
  -7   1  -1   47.30    5.60
   7  -2  -1   -2.00    3.10
   7  -2  -1    5.30    3.80
   7  -2  -1    5.90    3.30
  -7  -2   1   -0.30    3.10
   7  -2  -1    1.30    3.00
  -7  -2   1    5.30    3.80
   7   2  -1    4.20    3.20
  -7   2   1    3.90    3.30
  -7   2   1    3.50    3.20
   7   2  -1    6.90    3.60
   7   2  -1    6.50    3.50
   7   2  -1    2.40    3.10
  -7   2   1    7.50    3.30
  -7   2   1    2.20    4.10
  -7   2   1    3.30    4.80
   6  -2  -1  248.68   13.90
  -6  -2   1  262.97   14.40
  -6  -2   1  229.68   12.90
  -6  -2   1  264.17   13.10
   6  -2  -1  210.68   13.30
   6  -2  -1  247.98   13.60
  -6  -2   1  261.17   15.60
  -6  -2   1  259.77   14.00
   6  -2  -1  236.48   14.00
  -6   2   1  247.08   13.50
   6   2  -1  265.77   14.20
   6   2  -1  268.97   13.60
  -6   2   1  254.37   13.70
  -6   2   1  252.17   13.60
  -6   2   1  240.38   13.40
   6   2  -1  241.08   13.40
   6   2  -1  227.18   13.80
   6   2  -1  241.18   13.00
   5  -2  -1  760.32   34.80
  -5  -2   1  752.32   34.50
  -5  -2   1  750.92   35.20
  -5  -2   1  756.22   35.00
   5  -2  -1  733.83   34.10
   5  -2  -1  730.23   35.10
  -5  -2   1  749.03   33.90
   5  -2  -1  787.42   34.70
  -5  -2   1  788.52   34.30
  -5  -2   1  718.03   34.30
   5  -2  -1  773.12   35.00
  -5   2   1  749.92   34.60
   5   2  -1  728.63   34.40
   5   2  -1  738.13   34.90
  -5   2   1  790.42   34.90
   5   2  -1  766.82   34.50
   5   2  -1  754.72   35.10
  -5   2   1  733.33   34.50
   5   2  -1  770.12   34.50
  -5   2   1  783.62   34.60
   4  -2  -1  422.36   21.00
   4  -2  -1  434.36   20.70
  -4  -2   1  431.86   20.10
   4  -2  -1  437.56   20.20
  -4  -2   1  453.05   20.30
  -4  -2   1  441.56   20.90
   4  -2  -1  447.26   20.90
   4  -2  -1  432.26   20.60
  -4  -2   1  446.46   20.50
  -4  -2   1  462.35   20.60
  -4  -2   1  445.06   21.10
   4   2  -1  463.35   20.60
  -4   2   1  459.85   20.80
  -4   2   1  461.45   20.70
  -4   2   1  426.56   20.60
   4   2  -1  411.46   20.40
   4   2  -1  441.66   20.40
   4   2  -1  436.46   20.90
  -4   2   1  442.16   21.60
   4   2  -1  427.16   20.90
  -4   2   1  429.16   20.50
  -3  -2   1 1525.55   67.39
  -3  -2   1 1586.54   67.39
   3  -2  -1 1648.73   67.89
   3  -2  -1 1597.14   68.09
   3  -2  -1 1485.85   67.39
   3  -2  -1 1410.66   67.19
  -3  -2   1 1600.44   67.69
  -3  -2   1 1612.24   67.79
  -3  -2   1 1605.84   68.09
   3  -2  -1 1548.35   67.99
  -3  -2   1 1584.34   67.99
  -3  -2   1 1429.16   67.59
   3  -2  -1 1598.74   67.79
  -3  -2   1 1588.74   67.49
  -3   2   1 1574.64   67.89
  -3   2   1 1476.45   67.39
  -3   2   1 1587.94   67.79
   3   2  -1 1550.64   67.59
  -3   2   1 1521.15   67.69
   3   2  -1 1648.34   67.69
  -3   2   1 1526.15   68.39
   3   2  -1 1597.64   68.09
   3   2  -1 1444.76   67.59
  -3   2   1 1430.66   67.29
   3   2  -1 1528.65   68.09
   3   2  -1 1434.16   67.29
   3   2  -1 1658.43   67.59
  -3   2   1 1506.45   67.69
   2  -2  -1 4419.06  183.18
  -2  -2   1 4416.76  182.78
   2  -2  -1 3945.41  182.38
   2  -2  -1 4339.67  182.48
   2  -2  -1 4338.27  182.98
  -2  -2   1 4200.78  182.58
   2  -2  -1 3788.42  182.78
   2  -2  -1 3911.71  182.48
   2  -2  -1 4255.87  182.58
  -2  -2   1 4478.75  182.68
   2  -2  -1 4545.15  182.68
  -2  -2   1 3973.20  182.48
  -2  -2   1 4230.28  182.78
   2  -2  -1 4297.57  182.78
  -2  -2   1 4322.17  182.78
  -2  -2   1 4328.47  182.38
  -2  -2   1 4407.26  182.38
  -2  -2   1 4460.85  182.88
   2  -2  -1 3939.31  182.38
   2  -2  -1 3909.21  182.48
  -2   2   1 3972.40  182.28
   2   2  -1 4399.56  182.88
  -2   2   1 3923.11  182.78
  -2   2   1 4387.36  182.58
   2   2  -1 4330.07  183.38
   2   2  -1 4558.14  182.48
   2   2  -1 4187.58  182.48
  -2   2   1 4118.69  182.58
  -2   2   1 4083.49  182.68
   2   2  -1 4018.10  182.78
   2   2  -1 4261.17  182.78
   2   2  -1 4276.07  182.48
  -2   2   1 4121.89  182.68
  -2   2   1 4226.68  182.78
  -2   2   1 4104.19  182.48
   2   2  -1 4464.85  182.38
  -2   2   1 4492.75  182.68
   2   2  -1 4277.07  182.98
   2   2  -1 3862.21  182.78
   2   2  -1 4230.28  182.58
   2   2  -1 4124.89  182.38
  -2   2   1 4219.58  182.88
   1  -2  -1  208.58    9.80
  -1  -2   1  211.58    9.40
  -1  -2   1  222.68    9.60
   1  -2  -1  212.58    9.60
  -1  -2   1  206.48    9.70
  -1  -2   1  214.38    9.60
   1  -2  -1  215.48    9.50
  -1  -2   1  211.38    9.60
   1  -2  -1  214.88    9.40
   1  -2  -1  204.78    9.60
  -1  -2   1  175.58    9.20
   1  -2  -1  215.48    9.60
   1  -2  -1  207.28    9.60
  -1  -2   1  215.28    9.30
   1  -2  -1  189.78    9.60
   1  -2  -1  192.88    9.60
   1  -2  -1  212.18    9.60
  -1   2   1  205.98    9.50
   1   2  -1  210.08    9.80
   1   2  -1  218.88    9.40
   1   2  -1  202.08    9.60
  -1   2   1  216.28    9.60
  -1   2   1  206.18    9.60
   1   2  -1  215.68    9.60
  -1   2   1  198.08    9.70
   1   2  -1  207.58    9.60
   1   2  -1  217.28    9.40
   1   2  -1  202.78    9.70
  -1   2   1  211.48    9.40
   1   2  -1  218.78    9.20
   1   2  -1  195.18    9.60
   1   2  -1  221.78    9.60
  -1   2   1  201.68    9.70
  -1   2   1  213.88    9.50
   1   2  -1  213.58    9.70
   1   2  -1  203.28    9.20
  -1   2   1  213.38    9.60
   0  -2  -1 1574.54   66.99
   0  -2  -1 1541.75   67.09
   0  -2  -1 1607.34   66.99
   0  -2  -1 1578.84   66.99
   0  -2   1 1540.55   66.89
   0  -2   1 1517.95   66.89
   0  -2   1 1535.85   66.99
   0  -2   1 1486.45   66.69
   0  -2  -1 1588.64   66.99
   0  -2   1 1514.95   66.89
   0  -2  -1 1603.24   67.09
   0  -2  -1 1544.75   67.09
   0  -2   1 1510.35   66.79
   0  -2  -1 1523.35   66.89
   0  -2  -1 1492.15   66.79
   0  -2  -1 1603.44   67.09
   0   2   1 1566.94   66.99
   0   2   1 1664.23   67.09
   0   2   1 1621.74   67.09
   0   2   1 1515.85   67.09
   0   2   1 1538.75   67.19
   0   2  -1 1468.55   66.79
   0   2  -1 1509.55   66.99
   0   2   1 1608.74   66.79
   0   2  -1 1458.15   66.69
   0   2   1 1610.14   67.09
   0   2  -1 1549.45   66.99
   0   2  -1 1505.55   66.89
   0   2  -1 1510.85   66.89
   0   2  -1 1509.15   66.89
   0   2  -1 1521.05   67.09
   0   2   1 1492.15   66.79
   0   2  -1 1546.45   66.69
   0   2   1 1523.65   66.89
   0   2  -1 1435.06   67.19
   0   2   1 1584.64   67.09
   0   2   1 1604.94   66.99
   0   2  -1 1537.75   66.79
  -1  -2  -1 3750.02  156.68
   1  -2   1 3388.16  155.98
  -1  -2  -1 3873.81  156.08
  -1  -2  -1 3950.90  156.28
   1  -2   1 3306.17  155.88
  -1  -2  -1 3656.63  156.98
   1  -2   1 3402.36  156.28
   1  -2   1 3439.26  156.28
  -1  -2  -1 3828.72  156.68
   1  -2   1 3624.24  156.38
  -1  -2  -1 3775.42  156.08
  -1  -2  -1 3665.13  156.48
  -1  -2  -1 3795.12  156.38
   1  -2   1 3503.95  156.38
  -1  -2  -1 3909.21  157.48
  -1  -2  -1 3872.51  157.28
  -1  -2  -1 4056.99  156.18
   1  -2   1 3440.76  156.18
   1  -2   1 3217.68  156.18
   1  -2   1 3470.75  155.98
   1  -2   1 3310.87  156.18
  -1   2  -1 3282.37  157.38
  -1   2  -1 3644.34  156.48
   1   2   1 3865.51  156.58
  -1   2  -1 3449.16  156.08
   1   2   1 3590.44  156.18
   1   2   1 3832.12  156.48
   1   2   1 3989.90  157.08
  -1   2  -1 3536.65  156.28
  -1   2  -1 3399.06  156.08
   1   2   1 3774.22  156.98
  -1   2  -1 3238.58  155.98
  -1   2  -1 3480.75  155.98
   1   2   1 3652.33  156.48
   1   2   1 3683.43  156.48
   1   2   1 3737.03  156.98
  -1   2  -1 3359.46  155.88
  -1   2  -1 3409.96  156.08
  -1   2  -1 3316.07  155.88
   1   2   1 3843.12  156.38
   1   2   1 4025.10  156.68
  -1   2  -1 3195.58  156.08
  -2  -2  -1 1413.66   61.09
   2  -2   1 1269.07   60.99
  -2  -2  -1 1464.05   61.29
  -2  -2  -1 1530.05   61.79
   2  -2   1 1373.16   61.39
   2  -2   1 1333.37   61.19
   2  -2   1 1391.36   61.29
   2  -2   1 1348.77   60.99
  -2  -2  -1 1408.96   61.29
   2  -2   1 1326.97   60.99
  -2  -2  -1 1493.05   61.39
  -2  -2  -1 1374.86   61.39
   2  -2   1 1440.26   61.39
  -2  -2  -1 1497.35   61.89
  -2  -2  -1 1425.26   61.09
  -2   2  -1 1415.06   61.29
   2   2   1 1447.16   61.69
   2   2   1 1449.85   61.39
  -2   2  -1 1336.27   61.29
   2   2   1 1304.67   61.39
   2   2   1 1548.45   61.39
   2   2   1 1442.46   61.39
   2   2   1 1444.56   61.09
  -2   2  -1 1359.46   61.29
  -2   2  -1 1326.47   60.99
  -2   2  -1 1368.56   61.79
  -2   2  -1 1233.68   61.29
   2   2   1 1422.36   61.29
  -2   2  -1 1397.46   61.39
   2   2   1 1495.45   61.39
  -2   2  -1 1396.96   61.19
  -3  -2  -1   54.29    4.60
  -3  -2  -1   41.10    3.00
   3  -2   1   46.20    3.10
  -3  -2  -1   43.80    3.50
   3  -2   1   40.30    3.80
   3  -2   1   37.60    3.70
   3  -2   1   43.90    3.50
   3  -2   1   48.90    3.90
   3  -2   1   46.90    3.70
  -3  -2  -1   47.40    3.70
  -3  -2  -1   48.70    3.30
  -3   2  -1   48.00    3.90
  -3   2  -1   45.40    3.80
   3   2   1   50.69    4.00
   3   2   1   41.60    3.50
  -3   2  -1   47.10    3.30
  -3   2  -1   49.10    3.90
   3   2   1   51.29    3.80
   3   2   1   41.00    3.80
   3   2   1   48.60    3.70
  -3   2  -1   47.30    4.50
  -4  -2  -1 1562.44   65.49
  -4  -2  -1 1520.55   65.29
  -4  -2  -1 1480.85   66.29
   4  -2   1 1459.65   65.19
  -4  -2  -1 1491.25   64.69
   4  -2   1 1485.75   65.39
   4  -2   1 1500.35   65.39
   4  -2   1 1453.35   65.49
  -4  -2  -1 1517.35   65.79
   4  -2   1 1481.85   64.59
   4  -2   1 1348.97   64.39
  -4  -2  -1 1449.65   64.99
  -4   2  -1 1396.66   65.39
   4   2   1 1523.05   65.49
   4   2   1 1479.15   65.69
  -4   2  -1 1500.25   65.59
  -4   2  -1 1437.36   65.39
   4   2   1 1484.15   65.59
   4   2   1 1480.05   65.39
   4   2   1 1503.25   65.39
  -4   2  -1 1438.06   66.39
  -4   2  -1 1466.55   65.19
  -4   2  -1 1555.84   64.89
   5  -2   1  758.82   34.30
   5  -2   1  732.73   33.00
   5  -2   1  738.93   34.40
  -5  -2  -1  764.72   33.70
  -5  -2  -1  752.62   33.40
  -5  -2  -1  761.92   35.50
   5  -2   1  762.92   34.10
   5  -2   1  745.13   34.30
  -5  -2  -1  752.62   34.60
  -5  -2  -1  772.42   34.40
  -5  -2  -1  773.22   34.20
   5  -2   1  751.02   34.70
  -5   2  -1  718.33   35.40
   5   2   1  698.63   34.10
  -5   2  -1  750.22   34.50
   5   2   1  718.53   34.30
   5   2   1  740.93   34.20
  -5   2  -1  768.02   34.50
  -5   2  -1  730.63   33.90
  -5   2  -1  717.23   34.20
   5   2   1  782.92   34.30
   5   2   1  682.83   34.50
   6  -2   1   37.70    5.00
  -6  -2  -1   43.80    5.40
   6  -2   1   28.80    4.40
   6  -2   1   31.80    4.60
   6  -2   1   42.50    5.40
   6  -2   1   33.90    5.30
  -6  -2  -1   33.90    5.00
  -6  -2  -1   37.70    4.10
  -6  -2  -1   39.50    6.10
  -6  -2  -1   45.40    5.20
   6   2   1   35.90    4.70
  -6   2  -1   28.40    5.50
   6   2   1   24.00    4.60
  -6   2  -1   36.00    5.10
   6   2   1   37.90    5.00
  -6   2  -1   40.10    5.50
   6   2   1   44.10    5.10
  -6   2  -1   30.90    4.60
   6   2   1   38.90    5.00
  -6   2  -1   31.70    4.40
  -7  -2  -1  185.08   11.70
  -7  -2  -1  187.38   11.40
  -7  -2  -1  197.98   13.40
   7  -2   1  178.38   12.20
  -7  -2  -1  162.18   12.70
   7  -2   1  181.98   11.60
   7  -2   1  178.88   11.80
  -7   2  -1  178.18   13.00
  -7   2  -1  184.38   11.50
   7   2   1  185.88   11.40
   7   2   1  190.88   11.70
   7   2   1  194.48   12.10
   7   2   1  170.68   11.40
   7   2   1  185.48   11.50
  -7   2  -1  194.88   12.00
  -7   2  -1  164.38   11.70
   7  -3  -1   38.80    5.60
   7  -3  -1   49.80    6.60
   7  -3  -1   50.39    6.20
   7  -3  -1   41.60    6.00
  -7  -3   1   52.39    6.80
  -7  -3   1   32.20    5.40
   7  -3  -1   38.20    6.00
  -7  -3   1   38.40    4.90
  -7   3   1   41.20    5.30
   7   3  -1   35.20    5.70
  -7   3   1   37.30    5.40
   7   3  -1   40.60    6.00
  -7   3   1   40.20    6.90
  -7   3   1   43.20    6.00
   7   3  -1   41.70    5.50
   7   3  -1   48.30    5.50
  -7   3   1   47.20    5.80
  -6  -3   1   27.70    4.60
   6  -3  -1   40.40    5.00
   6  -3  -1   39.40    5.10
   6  -3  -1   30.60    4.90
   6  -3  -1   25.70    4.30
  -6  -3   1   34.50    5.20
  -6  -3   1   28.50    4.00
   6  -3  -1   31.30    4.30
  -6  -3   1   35.20    4.20
   6   3  -1   41.70    5.20
   6   3  -1   31.60    4.10
   6   3  -1   36.00    4.90
  -6   3   1   35.10    4.90
  -6   3   1   37.70    4.60
  -6   3   1   23.30    4.40
   6   3  -1   35.90    4.60
   6   3  -1   29.40    4.40
   5  -3  -1   19.10    3.40
  -5  -3   1   11.30    3.40
   5  -3  -1   18.00    3.50
  -5  -3   1   23.20    3.70
  -5  -3   1   13.90    3.00
  -5  -3   1   23.40    3.20
   5  -3  -1   13.40    3.20
   5  -3  -1   12.40    3.00
  -5  -3   1   16.70    2.80
  -5  -3   1   14.30    2.50
  -5   3   1   10.20    3.00
   5   3  -1   13.90    2.80
  -5   3   1   17.00    3.40
  -5   3   1   16.60    3.40
  -5   3   1   12.40    2.80
   5   3  -1   19.90    3.60
   5   3  -1   20.40    3.60
   5   3  -1   15.30    3.10
   5   3  -1    9.10    2.60
  -4  -3   1  249.88   11.60
  -4  -3   1  255.37   12.20
  -4  -3   1  229.38   12.50
  -4  -3   1  251.37   12.70
   4  -3  -1  244.38   12.50
   4  -3  -1  246.08   12.40
  -4  -3   1  253.47   12.10
   4  -3  -1  243.38   12.30
  -4  -3   1  262.57   11.80
   4  -3  -1  235.18   12.50
   4   3  -1  229.58   12.50
   4   3  -1  232.78   12.50
   4   3  -1  252.67   12.10
  -4   3   1  225.18   13.00
  -4   3   1  228.68   12.00
  -4   3   1  228.08   11.60
  -4   3   1  241.78   12.40
  -4   3   1  258.97   12.40
   4   3  -1  244.48   12.00
   4   3  -1  243.28   12.20
   4   3  -1  252.37   12.00
  -4   3   1  252.47   12.50
  -3  -3   1  249.58   11.80
   3  -3  -1  250.57   11.80
  -3  -3   1  261.67   11.60
  -3  -3   1  246.38   11.00
  -3  -3   1  239.58   11.30
   3  -3  -1  227.48   11.70
   3  -3  -1  222.28   11.00
   3  -3  -1  241.78   11.50
  -3  -3   1  238.68   11.00
   3  -3  -1  256.27   11.70
  -3   3   1  248.08   11.70
   3   3  -1  228.28   10.90
  -3   3   1  237.08   11.30
   3   3  -1  241.18   11.30
  -3   3   1  223.18   12.00
   3   3  -1  238.88   11.80
  -3   3   1  252.67   11.70
   3   3  -1  249.58   11.30
  -3   3   1  216.18   11.10
   3   3  -1  224.98   11.70
   3   3  -1  220.58   11.40
  -3   3   1  240.68   11.70
   3   3  -1  229.38   11.20
  -3   3   1  216.88   11.20
  -2  -3   1    5.00    1.40
  -2  -3   1    2.20    1.00
  -2  -3   1    1.60    1.40
  -2  -3   1    0.80    1.10
   2  -3  -1    4.10    1.60
   2  -3  -1    1.10    1.50
   2  -3  -1    3.40    1.30
  -2  -3   1    1.40    1.50
   2  -3  -1    0.70    1.10
   2  -3  -1    1.90    1.00
  -2  -3   1    1.60    0.90
  -2  -3   1    1.80    1.20
   2  -3  -1    4.10    1.50
   2  -3  -1    2.40    1.10
   2  -3  -1   -0.80    1.30
   2  -3  -1    2.00    1.20
   2   3  -1    4.90    1.10
  -2   3   1    2.50    0.90
   2   3  -1    2.30    1.10
   2   3  -1    0.70    1.50
  -2   3   1    0.30    1.00
   2   3  -1    0.60    1.40
  -2   3   1    0.90    1.90
   2   3  -1    0.80    1.00
   2   3  -1    2.50    1.30
   2   3  -1    3.30    1.10
  -2   3   1    3.00    1.40
  -2   3   1    2.40    1.60
   2   3  -1    1.70    1.50
  -2   3   1    1.10    1.30
  -2   3   1    3.80    1.40
  -2   3   1    1.70    1.50
   2   3  -1    3.00    1.10
  -1  -3   1 1830.42   80.79
  -1  -3   1 1832.32   80.79
   1  -3  -1 1827.12   80.79
   1  -3  -1 1807.62   80.79
   1  -3  -1 1850.51   80.49
   1  -3  -1 1829.82   80.79
  -1  -3   1 1966.60   80.79
  -1  -3   1 1836.22   80.99
  -1  -3   1 2005.20   80.89
  -1  -3   1 1821.12   80.39
   1  -3  -1 1772.52   80.79
   1  -3  -1 1746.53   80.79
   1  -3  -1 1865.01   80.69
   1  -3  -1 1923.81   80.79
  -1  -3   1 1928.71   80.79
   1  -3  -1 1808.62   80.69
   1  -3  -1 1907.01   80.49
   1  -3  -1 1893.41   80.79
  -1   3   1 1786.42   80.89
  -1   3   1 1849.42   80.79
   1   3  -1 1865.01   80.99
   1   3  -1 1817.12   80.39
  -1   3   1 1883.01   80.59
  -1   3   1 1835.52   80.79
   1   3  -1 1903.11   80.79
  -1   3   1 1849.02   80.69
  -1   3   1 1870.61   80.79
  -1   3   1 1899.01   80.49
  -1   3   1 1822.12   80.79
   1   3  -1 1976.70   80.69
   1   3  -1 1759.02   80.39
  -1   3   1 1820.92   80.89
   1   3  -1 1833.42   80.79
   1   3  -1 1967.10   80.89
   1   3  -1 1959.30   80.69
   1   3  -1 1866.81   80.79
   1   3  -1 1899.71   80.89
  -1   3   1 1851.11   80.79
   1   3  -1 1834.52   80.89
  -1   3   1 1797.62   80.79
   0  -3   1   79.39    4.00
   0  -3   1   85.49    3.80
   0  -3   1   77.59    4.00
   0  -3   1   80.79    3.80
   0  -3  -1   81.59    4.00
   0  -3   1   80.99    4.20
   0  -3  -1   82.89    4.10
   0  -3  -1   86.89    4.40
   0  -3  -1   79.79    4.30
   0  -3  -1   84.79    4.40
   0  -3  -1   76.59    4.60
   0  -3  -1   85.69    4.60
   0  -3   1   67.89    4.50
   0  -3  -1   86.39    4.40
   0  -3   1   82.59    4.20
   0  -3  -1   79.19    4.40
   0  -3   1   80.79    4.40
   0  -3  -1   83.19    4.50
   0  -3   1   89.09    4.40
   0  -3  -1   90.89    4.20
   0  -3   1   79.59    4.60
   0   3  -1   77.69    3.80
   0   3   1   87.19    4.50
   0   3  -1   77.29    4.20
   0   3  -1   83.79    4.60
   0   3   1   79.19    4.60
   0   3  -1   82.49    4.00
   0   3   1   86.19    4.70
   0   3   1   77.79    4.10
   0   3  -1   76.69    4.30
   0   3  -1   81.29    4.50
   0   3   1   86.69    5.00
   0   3  -1   75.59    4.60
   0   3  -1   79.59    3.80
   0   3   1   80.79    4.40
   0   3  -1   81.99    4.20
   0   3   1   78.09    4.40
   0   3  -1   76.49    4.00
   0   3   1   89.39    4.10
   0   3   1   83.39    4.10
   0   3   1   80.79    4.30
   0   3   1   85.09    4.40
   0   3  -1   81.99    4.50
   1  -3   1    0.50    1.00
  -1  -3  -1    3.50    1.20
   1  -3   1    0.70    1.00
   1  -3   1    0.10    1.10
  -1  -3  -1    0.50    1.20
  -1  -3  -1    0.60    1.10
   1  -3   1    2.50    1.00
   1  -3   1   -0.60    1.20
  -1  -3  -1    1.20    1.30
  -1  -3  -1    0.60    1.20
  -1  -3  -1   -0.10    1.10
  -1  -3  -1    1.20    1.10
   1  -3   1   -0.70    1.00
   1  -3   1    2.20    1.20
  -1  -3  -1    0.30    1.20
  -1  -3  -1    0.40    1.30
  -1  -3  -1    1.30    1.20
   1  -3   1    1.20    0.90
   1  -3   1    6.80    1.40
  -1  -3  -1    0.50    1.10
   1  -3   1    0.60    1.20
   1   3   1    1.00    1.00
  -1   3  -1   -0.90    0.90
   1   3   1    2.10    1.20
   1   3   1    2.30    1.20
  -1   3  -1    1.50    1.10
   1   3   1    1.70    1.10
  -1   3  -1    0.40    1.20
  -1   3  -1    1.50    1.20
  -1   3  -1    2.90    1.30
  -1   3  -1    1.90    1.10
  -1   3  -1    1.30    1.20
   1   3   1    1.70    1.20
   1   3   1   -0.60    1.30
   1   3   1    2.60    1.20
   1   3   1    4.60    1.30
  -1   3  -1    1.90    1.10
   1   3   1    0.30    1.20
   1   3   1    0.30    1.20
  -1   3  -1    1.40    1.00
  -1   3  -1    1.90    0.90
   2  -3   1  268.07   13.60
   2  -3   1  289.37   13.80
  -2  -3  -1  315.07   14.00
  -2  -3  -1  325.57   14.50
   2  -3   1  309.57   14.10
   2  -3   1  299.57   14.00
  -2  -3  -1  314.87   14.00
  -2  -3  -1  311.37   13.90
  -2  -3  -1  310.47   14.10
  -2  -3  -1  319.87   14.10
  -2  -3  -1  302.47   14.20
   2  -3   1  293.77   14.20
   2   3   1  306.87   14.20
   2   3   1  333.87   14.50
  -2   3  -1  301.97   14.10
  -2   3  -1  309.97   14.20
   2   3   1  334.87   14.20
  -2   3  -1  280.87   13.70
  -2   3  -1  276.47   13.70
   2   3   1  298.87   13.80
   2   3   1  307.17   14.00
   2   3   1  304.47   14.30
  -2   3  -1  287.77   14.00
  -2   3  -1  277.77   14.50
  -2   3  -1  310.87   14.10
   2   3   1  306.67   14.00
   2   3   1  314.77   14.10
  -2   3  -1  291.27   14.10
   2   3   1  312.27   14.10
  -3  -3  -1  375.06   17.50
  -3  -3  -1  348.77   16.30
  -3  -3  -1  383.16   16.80
   3  -3   1  357.06   16.80
   3  -3   1  353.56   16.30
   3  -3   1  344.97   17.10
  -3  -3  -1  365.66   16.60
  -3  -3  -1  377.36   16.90
   3  -3   1  319.37   16.30
   3  -3   1  362.36   16.60
  -3  -3  -1  355.16   17.00
   3  -3   1  361.56   17.00
   3   3   1  367.86   17.10
  -3   3  -1  364.66   17.00
   3   3   1  365.86   16.80
  -3   3  -1  365.36   16.70
  -3   3  -1  364.36   16.90
  -3   3  -1  352.16   17.60
   3   3   1  365.16   16.80
  -3   3  -1  349.96   16.90
   3   3   1  366.76   17.10
   3   3   1  358.56   16.90
  -4  -3  -1   26.20    3.10
   4  -3   1   19.00    2.20
  -4  -3  -1   26.00    2.90
  -4  -3  -1   20.90    3.10
  -4  -3  -1   23.60    3.80
   4  -3   1   18.30    3.00
   4  -3   1   24.60    3.50
   4  -3   1   17.90    3.00
  -4  -3  -1   23.30    3.50
   4  -3   1   19.10    2.80
   4  -3   1   19.60    3.00
  -4   3  -1   20.40    2.60
  -4   3  -1   19.40    3.10
   4   3   1   26.80    3.40
   4   3   1   26.10    3.30
   4   3   1   21.60    3.10
  -4   3  -1   18.80    3.00
   4   3   1   23.20    3.00
   4   3   1   25.70    3.40
  -4   3  -1   18.00    3.00
  -4   3  -1   20.20    3.80
  -5  -3  -1   79.59    6.00
   5  -3   1   68.19    6.40
  -5  -3  -1   71.69    5.20
  -5  -3  -1   79.59    7.20
   5  -3   1   59.19    5.60
   5  -3   1   72.09    6.00
  -5  -3  -1   79.39    5.70
   5  -3   1   83.39    6.10
   5  -3   1   75.69    4.50
  -5  -3  -1   70.49    6.20
  -5   3  -1   61.49    6.90
  -5   3  -1   63.89    6.00
  -5   3  -1   69.69    5.70
   5   3   1   72.99    5.90
  -5   3  -1   70.69    6.60
  -5   3  -1   73.79    6.20
   5   3   1   69.39    6.10
   5   3   1   72.59    5.70
   5   3   1   69.69    5.80
   5   3   1   67.19    6.00
  -5   3  -1   77.89    5.70
  -6  -3  -1   75.39    7.00
  -6  -3  -1   72.09    5.70
   6  -3   1   79.19    7.50
   6  -3   1   67.29    6.30
  -6  -3  -1   78.79    7.20
   6  -3   1   71.29    6.90
  -6  -3  -1   65.99    7.60
   6  -3   1   67.39    6.70
  -6   3  -1   72.79    6.90
   6   3   1   83.39    7.60
   6   3   1   75.79    6.50
   6   3   1   72.79    6.60
  -6   3  -1   76.79    6.50
   6   3   1   90.09    6.80
  -6   3  -1   68.29    6.30
  -6   3  -1   74.59    8.00
  -6   3  -1   81.39    7.50
   6   3   1   75.69    6.70
   7  -3   1   12.80    4.40
   7  -3   1   12.50    4.10
  -7  -3  -1   14.90    4.10
  -7  -3  -1    7.60    4.60
   7  -3   1    9.80    4.00
  -7  -3  -1   13.70    3.80
  -7  -3  -1   15.90    5.10
   7   3   1    9.10    3.60
   7   3   1    8.60    3.80
  -7   3  -1    5.90    3.60
  -7   3  -1    9.10    4.80
   7   3   1   13.80    4.00
  -7   3  -1    9.90    4.10
  -7   3  -1   12.20    4.30
  -7   3  -1   13.60    3.80
   7   3   1   14.10    4.10
   7   3   1   11.40    3.80
  -7  -4   1    8.60    4.10
   7  -4  -1   11.80    3.90
  -7  -4   1    5.90    3.70
   7  -4  -1    0.00    3.30
   7  -4  -1   10.70    3.80
  -7  -4   1    6.90    3.10
   7  -4  -1    4.90    3.70
  -7   4   1    4.90    3.70
  -7   4   1    3.70    3.50
   7   4  -1    7.50    3.70
   7   4  -1    8.70    3.90
  -7   4   1   13.40    5.30
  -7   4   1    3.40    3.60
   7   4  -1    5.10    3.10
  -7   4   1    4.60    3.00
   7   4  -1    5.00    3.30
   6  -4  -1   51.49    6.00
   6  -4  -1   62.29    6.80
  -6  -4   1   56.99    6.50
   6  -4  -1   63.59    6.40
   6  -4  -1   68.19    6.80
  -6  -4   1   62.79    6.60
  -6  -4   1   55.39    5.50
  -6  -4   1   64.19    5.60
   6  -4  -1   59.49    5.70
  -6   4   1   52.89    5.60
   6   4  -1   55.59    6.10
   6   4  -1   76.89    6.30
   6   4  -1   56.89    5.60
   6   4  -1   59.59    5.80
  -6   4   1   65.79    6.60
  -6   4   1   63.19    6.30
   6   4  -1   59.19    6.40
  -6   4   1   72.99    6.70
  -5  -4   1  195.78   11.30
  -5  -4   1  201.38   10.70
  -5  -4   1  199.98   10.60
   5  -4  -1  197.58   11.10
   5  -4  -1  190.78   10.50
   5  -4  -1  184.48   11.30
   5  -4  -1  208.28   11.30
  -5  -4   1  188.28   11.10
  -5  -4   1  197.88   10.20
   5  -4  -1  217.68   11.20
   5   4  -1  202.48   11.40
  -5   4   1  199.98   11.10
   5   4  -1  192.88   10.50
  -5   4   1  196.38   10.60
   5   4  -1  193.78   10.60
  -5   4   1  192.58   11.20
   5   4  -1  189.38   11.30
   5   4  -1  184.38   10.70
  -5   4   1  221.08   11.30
  -4  -4   1   52.59    4.70
   4  -4  -1   55.09    5.00
  -4  -4   1   52.39    4.30
   4  -4  -1   50.79    4.50
  -4  -4   1   58.89    5.10
   4  -4  -1   52.09    4.10
  -4  -4   1   54.79    4.10
  -4  -4   1   52.99    3.80
   4  -4  -1   53.69    4.60
   4  -4  -1   57.79    4.80
   4   4  -1   55.79    4.20
  -4   4   1   59.19    5.60
  -4   4   1   48.80    4.10
   4   4  -1   52.09    4.20
   4   4  -1   55.89    4.90
  -4   4   1   56.79    4.90
  -4   4   1   45.70    4.10
   4   4  -1   51.89    4.10
  -4   4   1   48.90    4.60
   4   4  -1   58.79    5.20
  -4   4   1   45.80    4.50
   4   4  -1   48.10    4.50
   3  -4  -1   97.79    5.80
  -3  -4   1   96.89    5.60
   3  -4  -1   83.19    5.20
   3  -4  -1   95.99    5.60
   3  -4  -1   99.79    5.30
   3  -4  -1  105.39    6.00
  -3  -4   1   94.09    5.90
  -3  -4   1   97.59    5.30
   3  -4  -1  103.39    6.00
  -3  -4   1   99.59    5.00
  -3  -4   1   91.89    4.90
  -3  -4   1   97.09    5.80
  -3   4   1  100.79    5.90
  -3   4   1   85.19    5.20
  -3   4   1   82.39    5.50
   3   4  -1  100.29    5.30
   3   4  -1   95.99    5.30
   3   4  -1  105.89    5.30
   3   4  -1   86.79    5.60
  -3   4   1   84.79    6.20
  -3   4   1   81.39    5.00
   3   4  -1   97.09    5.90
   3   4  -1  101.99    6.10
  -3   4   1  102.09    5.90
  -3   4   1   92.29    6.00
  -2  -4   1 1059.39   45.20
   2  -4  -1  955.60   45.00
   2  -4  -1  926.21   45.20
   2  -4  -1 1023.80   45.30
  -2  -4   1 1099.59   44.70
  -2  -4   1 1047.90   45.10
  -2  -4   1 1064.19   45.20
   2  -4  -1 1003.20   45.10
  -2  -4   1 1135.19   45.10
   2  -4  -1 1030.80   45.20
  -2  -4   1 1041.10   45.50
   2  -4  -1  939.61   44.70
  -2  -4   1 1071.19   44.80
   2  -4  -1 1025.00   44.90
  -2  -4   1 1093.09   45.20
   2   4  -1 1028.40   45.30
   2   4  -1 1073.39   44.80
   2   4  -1 1041.10   45.40
  -2   4   1  938.11   44.70
   2   4  -1 1032.20   44.70
   2   4  -1  958.40   44.70
   2   4  -1 1026.80   44.90
  -2   4   1 1022.90   45.20
   2   4  -1  969.00   45.20
  -2   4   1  986.70   45.20
   2   4  -1 1066.79   44.80
  -2   4   1  978.30   44.60
   2   4  -1  999.90   44.70
  -2   4   1 1022.10   45.20
   2   4  -1 1074.59   45.10
  -2   4   1 1052.29   45.20
  -1  -4   1   36.30    2.90
  -1  -4   1   34.00    3.00
  -1  -4   1   33.60    2.10
   1  -4  -1   35.80    2.70
  -1  -4   1   31.60    2.50
   1  -4  -1   28.60    2.80
   1  -4  -1   34.60    2.80
   1  -4  -1   33.70    2.60
  -1  -4   1   35.80    2.60
   1  -4  -1   34.00    2.50
   1  -4  -1   36.40    3.10
   1  -4  -1   34.90    2.80
  -1  -4   1   41.00    2.90
   1  -4  -1   36.30    2.00
   1  -4  -1   31.80    2.50
   1  -4  -1   37.80    2.80
   1  -4  -1   39.10    2.90
  -1  -4   1   40.80    3.00
  -1  -4   1   41.30    2.70
   1  -4  -1   35.60    2.40
   1   4  -1   35.70    2.90
  -1   4   1   33.10    2.90
   1   4  -1   39.10    2.90
  -1   4   1   35.40    3.10
  -1   4   1   24.20    2.50
  -1   4   1   43.60    3.10
  -1   4   1   36.80    2.80
   1   4  -1   33.00    2.50
   1   4  -1   34.10    2.90
   1   4  -1   39.00    2.80
  -1   4   1   35.40    2.50
   1   4  -1   35.60    2.90
   1   4  -1   31.80    2.00
   1   4  -1   37.50    2.60
   1   4  -1   32.00    2.10
  -1   4   1   32.80    2.40
  -1   4   1   35.70    2.70
   1   4  -1   36.70    2.60
  -1   4   1   35.80    2.70
  -1   4   1   38.70    2.80
   1   4  -1   34.70    2.60
  -1   4   1   33.30    2.50
   1   4  -1   39.10    2.30
   0  -4   1    5.00    1.20
   0  -4   1    7.20    1.30
   0  -4   1    5.00    1.30
   0  -4   1    7.60    1.00
   0  -4  -1    7.40    1.50
   0  -4   1    6.40    1.80
   0  -4   1    6.80    1.50
   0  -4   1    5.10    1.10
   0  -4  -1    7.80    1.50
   0  -4  -1    8.30    1.80
   0  -4  -1    6.80    1.00
   0  -4   1   10.10    1.70
   0  -4  -1    7.30    1.50
   0  -4  -1    9.50    1.60
   0  -4  -1    8.00    1.80
   0  -4   1    7.00    1.00
   0  -4   1    6.90    1.10
   0  -4  -1   20.10    2.40
   0  -4  -1    6.70    1.50
   0  -4  -1    5.90    1.50
   0  -4  -1    8.30    1.30
   0  -4  -1    8.40    1.20
   0   4   1    7.30    1.60
   0   4   1    8.80    1.60
   0   4  -1    7.30    1.50
   0   4  -1    6.10    1.30
   0   4  -1    8.10    1.20
   0   4  -1    6.60    1.60
   0   4  -1    5.70    0.90
   0   4  -1    5.00    1.70
   0   4  -1    8.40    1.20
   0   4   1    6.80    1.80
   0   4   1    7.40    1.30
   0   4  -1    5.80    1.40
   0   4  -1    7.90    1.40
   0   4   1    4.80    1.50
   0   4  -1    8.20    1.40
   0   4  -1    4.50    0.90
   0   4  -1    7.60    1.00
   0   4  -1    5.30    1.00
   0   4   1    6.50    1.50
   0   4   1    6.50    1.20
   0   4   1    6.20    1.50
   0   4   1    8.20    1.60
  -1  -4  -1  642.34   26.50
   1  -4   1  550.04   26.10
   1  -4   1  567.84   26.30
  -1  -4  -1  660.83   26.30
   1  -4   1  565.64   26.10
  -1  -4  -1  615.04   26.60
   1  -4   1  592.34   26.40
   1  -4   1  515.35   26.20
  -1  -4  -1  615.64   26.40
   1  -4   1  568.74   26.50
  -1  -4  -1  629.44   26.40
  -1  -4  -1  654.43   26.40
  -1  -4  -1  632.34   26.60
   1  -4   1  599.64   26.20
   1  -4   1  541.95   26.40
  -1  -4  -1  651.03   26.50
   1  -4   1  559.54   26.20
  -1  -4  -1  610.24   26.30
  -1  -4  -1  627.54   26.40
   1  -4   1  574.34   26.20
   1  -4   1  550.44   26.40
   1   4   1  638.34   26.50
  -1   4  -1  549.74   26.30
   1   4   1  665.13   26.30
  -1   4  -1  544.65   26.10
   1   4   1  642.44   26.40
  -1   4  -1  602.84   26.60
   1   4   1  616.64   26.40
  -1   4  -1  505.35   26.30
  -1   4  -1  537.65   26.40
   1   4   1  650.43   26.50
   1   4   1  586.94   26.30
  -1   4  -1  551.44   26.20
  -1   4  -1  602.84   26.30
  -1   4  -1  558.64   26.20
   1   4   1  620.84   26.50
  -1   4  -1  575.04   26.20
   2  -4   1  549.35   25.30
   2  -4   1  549.15   25.20
  -2  -4  -1  595.74   25.30
   2  -4   1  530.15   25.10
  -2  -4  -1  585.34   25.40
  -2  -4  -1  577.64   25.40
  -2  -4  -1  583.74   25.30
  -2  -4  -1  620.14   25.80
   2  -4   1  581.54   25.50
  -2  -4  -1  590.94   25.50
   2  -4   1  478.15   24.80
  -2  -4  -1  576.54   25.50
   2  -4   1  535.05   25.60
  -2  -4  -1  568.14   25.60
  -2   4  -1  579.64   25.60
  -2   4  -1  515.55   25.00
  -2   4  -1  570.64   25.50
   2   4   1  593.64   25.50
  -2   4  -1  509.05   25.30
  -2   4  -1  524.25   25.10
   2   4   1  609.74   25.70
   2   4   1  581.14   25.40
   2   4   1  602.74   25.50
  -2   4  -1  568.44   25.50
   2   4   1  550.14   25.70
   2   4   1  539.85   25.20
   2   4   1  626.44   25.60
  -2   4  -1  547.95   25.90
   2   4   1  613.04   25.70
   3  -4   1   20.20    2.70
   3  -4   1   16.90    2.60
  -3  -4  -1   18.00    2.30
  -3  -4  -1   20.00    2.60
   3  -4   1   17.20    2.80
  -3  -4  -1   19.50    2.10
   3  -4   1   21.70    2.20
   3  -4   1   17.60    1.90
  -3  -4  -1   16.00    2.20
  -3  -4  -1   20.10    2.90
  -3  -4  -1   24.10    3.20
   3  -4   1   17.50    2.30
  -3   4  -1   16.80    2.40
  -3   4  -1   19.30    2.80
   3   4   1   18.40    1.90
   3   4   1   20.80    2.50
   3   4   1   23.80    2.70
  -3   4  -1   18.60    3.20
  -3   4  -1   20.90    2.80
   3   4   1   17.10    2.60
   3   4   1   22.70    3.00
  -3   4  -1   14.70    1.80
   4  -4   1  322.87   15.70
   4  -4   1  301.37   16.20
  -4  -4  -1  341.17   15.70
  -4  -4  -1  349.07   16.50
  -4  -4  -1  338.37   16.80
   4  -4   1  323.57   16.00
   4  -4   1  334.37   15.10
  -4  -4  -1  340.77   16.00
   4  -4   1  319.17   16.10
  -4  -4  -1  334.67   15.70
  -4   4  -1  325.47   16.20
   4   4   1  324.87   16.10
  -4   4  -1  324.67   15.80
   4   4   1  338.67   15.90
  -4   4  -1  311.87   16.10
  -4   4  -1  325.67   15.70
  -4   4  -1  316.47   16.00
   4   4   1  334.07   16.30
   4   4   1  305.37   16.10
   4   4   1  336.97   15.90
  -4   4  -1  323.47   17.00
  -5  -4  -1  119.09    7.90
   5  -4   1  110.79    7.20
  -5  -4  -1  113.59    7.00
   5  -4   1  110.29    6.20
   5  -4   1  114.99    8.10
   5  -4   1  109.19    7.80
  -5  -4  -1  116.39    8.70
  -5  -4  -1  114.59    7.50
  -5  -4  -1  114.39    7.10
   5  -4   1  127.49    7.80
   5   4   1  111.09    7.50
  -5   4  -1  109.99    7.80
  -5   4  -1  102.09    8.60
  -5   4  -1  130.49    8.10
  -5   4  -1  107.59    7.80
   5   4   1  112.19    7.30
   5   4   1  101.49    7.60
   5   4   1  112.89    7.80
  -5   4  -1  110.39    7.00
   5   4   1  119.29    7.50
  -5   4  -1   97.89    7.00
   6  -4   1    1.20    2.80
  -6  -4  -1    0.90    2.90
  -6  -4  -1    2.70    2.60
  -6  -4  -1    1.30    3.50
  -6  -4  -1    3.50    3.50
  -6  -4  -1    2.50    2.40
   6  -4   1    0.90    2.60
   6  -4   1    1.70    2.80
   6  -4   1    5.70    3.10
   6   4   1   -0.50    2.40
   6   4   1   -1.60    2.60
  -6   4  -1    0.30    3.70
  -6   4  -1    4.30    2.50
  -6   4  -1    2.60    3.20
   6   4   1    6.40    2.90
   6   4   1    5.40    3.20
   6   4   1    2.20    2.60
  -6   4  -1    0.90    2.90
  -6   4  -1    5.70    3.20
   7  -4   1   40.80    6.20
  -7  -4  -1   41.60    5.50
  -7  -4  -1   41.50    6.90
   7  -4   1   29.20    5.30
  -7  -4  -1   43.30    5.70
   7  -4   1   32.00    5.50
  -7  -4  -1   42.30    6.50
  -7   4  -1   50.69    6.60
  -7   4  -1   46.00    5.60
   7   4   1   39.80    5.30
  -7   4  -1   31.20    6.40
   7   4   1   41.60    5.50
   7   4   1   37.40    5.40
   7   4   1   37.40    5.80
   7   4   1   41.10    5.70
  -7   4  -1   35.70    5.50
   7  -5  -1  178.38   11.50
   7  -5  -1  165.78   11.90
  -7  -5   1  177.08   12.00
   7  -5  -1  189.18   12.00
  -7  -5   1  179.48   11.00
  -7  -5   1  174.28   11.80
   7  -5  -1  193.78   11.80
  -7   5   1  176.68   11.70
  -7   5   1  189.28   11.90
   7   5  -1  180.58   11.20
  -7   5   1  181.38   11.90
   7   5  -1  154.98   10.60
   7   5  -1  179.58   12.00
   7   5  -1  163.38   11.50
  -6  -5   1  327.77   17.50
   6  -5  -1  312.17   16.40
   6  -5  -1  322.97   17.50
   6  -5  -1  334.17   17.20
   6  -5  -1  339.57   17.30
   6  -5  -1  300.87   17.00
  -6  -5   1  333.37   16.80
  -6  -5   1  351.56   17.60
   6   5  -1  335.97   16.60
   6   5  -1  325.07   16.60
   6   5  -1  337.37   17.70
  -6   5   1  312.27   16.50
  -6   5   1  329.37   17.30
   6   5  -1  301.67   16.60
  -6   5   1  338.87   17.40
   6   5  -1  327.87   17.40
  -6   5   1  337.97   17.30
  -5  -5   1   70.89    5.00
   5  -5  -1   66.29    6.40
  -5  -5   1   72.99    5.70
  -5  -5   1   71.59    6.30
   5  -5  -1   82.69    6.30
  -5  -5   1   69.99    5.60
   5  -5  -1   77.49    5.50
   5  -5  -1   72.39    6.10
   5  -5  -1   77.09    6.30
  -5  -5   1   69.09    6.10
  -5   5   1   77.89    5.50
  -5   5   1   77.79    6.50
   5   5  -1   65.39    5.50
  -5   5   1   94.19    6.60
  -5   5   1   78.99    6.40
  -5   5   1   68.69    5.70
   5   5  -1   67.29    5.40
   5   5  -1   68.29    6.40
   5   5  -1   75.89    6.50
   5   5  -1   63.79    5.70
  -4  -5   1 1029.50   45.20
  -4  -5   1 1014.30   45.10
   4  -5  -1 1022.70   45.20
   4  -5  -1  989.70   45.20
  -4  -5   1 1046.10   44.80
  -4  -5   1 1014.90   45.40
   4  -5  -1  940.71   45.30
   4  -5  -1 1010.70   45.40
  -4  -5   1 1009.30   44.30
  -4  -5   1 1016.00   44.40
   4  -5  -1 1067.29   44.80
  -4   5   1 1025.70   45.90
   4   5  -1  988.30   45.50
  -4   5   1  972.70   45.20
  -4   5   1 1031.50   45.40
   4   5  -1  918.51   45.00
  -4   5   1 1028.70   45.30
   4   5  -1 1033.20   44.80
   4   5  -1 1057.79   44.80
   4   5  -1  976.90   45.40
  -4   5   1  981.80   44.90
  -4   5   1  958.70   44.60
   4   5  -1  999.70   44.70
  -3  -5   1 1233.08   52.89
  -3  -5   1 1255.27   53.29
   3  -5  -1 1226.88   53.89
   3  -5  -1 1233.28   53.29
  -3  -5   1 1278.17   53.69
   3  -5  -1 1192.18   53.89
  -3  -5   1 1285.67   53.89
   3  -5  -1 1248.88   53.79
  -3  -5   1 1230.58   53.59
  -3  -5   1 1210.68   52.89
   3  -5  -1 1225.18   53.69
  -3   5   1 1186.98   53.99
  -3   5   1 1034.80   53.59
   3   5  -1 1248.58   53.29
  -3   5   1 1216.28   53.69
   3   5  -1 1257.47   53.99
  -3   5   1 1121.59   53.09
  -3   5   1 1228.68   53.69
   3   5  -1 1140.69   53.69
   3   5  -1 1206.28   53.99
  -3   5   1 1217.58   53.79
  -3   5   1 1153.98   53.59
   3   5  -1 1196.08   53.19
   3   5  -1 1285.57   53.29
   2  -5  -1   25.90    2.50
   2  -5  -1   21.50    2.20
   2  -5  -1   20.30    2.40
  -2  -5   1   20.50    2.30
  -2  -5   1   22.90    2.30
  -2  -5   1   24.70    2.00
  -2  -5   1   16.70    1.80
   2  -5  -1   15.90    2.10
  -2  -5   1   18.70    2.70
   2  -5  -1   21.30    2.70
   2  -5  -1   20.00    2.50
  -2  -5   1   20.60    2.30
   2  -5  -1   23.90    2.10
   2  -5  -1   20.00    1.60
   2   5  -1   24.20    2.60
   2   5  -1   18.70    1.90
  -2   5   1   18.70    1.70
  -2   5   1   23.10    2.70
  -2   5   1   21.30    1.70
   2   5  -1   21.20    2.40
   2   5  -1   21.50    1.80
  -2   5   1   18.50    2.40
   2   5  -1   20.00    1.80
   2   5  -1   23.50    2.00
   2   5  -1   21.00    1.90
  -2   5   1   17.70    2.30
   2   5  -1   20.30    2.50
  -2   5   1   18.70    2.30
   2   5  -1   18.70    2.30
  -1  -5   1 1053.99   42.70
  -1  -5   1  968.20   42.50
  -1  -5   1  947.01   42.20
   1  -5  -1  988.10   42.40
  -1  -5   1 1029.80   42.50
   1  -5  -1  997.80   42.70
   1  -5  -1  915.81   42.40
  -1  -5   1 1004.30   42.80
   1  -5  -1  969.50   42.90
   1  -5  -1  922.51   42.30
   1  -5  -1  995.30   42.90
  -1  -5   1 1015.40   42.80
   1  -5  -1  934.01   42.50
   1  -5  -1  954.80   42.60
  -1  -5   1  935.91   42.90
  -1  -5   1  906.31   42.20
   1  -5  -1  915.11   42.50
  -1  -5   1 1028.10   42.60
   1   5  -1  996.90   42.50
   1   5  -1  951.10   42.50
   1   5  -1  974.50   42.20
   1   5  -1 1010.30   42.60
  -1   5   1  878.31   42.60
  -1   5   1  931.41   42.30
  -1   5   1 1002.80   42.40
   1   5  -1  933.21   42.20
  -1   5   1  983.30   42.70
  -1   5   1  947.61   42.60
   1   5  -1  910.21   42.10
   1   5  -1  976.20   42.50
   1   5  -1  997.30   42.80
  -1   5   1  942.01   42.60
  -1   5   1  975.00   42.90
  -1   5   1  989.00   42.60
   1   5  -1 1128.79   44.30
   1   5  -1  962.40   42.90
  -1   5   1  947.51   42.50
   1   5  -1 1014.80   42.70
  -1   5   1  889.71   42.80
   0  -5  -1 4425.16  197.68
   0  -5   1 4472.85  197.58
   0  -5  -1 4537.65  197.88
   0  -5  -1 4672.83  198.58
   0  -5   1 4141.89  198.08
   0  -5   1 4609.44  198.48
   0  -5   1 4537.85  198.18
   0  -5  -1 4822.22  198.18
   0  -5  -1 4740.33  198.38
   0  -5  -1 4608.74  198.18
   0  -5   1 4753.92  198.08
   0  -5   1 4434.06  197.68
   0  -5  -1 4639.44  198.28
   0  -5   1 4430.06  197.78
   0  -5   1 4522.65  197.78
   0  -5  -1 4656.53  198.08
   0  -5  -1 4585.04  198.38
   0  -5   1 4659.13  197.98
   0  -5   1 4539.55  197.98
   0  -5  -1 4590.94  198.38
   0  -5  -1 4663.23  198.08
   0   5   1 4216.58  197.88
   0   5  -1 4581.24  197.98
   0   5  -1 4579.24  198.18
   0   5   1 4757.42  197.98
   0   5  -1 4554.64  198.08
   0   5  -1 4568.04  197.78
   0   5   1 4583.54  198.28
   0   5   1 4580.64  197.98
   0   5  -1 4517.75  197.88
   0   5   1 4645.33  198.38
   0   5   1 4696.03  198.28
   0   5  -1 4746.73  198.48
   0   5   1 4724.03  198.08
   0   5   1 4644.54  198.08
   0   5  -1 4430.46  197.88
   0   5  -1 4363.66  197.78
   0   5  -1 4639.74  198.18
   0   5  -1 4412.76  197.58
   0   5   1 4703.43  198.08
   0   5  -1 4561.44  197.68
   0   5   1 4788.02  198.18
   0   5  -1 4582.04  197.88
   0   5  -1 4319.97  197.88
   0   5  -1 4560.64  198.78
   0   5   1 4646.94  198.38
   1  -5   1   53.09    3.70
   1  -5   1   57.89    3.60
   1  -5   1   51.69    3.60
  -1  -5  -1   57.29    3.80
   1  -5   1   54.99    3.30
  -1  -5  -1   59.79    3.70
   1  -5   1   55.79    3.50
   1  -5   1   49.80    4.00
  -1  -5  -1   61.79    3.90
  -1  -5  -1   53.89    3.50
  -1  -5  -1   59.39    3.60
  -1  -5  -1   63.09    3.40
  -1  -5  -1   61.99    3.70
   1  -5   1   54.39    3.40
  -1  -5  -1   59.79    3.90
   1   5   1   55.59    3.70
   1   5   1   58.99    3.90
  -1   5  -1   57.99    4.10
   1   5   1   57.69    3.70
  -1   5  -1   54.39    3.90
   1   5   1   53.89    3.70
   1   5   1   62.39    4.00
   1   5   1   62.39    3.40
   1   5   1   63.69    3.70
  -1   5  -1   46.80    3.60
  -1   5  -1   48.00    3.20
  -1   5  -1   51.49    3.40
  -1   5  -1   51.49    3.60
   1   5   1   57.29    4.00
  -1   5  -1   53.49    3.40
   1   5   1   62.99    3.80
   1   5   1   60.59    4.00
   1   5   1   53.79    3.90
  -1   5  -1   51.19    3.40
  -2  -5  -1 1233.28   50.59
  -2  -5  -1 1181.48   50.59
   2  -5   1 1136.19   50.39
  -2  -5  -1 1160.38   50.69
  -2  -5  -1 1176.58   50.49
  -2  -5  -1 1186.48   50.79
   2  -5   1 1136.59   50.59
   2  -5   1 1110.29   50.49
  -2  -5  -1 1227.58   50.79
   2  -5   1 1176.18   50.69
   2  -5   1 1053.49   50.49
  -2  -5  -1 1185.68   50.89
  -2   5  -1 1058.29   50.89
  -2   5  -1  996.50   50.19
   2   5   1 1146.59   50.49
  -2   5  -1 1062.29   50.49
   2   5   1 1155.98   50.99
  -2   5  -1  993.10   50.29
   2   5   1 1137.99   50.59
  -2   5  -1 1190.98   50.79
  -2   5  -1 1147.99   50.89
   2   5   1 1285.17   50.79
   2   5   1 1181.18   50.89
   2   5   1 1269.97   50.89
   2   5   1 1209.78   50.69
  -2   5  -1 1112.99   50.59
   3  -5   1 1774.92   89.69
  -3  -5  -1 2144.89   90.49
   3  -5   1 1994.70   89.99
  -3  -5  -1 2247.48   91.09
  -3  -5  -1 2148.29   90.49
   3  -5   1 1977.80   90.39
  -3  -5  -1 2145.89   90.79
   3  -5   1 2047.00   90.29
  -3  -5  -1 2196.98   90.09
  -3  -5  -1 2090.39   90.29
   3  -5   1 2053.59   90.59
   3  -5   1 1974.20   90.79
   3   5   1 2084.29   90.89
  -3   5  -1 2053.49   90.69
   3   5   1 2133.59   90.49
   3   5   1 2011.80   90.79
   3   5   1 2130.19   90.09
  -3   5  -1 2044.50   90.59
   3   5   1 2066.89   90.39
  -3   5  -1 1976.90   91.09
  -3   5  -1 2112.09   90.69
  -3   5  -1 2092.89   90.69
  -4  -5  -1   58.69    5.50
  -4  -5  -1   67.59    5.70
   4  -5   1   62.89    4.80
  -4  -5  -1   60.09    4.90
   4  -5   1   57.89    4.10
   4  -5   1   60.59    5.30
  -4  -5  -1   59.99    4.60
  -4  -5  -1   72.99    4.70
   4  -5   1   57.49    5.00
   4  -5   1   61.99    5.20
  -4   5  -1   67.09    5.50
   4   5   1   61.19    4.80
  -4   5  -1   59.49    5.30
   4   5   1   62.49    5.10
   4   5   1   63.59    5.30
  -4   5  -1   64.19    6.20
  -4   5  -1   53.09    4.80
   4   5   1   54.19    5.20
  -4   5  -1   61.09    5.50
   4   5   1   66.49    4.80
  -4   5  -1   57.89    4.60
  -5  -5  -1  119.39    8.70
  -5  -5  -1  113.89    7.90
   5  -5   1  109.79    7.40
   5  -5   1  112.69    8.10
   5  -5   1  122.29    7.90
   5  -5   1  108.19    7.90
  -5  -5  -1  118.89    8.20
  -5  -5  -1  124.09    7.30
  -5  -5  -1  123.29    7.70
  -5  -5  -1  105.69    7.10
   5  -5   1  109.19    6.80
   5   5   1  118.69    7.50
   5   5   1  124.79    8.20
   5   5   1  119.29    7.80
  -5   5  -1  120.59    8.30
  -5   5  -1  117.29    9.10
   5   5   1  103.59    7.80
  -5   5  -1  108.69    7.30
   5   5   1  126.29    7.70
  -5   5  -1  115.89    7.30
  -5   5  -1  117.69    8.30
  -5   5  -1  113.29    8.10
   6  -5   1  497.15   24.60
  -6  -5  -1  497.35   24.40
  -6  -5  -1  519.85   24.30
   6  -5   1  491.75   23.90
   6  -5   1  487.35   24.20
  -6  -5  -1  498.95   25.20
  -6  -5  -1  470.65   23.30
   6  -5   1  494.35   24.10
   6   5   1  481.25   23.70
  -6   5  -1  434.76   23.30
   6   5   1  480.15   24.10
   6   5   1  514.45   23.80
  -6   5  -1  492.55   25.60
  -6   5  -1  496.25   24.20
  -6   5  -1  469.65   24.20
   6   5   1  488.25   24.00
  -6   5  -1  464.45   23.80
   6   5   1  497.95   24.50
  -7  -5  -1   75.89   10.20
   7  -5   1   50.49    6.60
  -7   5  -1   56.39    6.90
  -7   5  -1   60.59    7.10
   7   5   1   61.39    6.40
  -7   5  -1   65.69    7.10
   7   5   1   53.49    6.40
   7   5   1   50.19    6.20
   7   5   1   48.60    9.30
  -7   5  -1   51.59    7.80
   7  -6  -1    3.10    3.60
  -7  -6   1    4.70    4.70
   7  -6  -1    2.80    4.00
  -7  -6   1    2.50    3.00
   7  -6  -1    2.20    3.60
  -7  -6   1    4.80    3.70
   7  -6  -1    6.80    6.70
   7   6  -1    3.50    2.80
   7   6  -1    6.60    3.10
  -7   6   1    4.10    3.60
  -7   6   1    0.00    3.70
   7   6  -1   -1.20    2.90
  -7   6   1    6.90    3.80
  -6  -6   1   84.39    7.70
   6  -6  -1   75.39    7.20
  -6  -6   1   84.59    7.50
  -6  -6   1   77.69    6.60
   6  -6  -1   88.89    8.00
   6  -6  -1   88.59    7.60
   6  -6  -1   84.29    7.70
   6   6  -1   84.99    7.80
  -6   6   1   86.09    7.60
   6   6  -1   74.99    6.70
   6   6  -1   71.19    6.30
   6   6  -1   86.79    7.70
  -6   6   1   93.69    8.20
   6   6  -1   81.99    6.50
  -6   6   1   65.19    6.00
  -6   6   1   77.39    7.40
   5  -6  -1  285.67   13.60
   5  -6  -1  290.77   14.50
   5  -6  -1  260.67   14.50
  -5  -6   1  269.47   13.10
  -5  -6   1  277.17   14.00
  -5  -6   1  283.87   14.30
   5  -6  -1  281.77   14.60
  -5  -6   1  286.57   14.60
   5  -6  -1  276.77   14.30
   5   6  -1  267.07   13.60
   5   6  -1  277.07   14.70
  -5   6   1  278.77   14.70
   5   6  -1  275.27   13.60
   5   6  -1  269.17   14.50
  -5   6   1  275.47   14.40
   5   6  -1  243.78   13.90
  -5   6   1  250.07   14.20
  -5   6   1  247.28   13.70
  -5   6   1  255.77   13.40
   4  -6  -1  129.09    8.30
   4  -6  -1  134.09    8.10
  -4  -6   1  150.48    8.20
  -4  -6   1  144.19    8.50
  -4  -6   1  139.19    6.90
  -4  -6   1  129.69    7.90
   4  -6  -1  136.69    7.40
   4  -6  -1  137.39    8.50
  -4  -6   1  139.09    7.50
   4  -6  -1  144.59    8.40
   4   6  -1  128.89    8.10
   4   6  -1  148.39    8.50
  -4   6   1  124.79    8.00
   4   6  -1  132.39    8.40
  -4   6   1  133.69    8.60
   4   6  -1  151.98    7.70
   4   6  -1  138.59    7.60
  -4   6   1  136.39    8.20
  -4   6   1  133.59    7.30
   4   6  -1  141.99    7.60
  -4   6   1  136.59    8.40
   3  -6  -1  299.57   14.10
  -3  -6   1  280.67   13.50
  -3  -6   1  287.37   14.20
   3  -6  -1  274.27   14.00
   3  -6  -1  278.57   13.10
  -3  -6   1  289.17   13.20
   3  -6  -1  286.47   13.50
  -3  -6   1  295.47   13.80
   3  -6  -1  288.67   13.90
  -3  -6   1  290.57   13.90
  -3  -6   1  297.87   13.00
   3  -6  -1  276.27   13.70
  -3   6   1  266.17   13.80
   3   6  -1  285.97   14.10
  -3   6   1  247.78   12.70
   3   6  -1  268.57   13.90
   3   6  -1  293.17   13.20
  -3   6   1  285.67   13.90
  -3   6   1  278.47   14.00
   3   6  -1  285.97   13.20
   3   6  -1  286.27   13.20
   3   6  -1  283.17   13.10
  -3   6   1  288.97   13.90
  -3   6   1  264.97   13.00
   2  -6  -1 1402.66   62.59
   2  -6  -1 1442.66   62.39
  -2  -6   1 1534.75   62.09
  -2  -6   1 1425.96   61.79
  -2  -6   1 1449.65   62.39
  -2  -6   1 1409.76   62.79
   2  -6  -1 1257.87   62.19
   2  -6  -1 1376.16   61.89
   2  -6  -1 1450.85   62.09
  -2  -6   1 1480.05   62.39
  -2  -6   1 1473.45   62.19
   2  -6  -1 1480.35   62.59
   2  -6  -1 1453.05   62.39
   2   6  -1 1401.06   61.79
   2   6  -1 1475.95   62.09
   2   6  -1 1445.26   62.29
   2   6  -1 1403.66   61.79
  -2   6   1 1393.96   61.59
   2   6  -1 1421.96   61.79
  -2   6   1 1352.56   61.79
   2   6  -1 1429.16   62.59
   2   6  -1 1429.56   62.09
   2   6  -1 1367.56   62.59
   2   6  -1 1463.25   61.89
  -2   6   1 1353.16   62.29
  -2   6   1 1427.16   62.39
  -2   6   1 1365.46   62.49
  -2   6   1 1390.56   61.79
  -2   6   1 1401.26   62.39
  -1  -6   1  346.27   15.70
   1  -6  -1  339.67   15.60
  -1  -6   1  369.26   15.90
   1  -6  -1  349.96   15.90
   1  -6  -1  345.87   15.90
  -1  -6   1  353.26   16.30
  -1  -6   1  363.56   15.70
  -1  -6   1  316.47   15.40
   1  -6  -1  346.37   16.20
  -1  -6   1  370.36   16.10
  -1  -6   1  367.26   15.80
   1  -6  -1  317.07   15.40
   1  -6  -1  344.47   15.60
  -1  -6   1  324.27   15.40
  -1   6   1  355.96   15.90
  -1   6   1  362.96   15.70
  -1   6   1  336.87   15.80
   1   6  -1  346.67   15.60
  -1   6   1  336.67   15.80
   1   6  -1  340.37   15.30
   1   6  -1  338.17   15.20
  -1   6   1  334.77   15.80
   1   6  -1  354.66   16.10
  -1   6   1  345.17   16.20
   1   6  -1  332.37   15.30
   1   6  -1  350.06   15.90
  -1   6   1  341.57   15.80
  -1   6   1  324.07   15.50
   1   6  -1  328.97   15.30
   1   6  -1  336.17   15.20
   1   6  -1  334.57   15.60
   0  -6  -1  220.88   10.20
   0  -6   1  215.38   10.10
   0  -6  -1  220.88   11.10
   0  -6  -1  229.18   10.70
   0  -6   1  217.98   10.20
   0  -6  -1  220.28   10.50
   0  -6  -1  214.78   11.00
   0  -6   1  223.48   10.40
   0  -6  -1  245.48   11.20
   0  -6   1  223.98   10.10
   0  -6   1  244.68   10.80
   0  -6  -1  227.78   10.90
   0  -6   1  204.98   10.30
   0  -6   1  226.48   11.20
   0  -6  -1  225.48   10.50
   0  -6   1  212.38   10.30
   0  -6   1  225.38   10.60
   0  -6  -1  232.38   10.50
   0   6  -1  227.48   10.40
   0   6  -1  204.18   10.10
   0   6  -1  221.78   10.10
   0   6  -1  212.88   10.10
   0   6   1  225.98   10.80
   0   6  -1  230.28   10.70
   0   6  -1  226.78   10.30
   0   6  -1  218.08   10.80
   0   6   1  224.38   11.00
   0   6  -1  231.58   11.00
   0   6   1  235.98   10.70
   0   6   1  229.58   10.70
   0   6  -1  209.08   10.20
   0   6   1  237.58   10.60
   0   6  -1  226.28   10.90
   0   6  -1  222.08   10.30
   0   6  -1  198.78   10.10
   0   6  -1  227.38   10.40
   0   6   1  224.08   10.80
   0   6   1  210.68   10.30
   0   6   1  218.18   10.60
  -1  -6  -1 1082.99   46.40
  -1  -6  -1 1169.18   47.00
   1  -6   1  986.40   46.00
  -1  -6  -1 1147.29   46.70
   1  -6   1 1010.60   46.50
   1  -6   1 1024.10   46.30
  -1  -6  -1 1090.89   46.60
   1  -6   1 1056.19   46.40
   1  -6   1 1043.60   46.60
  -1  -6  -1 1055.29   46.30
   1  -6   1  978.30   46.50
  -1  -6  -1 1119.69   46.20
  -1  -6  -1 1071.69   46.60
   1  -6   1 1003.60   46.20
   1  -6   1 1014.20   46.20
   1  -6   1  953.00   46.90
  -1   6  -1 1059.09   46.40
  -1   6  -1  898.21   46.50
  -1   6  -1  992.90   46.40
  -1   6  -1 1064.99   45.90
   1   6   1 1100.99   46.70
  -1   6  -1 1028.50   46.30
  -1   6  -1 1099.99   47.00
  -1   6  -1  999.60   46.50
  -1   6  -1 1038.70   46.50
   1   6   1 1092.79   46.60
   1   6   1 1109.09   46.80
  -1   6  -1 1039.90   46.30
   1   6   1 1112.19   46.90
   1   6   1 1205.08   46.30
   1   6   1 1042.40   46.50
   1   6   1 1132.29   46.80
  -2  -6  -1  512.65   21.90
   2  -6   1  454.85   21.40
  -2  -6  -1  515.45   21.50
   2  -6   1  430.76   21.30
   2  -6   1  443.96   21.70
  -2  -6  -1  478.95   21.40
  -2  -6  -1  475.05   21.20
  -2  -6  -1  476.95   21.60
  -2  -6  -1  480.05   21.50
   2  -6   1  467.25   21.50
   2  -6   1  454.55   21.20
  -2  -6  -1  464.95   21.60
  -2  -6  -1  469.05   21.50
   2  -6   1  476.15   21.20
  -2   6  -1  460.65   21.40
  -2   6  -1  422.56   21.60
  -2   6  -1  431.76   21.60
   2   6   1  488.35   21.90
  -2   6  -1  457.55   21.40
   2   6   1  466.85   21.70
  -2   6  -1  469.95   21.60
   2   6   1  501.15   21.50
  -2   6  -1  461.85   21.80
   2   6   1  506.25   21.50
  -2   6  -1  394.16   21.00
   2   6   1  461.25   21.40
   2   6   1  526.75   21.50
   2   6   1  478.25   21.30
   3  -6   1    2.10    1.00
   3  -6   1    0.70    1.80
   3  -6   1    1.50    1.70
  -3  -6  -1    2.30    1.70
  -3  -6  -1   -0.80    1.80
  -3  -6  -1    0.40    1.90
  -3  -6  -1    1.80    1.40
   3  -6   1   -1.10    1.50
   3  -6   1   -1.20    1.30
   3  -6   1    4.80    2.00
   3  -6   1   -1.50    1.80
  -3  -6  -1    2.40    1.50
  -3  -6  -1    1.00    1.80
  -3  -6  -1    0.00    1.30
  -3   6  -1    2.50    1.80
  -3   6  -1    2.20    2.00
   3   6   1    1.30    1.70
  -3   6  -1    0.50    2.20
   3   6   1    1.60    1.80
   3   6   1    0.00    1.30
   3   6   1   -1.50    1.50
  -3   6  -1    1.60    2.00
   3   6   1   -0.50    1.90
  -3   6  -1    0.10    1.80
  -4  -6  -1  501.05   22.60
   4  -6   1  510.05   23.60
   4  -6   1  469.05   22.90
  -4  -6  -1  485.95   23.30
   4  -6   1  486.65   23.20
   4  -6   1  492.95   22.20
  -4  -6  -1  507.15   22.90
  -4  -6  -1  494.05   22.90
  -4  -6  -1  514.35   23.70
  -4  -6  -1  483.55   22.70
   4  -6   1  460.85   22.70
  -4   6  -1  469.05   23.20
  -4   6  -1  473.65   22.40
  -4   6  -1  453.55   23.70
   4   6   1  486.75   23.40
   4   6   1  480.45   23.30
  -4   6  -1  477.95   23.20
   4   6   1  483.65   22.80
  -4   6  -1  501.85   23.10
   4   6   1  501.35   22.90
  -4   6  -1  490.25   23.20
   4   6   1  508.25   22.10
  -5  -6  -1  290.17   14.80
  -5  -6  -1  308.97   15.60
  -5  -6  -1  303.27   14.60
   5  -6   1  281.17   15.60
   5  -6   1  266.87   14.60
  -5  -6  -1  324.77   15.10
  -5  -6  -1  299.37   15.00
   5  -6   1  292.97   15.40
   5  -6   1  290.47   15.20
  -5  -6  -1  288.47   15.90
  -5   6  -1  263.87   14.40
  -5   6  -1  301.17   15.50
  -5   6  -1  279.97   16.20
  -5   6  -1  290.37   14.90
   5   6   1  298.97   15.50
   5   6   1  303.37   14.90
   5   6   1  278.67   15.40
  -5   6  -1  262.17   15.20
   5   6   1  288.17   15.20
   5   6   1  304.67   14.90
  -5   6  -1  293.37   15.40
  -6  -6  -1    8.40    3.70
  -6  -6  -1   12.80    4.20
  -6  -6  -1    5.70    3.40
   6  -6   1   10.60    3.60
   6  -6   1    6.60    3.20
  -6  -6  -1    3.10    2.50
   6  -6   1    6.00    3.40
   6   6   1    6.30    3.30
   6   6   1    0.90    2.70
   6   6   1    1.60    2.90
  -6   6  -1    2.90    3.80
   6   6   1    4.40    2.90
  -6   6  -1    6.60    3.70
  -6   6  -1    5.20    3.50
  -6   6  -1    3.30    2.40
   6   6   1   11.00    3.30
  -6   6  -1    4.00    3.30
  -7  -6  -1   59.49    6.10
   7  -6   1   53.49    6.80
  -7   6  -1   59.09    6.80
  -7   6  -1   82.69   12.90
  -7   6  -1   62.99    7.40
   7   6   1   56.29    6.30
   7   6   1   53.89    6.60
   7   6   1   58.19    6.70
   7  -7  -1    7.80    3.90
  -7  -7   1   13.20    3.70
  -7   7   1   10.90    4.20
  -7   7   1    1.70    3.70
   7   7  -1    3.20    2.90
  -7   7   1    6.90    4.20
   7   7  -1    9.80    3.40
   7   7  -1   10.30    4.00
   6  -7  -1   10.30    3.80
   6  -7  -1    9.30    3.60
  -6  -7   1    6.00    3.30
  -6  -7   1    4.30    3.40
   6  -7  -1    4.40    3.40
   6  -7  -1    2.50    3.20
  -6   7   1    4.40    3.30
   6   7  -1    4.40    2.90
   6   7  -1    4.00    3.20
  -6   7   1   10.90    4.00
   6   7  -1   10.00    3.70
   6   7  -1    6.90    2.70
   6   7  -1    4.40    2.60
  -6   7   1    7.70    3.70
   5  -7  -1    2.80    2.00
   5  -7  -1    6.00    3.00
   5  -7  -1    5.10    2.80
   5  -7  -1    6.50    2.90
  -5  -7   1   -2.20    2.50
   5  -7  -1    1.40    2.60
  -5  -7   1    5.80    2.50
  -5  -7   1    3.20    2.70
  -5   7   1   -0.60    2.60
   5   7  -1    0.90    2.50
  -5   7   1    3.50    2.90
  -5   7   1   -2.60    2.20
   5   7  -1    3.80    2.70
  -5   7   1    0.00    1.70
   5   7  -1    3.60    2.20
   5   7  -1    3.30    2.60
  -5   7   1    4.40    3.40
   5   7  -1    3.40    2.20
  -4  -7   1   37.40    4.40
   4  -7  -1   43.70    3.60
   4  -7  -1   44.50    4.70
   4  -7  -1   44.20    4.20
   4  -7  -1   41.50    4.50
  -4  -7   1   46.20    3.80
  -4  -7   1   38.60    4.00
   4  -7  -1   40.90    4.70
   4  -7  -1   44.70    4.90
  -4  -7   1   46.30    4.30
   4   7  -1   37.70    4.40
   4   7  -1   44.50    3.90
   4   7  -1   49.00    4.90
  -4   7   1   43.30    4.60
  -4   7   1   48.30    4.80
   4   7  -1   48.50    4.10
   4   7  -1   44.60    4.60
  -4   7   1   40.60    3.40
  -4   7   1   34.00    4.10
  -4   7   1   46.40    5.00
   3  -7  -1    3.60    2.20
   3  -7  -1    5.80    2.20
   3  -7  -1    2.80    2.00
  -3  -7   1    4.10    2.10
   3  -7  -1    2.30    1.60
  -3  -7   1    6.10    2.30
  -3  -7   1    1.50    1.80
  -3  -7   1    1.60    1.30
  -3  -7   1    2.30    1.70
   3  -7  -1    3.10    1.70
  -3  -7   1    3.10    1.30
   3  -7  -1    4.30    1.40
   3   7  -1    7.80    2.30
   3   7  -1    4.10    1.90
   3   7  -1    0.30    1.40
  -3   7   1    5.00    2.20
   3   7  -1    3.80    1.60
  -3   7   1    3.80    2.00
   3   7  -1    3.00    1.40
  -3   7   1    3.70    1.10
  -3   7   1    2.20    1.20
   3   7  -1    2.30    1.50
  -3   7   1    5.50    2.10
  -3   7   1    3.50    2.40
   2  -7  -1   14.30    2.20
  -2  -7   1   10.70    2.10
  -2  -7   1    8.30    2.00
   2  -7  -1    9.80    2.00
   2  -7  -1   13.40    1.70
   2  -7  -1    8.90    2.20
  -2  -7   1   10.10    1.60
   2  -7  -1   11.50    2.10
  -2  -7   1   14.20    2.10
   2  -7  -1   10.60    2.50
   2  -7  -1   13.90    2.10
  -2  -7   1   10.60    2.50
   2   7  -1   13.00    1.80
   2   7  -1   10.80    2.40
  -2   7   1   11.60    2.40
   2   7  -1    8.80    1.50
   2   7  -1   14.60    2.00
   2   7  -1   10.40    1.60
  -2   7   1   11.30    1.50
  -2   7   1   11.90    2.50
   2   7  -1   10.40    1.90
   2   7  -1   11.70    2.30
  -2   7   1    9.30    2.10
   2   7  -1   14.00    1.70
  -2   7   1   12.10    2.20
   2   7  -1    7.90    1.70
  -1  -7   1   16.50    2.30
   1  -7  -1   16.70    2.20
  -1  -7   1   15.50    2.20
  -1  -7   1   17.20    2.10
  -1  -7   1   12.90    1.80
   1  -7  -1   10.40    1.40
   1  -7  -1   17.10    2.70
  -1  -7   1   12.00    2.50
  -1  -7   1   12.40    1.80
  -1  -7   1   14.00    1.50
   1  -7  -1   14.20    2.10
   1  -7  -1   12.70    1.90
   1  -7  -1   16.20    1.90
   1  -7  -1   15.80    2.60
   1   7  -1   15.40    1.70
  -1   7   1   12.60    2.00
  -1   7   1   12.60    2.10
  -1   7   1   11.10    2.00
  -1   7   1   17.60    2.20
   1   7  -1   17.30    2.50
   1   7  -1   15.50    1.60
   1   7  -1   14.50    1.80
   1   7  -1   16.50    1.70
   1   7  -1   17.20    1.70
   1   7  -1   12.60    1.60
  -1   7   1   22.20    2.10
  -1   7   1   13.80    2.50
   1   7  -1   11.70    1.90
  -1   7   1   10.90    2.10
  -1   7   1   14.60    2.20
   1   7  -1   13.90    2.10
   0  -7  -1   13.10    2.60
   0  -7  -1   18.30    2.40
   0  -7   1   11.30    1.70
   0  -7   1   16.30    1.90
   0  -7  -1   12.50    2.20
   0  -7  -1   14.80    2.00
   0  -7  -1   14.50    2.00
   0  -7   1   10.90    1.40
   0  -7  -1   15.80    2.00
   0  -7   1   13.90    1.70
   0  -7  -1   15.90    1.70
   0  -7  -1   12.70    2.60
   0  -7   1   11.10    2.50
   0  -7   1   18.40    2.50
   0   7   1   18.50    2.20
   0   7  -1   12.80    1.60
   0   7  -1   13.50    1.70
   0   7  -1   14.30    1.80
   0   7   1   14.60    2.50
   0   7  -1   12.20    1.50
   0   7   1   16.40    2.20
   0   7  -1   15.20    1.60
   0   7   1   18.00    2.00
   0   7  -1   15.00    2.20
   0   7  -1   12.90    2.20
   0   7   1   12.90    2.10
   0   7  -1   11.70    2.10
   0   7   1   13.70    2.30
   0   7   1   11.30    1.90
   0   7  -1   12.90    1.40
   0   7  -1   13.70    1.80
   0   7  -1   12.60    1.60
   0   7   1   12.50    2.20
   1  -7   1   13.60    1.60
  -1  -7  -1   18.20    2.80
  -1  -7  -1   16.20    2.40
  -1  -7  -1   18.80    2.20
   1  -7   1   10.40    2.40
   1  -7   1   14.50    1.70
   1  -7   1   18.30    2.00
  -1  -7  -1   18.40    2.10
   1  -7   1   14.60    2.10
   1  -7   1   15.60    1.90
   1  -7   1   12.40    1.80
   1  -7   1   14.70    2.30
  -1  -7  -1   16.80    2.40
   1  -7   1   15.40    2.30
  -1  -7  -1   16.70    1.60
  -1  -7  -1   17.00    2.00
  -1  -7  -1   15.50    2.30
  -1   7  -1   14.50    2.00
  -1   7  -1   14.20    2.20
   1   7   1   11.20    2.10
   1   7   1   12.30    2.00
  -1   7  -1   13.30    2.40
  -1   7  -1   13.70    2.00
   1   7   1   14.40    2.40
  -1   7  -1   15.80    2.00
   1   7   1   14.90    2.50
   1   7   1   19.80    2.30
   1   7   1   17.70    1.60
   1   7   1   12.80    2.30
  -1   7  -1   16.20    2.00
   2  -7   1  152.18    7.90
   2  -7   1  153.48    7.90
  -2  -7  -1  159.68    8.20
  -2  -7  -1  159.78    8.40
   2  -7   1  155.58    8.20
  -2  -7  -1  155.68    7.90
  -2  -7  -1  159.28    8.10
  -2  -7  -1  149.29    8.20
   2  -7   1  153.38    8.00
  -2  -7  -1  157.08    7.80
   2  -7   1  136.89    8.10
  -2  -7  -1  163.08    8.20
   2  -7   1  134.69    8.30
   2   7   1  152.98    8.60
  -2   7  -1  145.99    8.00
  -2   7  -1  154.28    8.40
   2   7   1  163.98    8.20
   2   7   1  171.28    8.00
   2   7   1  154.28    8.20
   2   7   1  163.58    8.10
  -2   7  -1  132.69    8.20
   2   7   1  148.69    8.00
   2   7   1  164.18    8.40
  -2   7  -1  152.38    8.60
  -2   7  -1  149.19    8.10
  -3  -7  -1    5.20    2.20
   3  -7   1    3.30    2.00
   3  -7   1    8.00    2.10
   3  -7   1    4.20    2.00
  -3  -7  -1    8.10    1.80
  -3  -7  -1    7.50    2.30
   3  -7   1    5.70    2.30
  -3  -7  -1    8.30    2.40
   3  -7   1    7.40    2.30
  -3  -7  -1    3.80    1.80
  -3  -7  -1    5.70    1.90
   3  -7   1    6.50    1.70
  -3   7  -1    3.70    2.50
   3   7   1    3.40    2.10
   3   7   1    4.00    2.10
   3   7   1    3.90    1.70
  -3   7  -1    5.80    1.50
  -3   7  -1    5.00    2.10
  -3   7  -1    9.00    2.70
   3   7   1    3.90    1.60
   3   7   1    6.70    2.10
  -3   7  -1    4.00    2.10
  -3   7  -1    1.30    2.00
   4  -7   1   -1.80    2.00
  -4  -7  -1    2.00    1.90
  -4  -7  -1    3.80    2.40
   4  -7   1    3.40    2.40
   4  -7   1   -0.60    1.20
   4  -7   1    0.10    2.10
  -4  -7  -1   -0.10    1.90
   4  -7   1    1.00    1.50
  -4  -7  -1    1.50    2.40
   4  -7   1    0.10    2.10
   4  -7   1   -2.30    2.20
  -4  -7  -1    4.00    1.80
  -4  -7  -1   -1.30    1.90
   4   7   1    1.40    2.20
  -4   7  -1    0.60    2.20
  -4   7  -1    5.50    2.90
   4   7   1   -0.40    1.30
  -4   7  -1   -1.30    2.30
  -4   7  -1    3.60    2.40
  -4   7  -1    0.60    1.60
  -4   7  -1    1.50    2.60
   4   7   1   -0.60    2.30
   4   7   1    5.40    2.20
   4   7   1    4.10    2.00
  -5  -7  -1   10.50    3.70
   5  -7   1    7.20    3.00
  -5  -7  -1   15.80    2.90
  -5  -7  -1   13.30    3.50
   5  -7   1   15.70    3.60
   5  -7   1   13.60    3.60
  -5  -7  -1   15.10    3.10
   5  -7   1    9.70    3.00
   5  -7   1    9.10    3.20
  -5  -7  -1    8.10    3.20
  -5  -7  -1   16.40    3.30
   5   7   1    4.80    3.00
  -5   7  -1   14.70    2.60
  -5   7  -1    6.40    2.80
   5   7   1   13.00    3.20
  -5   7  -1    8.20    3.60
  -5   7  -1   14.40    3.60
   5   7   1   15.60    3.60
   5   7   1   18.40    3.40
  -5   7  -1    6.10    3.20
  -5   7  -1   15.40    4.20
   5   7   1   12.20    3.00
  -6  -7  -1    3.60    3.30
   6  -7   1    1.20    3.20
   6  -7   1    3.40    3.20
  -6  -7  -1    5.40    2.70
  -6  -7  -1    5.70    3.70
   6  -7   1   -1.40    2.90
   6   7   1    2.50    2.80
  -6   7  -1    7.00    3.50
  -6   7  -1    2.10    3.80
   6   7   1    4.70    3.20
   6   7   1    4.70    3.30
  -6   7  -1    5.80    3.50
   6   7   1    6.50    3.00
   6   7   1    1.50    2.50
  -6   7  -1    3.50    3.50
   7  -7   1   -1.90    4.30
  -7  -7  -1   -0.60    2.70
   7   7   1   -0.60    3.30
  -7   7  -1    1.00    4.60
   7   7   1    5.60    3.40
  -7   7  -1   -2.10    3.60
   7   7   1    2.80    3.10
  -7  -8   1    8.60    3.50
   7  -8  -1   13.20    4.00
   7  -8  -1    3.90    4.80
   7   8  -1    7.90    5.50
  -7   8   1    4.40    7.20
   7   8  -1    8.70    3.40
  -7   8   1    3.80    3.80
   6  -8  -1  148.39   10.00
   6  -8  -1  137.39   10.20
  -6  -8   1  153.08   10.20
  -6  -8   1  149.29    9.50
   6  -8  -1  144.09   10.10
  -6  -8   1  139.49   10.20
   6  -8  -1  138.39    9.30
   6  -8  -1  158.58   10.30
  -6   8   1  154.28   10.40
   6   8  -1  143.89   10.10
   6   8  -1  129.19    9.60
  -6   8   1  130.69   10.50
   6   8  -1  139.99   10.20
  -6   8   1  154.08   10.40
   6   8  -1  150.18    9.10
   6   8  -1  139.49    8.80
   5  -8  -1  332.27   18.10
  -5  -8   1  361.26   18.30
   5  -8  -1  333.77   17.40
   5  -8  -1  364.76   18.40
   5  -8  -1  388.86   18.20
  -5  -8   1  344.77   17.60
  -5  -8   1  346.27   17.80
   5  -8  -1  356.56   18.30
   5   8  -1  351.46   17.30
   5   8  -1  345.47   18.30
   5   8  -1  354.56   18.40
  -5   8   1  370.46   18.30
   5   8  -1  355.16   17.20
  -5   8   1  348.67   18.30
   5   8  -1  346.17   18.10
  -5   8   1  387.36   18.60
  -5   8   1  343.37   17.90
   4  -8  -1   78.39    6.30
  -4  -8   1   81.79    5.90
   4  -8  -1   76.49    5.10
   4  -8  -1   81.79    6.20
   4  -8  -1   76.39    5.70
  -4  -8   1   88.29    6.40
  -4  -8   1   91.09    6.20
   4  -8  -1   89.29    6.90
   4  -8  -1   94.49    6.70
   4   8  -1   91.49    6.70
  -4   8   1   87.19    6.70
   4   8  -1   85.79    6.60
  -4   8   1   81.89    6.60
   4   8  -1   92.89    5.60
  -4   8   1   90.29    7.20
   4   8  -1   86.09    5.40
  -4   8   1   80.29    6.60
  -4   8   1   70.69    4.80
   4   8  -1   72.49    6.30
  -3  -8   1  302.67   16.00
   3  -8  -1  332.07   15.80
  -3  -8   1  328.87   15.70
   3  -8  -1  324.77   16.20
  -3  -8   1  327.87   15.70
   3  -8  -1  314.47   14.80
   3  -8  -1  315.67   15.60
   3  -8  -1  311.77   15.90
   3  -8  -1  318.47   15.30
  -3  -8   1  337.87   15.30
  -3  -8   1  315.67   15.00
   3   8  -1  324.47   15.00
  -3   8   1  314.67   15.80
  -3   8   1  306.37   16.00
   3   8  -1  330.07   16.10
  -3   8   1  310.97   15.70
   3   8  -1  332.57   16.10
   3   8  -1  334.37   15.10
  -3   8   1  316.17   15.90
   3   8  -1  324.37   15.20
   3   8  -1  323.47   14.90
  -2  -8   1 1370.56   59.59
  -2  -8   1 1424.36   59.89
   2  -8  -1 1356.06   60.69
   2  -8  -1 1258.57   59.89
  -2  -8   1 1391.26   60.29
  -2  -8   1 1389.66   60.79
   2  -8  -1 1396.26   59.99
  -2  -8   1 1409.46   60.19
   2  -8  -1 1359.16   60.19
   2  -8  -1 1410.16   60.29
   2  -8  -1 1343.07   59.59
  -2   8   1 1337.77   60.19
  -2   8   1 1297.57   60.19
  -2   8   1 1362.46   60.59
   2   8  -1 1335.57   60.09
   2   8  -1 1350.26   59.69
  -2   8   1 1332.77   59.49
   2   8  -1 1462.65   60.69
   2   8  -1 1375.66   59.89
  -2   8   1 1376.56   60.19
   2   8  -1 1308.07   60.59
   2   8  -1 1341.27   59.59
  -2   8   1 1374.36   60.09
   2   8  -1 1347.57   59.59
   2   8  -1 1388.96   59.79
   1  -8  -1  268.07   12.50
   1  -8  -1  256.97   12.30
  -1  -8   1  250.37   12.30
  -1  -8   1  280.67   13.50
  -1  -8   1  268.67   12.60
   1  -8  -1  262.57   12.70
   1  -8  -1  269.97   13.20
  -1  -8   1  275.67   12.30
  -1  -8   1  268.57   12.80
  -1  -8   1  269.97   12.00
   1  -8  -1  243.48   11.90
   1  -8  -1  243.38   13.10
   1  -8  -1  273.27   12.70
   1   8  -1  259.07   12.40
   1   8  -1  265.47   12.10
   1   8  -1  261.97   12.00
   1   8  -1  250.37   12.20
  -1   8   1  267.07   13.20
  -1   8   1  267.37   12.60
   1   8  -1  255.17   12.00
   1   8  -1  254.37   12.00
  -1   8   1  250.47   12.30
  -1   8   1  269.77   12.80
   1   8  -1  270.97   12.90
   1   8  -1  276.67   13.10
  -1   8   1  262.97   12.60
  -1   8   1  255.07   12.70
   1   8  -1  252.97   12.20
   0  -8  -1  306.37   14.40
   0  -8  -1  308.87   14.70
   0  -8  -1  321.77   14.70
   0  -8  -1  323.17   15.00
   0  -8  -1  315.47   14.90
   0  -8   1  317.57   14.50
   0  -8   1  319.17   15.60
   0  -8  -1  304.27   14.10
   0  -8  -1  314.07   15.50
   0  -8  -1  321.57   15.40
   0  -8   1  306.27   14.60
   0  -8   1  313.97   14.20
   0  -8   1  320.37   15.00
   0   8  -1  307.47   14.30
   0   8   1  328.27   15.10
   0   8   1  315.27   14.80
   0   8   1  328.07   15.20
   0   8   1  322.47   15.40
   0   8  -1  303.07   14.30
   0   8  -1  321.17   14.60
   0   8  -1  318.37   15.30
   0   8  -1  289.87   14.10
   0   8  -1  313.87   14.80
   0   8   1  325.17   14.80
   0   8  -1  315.87   14.40
   0   8  -1  293.27   15.00
   0   8  -1  318.37   14.60
   0   8   1  315.77   14.50
   0   8  -1  330.37   14.30
   0   8  -1  321.47   14.60
   1  -8   1 1245.58   56.69
   1  -8   1 1247.38   56.79
  -1  -8  -1 1363.96   56.99
  -1  -8  -1 1291.27   57.29
   1  -8   1 1279.57   56.89
   1  -8   1 1287.47   57.19
  -1  -8  -1 1341.97   57.29
   1  -8   1 1186.28   57.69
  -1  -8  -1 1307.37   57.19
   1  -8   1 1322.17   57.09
   1  -8   1 1223.78   56.59
   1  -8   1 1189.58   57.19
  -1  -8  -1 1464.45   58.09
   1  -8   1 1166.88   56.79
  -1  -8  -1 1379.46   56.89
  -1   8  -1 1305.17   57.69
   1   8   1 1346.67   57.69
   1   8   1 1360.96   57.59
  -1   8  -1 1340.97   57.19
   1   8   1 1413.66   56.49
   1   8   1 1350.26   57.29
   1   8   1 1353.96   57.59
  -1   8  -1 1279.07   56.99
  -1   8  -1 1211.48   56.89
  -1   8  -1 1265.07   56.89
   1   8   1 1294.97   57.09
   1   8   1 1279.37   57.29
  -1   8  -1 1252.97   56.89
  -2  -8  -1  618.24   28.40
  -2  -8  -1  635.14   28.70
  -2  -8  -1  682.73   29.30
   2  -8   1  588.84   28.90
   2  -8   1  617.54   28.90
  -2  -8  -1  678.53   28.90
  -2  -8  -1  633.84   28.90
   2  -8   1  619.54   28.60
   2  -8   1  593.54   28.60
  -2  -8  -1  669.63   28.50
   2  -8   1  612.14   28.50
   2  -8   1  590.94   29.40
   2   8   1  646.74   29.30
  -2   8  -1  633.24   28.80
   2   8   1  693.43   28.90
   2   8   1  633.14   29.10
   2   8   1  697.53   28.60
   2   8   1  644.94   29.00
  -2   8  -1  627.44   29.30
  -2   8  -1  597.74   28.70
  -2   8  -1  640.24   28.90
  -2   8  -1  567.54   28.70
   2   8   1  632.84   28.70
   2   8   1  674.83   28.90
  -3  -8  -1   84.39    5.40
   3  -8   1   72.29    5.60
   3  -8   1   77.99    5.40
  -3  -8  -1   86.69    5.60
  -3  -8  -1   85.89    5.00
   3  -8   1   74.89    6.00
   3  -8   1   84.29    5.70
  -3  -8  -1   79.19    5.70
   3  -8   1   79.59    5.70
   3  -8   1   80.89    5.10
  -3  -8  -1   73.59    5.60
  -3  -8  -1   87.29    5.60
  -3   8  -1   69.79    6.10
  -3   8  -1   81.59    5.80
   3   8   1   81.99    5.40
   3   8   1   81.89    5.40
   3   8   1   80.59    5.40
   3   8   1   73.59    5.70
  -3   8  -1   79.19    5.90
   3   8   1   81.79    6.20
  -3   8  -1   83.79    5.80
  -3   8  -1   71.49    4.40
  -3   8  -1   73.89    6.10
   4  -8   1  540.05   26.70
   4  -8   1  555.64   25.40
  -4  -8  -1  584.34   25.60
  -4  -8  -1  584.84   26.10
   4  -8   1  567.34   26.20
   4  -8   1  554.84   26.30
  -4  -8  -1  595.44   26.30
   4  -8   1  558.04   26.20
   4  -8   1  539.65   26.30
  -4  -8  -1  598.14   26.70
  -4  -8  -1  580.74   26.60
  -4   8  -1  530.25   26.40
  -4   8  -1  536.75   26.90
   4   8   1  557.84   25.50
   4   8   1  555.14   26.00
  -4   8  -1  569.64   26.60
   4   8   1  595.24   26.10
   4   8   1  539.75   26.70
  -4   8  -1  503.35   25.20
  -4   8  -1  532.35   26.40
  -4   8  -1  549.25   26.60
   4   8   1  581.64   26.70
   5  -8   1  205.18   11.80
   5  -8   1  209.88   12.00
  -5  -8  -1  235.28   12.70
  -5  -8  -1  212.68   12.10
   5  -8   1  195.28   12.20
  -5  -8  -1  220.28   11.60
   5  -8   1  197.88   12.00
  -5  -8  -1  212.28   10.90
   5  -8   1  193.18   11.50
   5   8   1  199.28   12.00
   5   8   1  218.78   11.60
   5   8   1  206.58   11.50
  -5   8  -1  197.68   11.90
  -5   8  -1  210.78   12.20
   5   8   1  209.18   12.30
  -5   8  -1  218.28   12.30
  -5   8  -1  200.88   12.40
  -5   8  -1  210.38   12.90
   5   8   1  205.38   12.10
   6  -8   1    5.10    3.40
  -6  -8  -1    4.20    3.30
   6  -8   1    4.00    3.30
  -6  -8  -1    5.40    2.80
   6  -8   1    6.00    3.50
   6  -8   1    5.30    3.50
   6   8   1    6.00    3.00
  -6   8  -1    1.00    3.40
   6   8   1    3.30    3.20
   6   8   1    6.40    3.30
  -6   8  -1   -1.50    3.60
  -6   8  -1    3.00    3.50
   6   8   1    3.30    3.30
   6   8   1    4.70    2.80
  -6   8  -1    4.60    3.60
  -7  -8  -1   83.29    7.30
   7   8   1   72.19    7.60
   7   8   1   74.49    8.10
   7  -9  -1   93.09    8.20
   7   9  -1   92.09    7.70
  -6  -9   1  163.68   10.20
   6  -9  -1  150.98   10.50
   6  -9  -1  140.39   10.50
  -6  -9   1  149.49   10.60
   6  -9  -1  159.38    9.90
   6  -9  -1  156.28   10.90
   6  -9  -1  165.98   11.00
   6   9  -1  168.28   11.00
  -6   9   1  163.38   11.40
   6   9  -1  158.48   10.80
  -6   9   1  147.39   10.60
   6   9  -1  140.89   10.20
   6   9  -1  152.28    9.40
   6   9  -1  157.68    9.50
  -6   9   1  175.58   11.10
  -5  -9   1   49.20    5.00
  -5  -9   1   50.59    5.60
  -5  -9   1   55.09    5.60
   5  -9  -1   44.50    5.40
   5  -9  -1   45.70    5.70
   5  -9  -1   40.80    5.10
   5  -9  -1   42.90    4.80
   5  -9  -1   42.00    5.30
   5   9  -1   50.39    4.60
  -5   9   1   39.40    5.70
  -5   9   1   39.90    5.00
   5   9  -1   41.10    5.40
   5   9  -1   52.89    4.80
  -5   9   1   58.29    6.30
  -5   9   1   53.59    6.10
   5   9  -1   40.70    5.30
   5   9  -1   44.40    5.30
   4  -9  -1  539.85   24.90
  -4  -9   1  546.55   24.20
  -4  -9   1  532.35   24.70
   4  -9  -1  510.85   25.00
   4  -9  -1  538.65   25.20
   4  -9  -1  498.45   24.50
   4  -9  -1  512.25   24.60
   4  -9  -1  489.05   24.20
  -4  -9   1  541.75   24.90
  -4   9   1  454.15   24.40
   4   9  -1  528.35   24.00
   4   9  -1  507.75   23.70
   4   9  -1  510.95   25.10
  -4   9   1  532.05   24.90
  -4   9   1  534.45   25.10
  -4   9   1  511.25   24.90
  -4   9   1  546.75   25.10
   4   9  -1  505.55   25.00
   4   9  -1  528.25   23.80
  -3  -9   1  432.56   19.30
   3  -9  -1  411.86   20.30
  -3  -9   1  432.26   20.10
   3  -9  -1  447.26   20.20
  -3  -9   1  445.36   19.60
  -3  -9   1  409.26   20.00
   3  -9  -1  435.66   19.70
   3  -9  -1  429.36   20.00
   3  -9  -1  402.56   19.10
  -3  -9   1  398.86   20.50
   3  -9  -1  392.66   20.50
  -3   9   1  421.76   20.30
  -3   9   1  415.96   20.20
   3   9  -1  419.06   20.50
   3   9  -1  423.66   19.40
   3   9  -1  442.46   19.70
   3   9  -1  417.46   19.40
  -3   9   1  413.36   20.10
  -3   9   1  405.36   20.50
   3   9  -1  373.36   20.30
   3   9  -1  439.96   19.30
   2  -9  -1    3.70    1.60
   2  -9  -1    0.00    1.40
  -2  -9   1    2.20    2.30
  -2  -9   1   -0.80    1.20
  -2  -9   1    1.90    1.70
   2  -9  -1    3.40    1.90
   2  -9  -1    0.40    2.10
   2  -9  -1    2.30    1.40
  -2  -9   1   -1.50    1.50
   2  -9  -1    0.60    1.70
  -2   9   1   -0.40    1.80
  -2   9   1    1.80    1.80
   2   9  -1    3.40    1.70
   2   9  -1    0.00    1.50
   2   9  -1    0.70    1.60
   2   9  -1    0.00    2.00
   2   9  -1    0.70    2.00
   2   9  -1   -0.50    1.30
  -2   9   1    2.50    2.20
   2   9  -1    2.90    1.40
  -2   9   1    0.40    1.60
  -2   9   1   -0.50    1.10
  -2   9   1    0.90    2.20
  -1  -9   1  587.64   25.70
   1  -9  -1  534.55   25.30
   1  -9  -1  533.05   26.40
   1  -9  -1  513.95   24.80
  -1  -9   1  609.04   25.50
  -1  -9   1  563.94   25.10
   1  -9  -1  534.85   25.90
  -1  -9   1  527.55   25.50
  -1  -9   1  593.54   26.70
   1  -9  -1  593.64   26.50
  -1  -9   1  564.04   26.00
   1  -9  -1  568.04   25.60
   1  -9  -1  578.24   25.80
   1   9  -1  580.94   25.20
   1   9  -1  579.24   26.20
   1   9  -1  562.54   25.40
  -1   9   1  574.24   26.00
  -1   9   1  563.14   25.70
  -1   9   1  556.64   25.90
   1   9  -1  587.64   26.10
   1   9  -1  583.54   25.20
   1   9  -1  573.84   25.00
  -1   9   1  601.54   26.50
  -1   9   1  497.55   25.40
   1   9  -1  573.84   25.20
  -1   9   1  588.64   25.70
   1   9  -1  556.84   25.30
   0  -9  -1 1978.90   85.99
   0  -9   1 2028.20   86.39
   0  -9   1 1943.51   85.49
   0  -9  -1 1951.10   86.09
   0  -9  -1 2005.40   86.29
   0  -9  -1 1968.60   86.19
   0  -9  -1 1993.50   86.99
   0  -9  -1 1980.60   86.79
   0  -9  -1 2008.10   86.19
   0  -9   1 2010.60   87.09
   0  -9  -1 1917.71   85.39
   0  -9   1 1971.10   85.99
   0  -9   1 1884.01   85.79
   0   9  -1 2004.10   85.89
   0   9   1 2012.80   86.59
   0   9  -1 2018.70   86.69
   0   9   1 1963.10   86.09
   0   9  -1 1922.51   86.49
   0   9  -1 2027.70   85.49
   0   9   1 1904.41   85.69
   0   9   1 2022.90   86.39
   0   9  -1 1952.70   85.69
   0   9  -1 1941.71   85.69
   0   9  -1 1888.61   85.49
   0   9   1 2011.80   86.79
   0   9  -1 1925.01   85.89
   0   9  -1 1921.31   85.69
   0   9   1 1989.40   86.19
   1  -9   1    9.10    1.60
  -1  -9  -1   12.70    1.90
   1  -9   1   12.10    2.00
   1  -9   1    8.60    2.20
  -1  -9  -1    8.90    2.10
   1  -9   1    9.10    2.60
   1  -9   1    7.50    1.90
  -1  -9  -1   19.70    3.40
  -1  -9  -1   11.70    2.40
   1  -9   1   11.30    1.60
  -1  -9  -1   11.00    2.00
   1  -9   1    9.60    2.20
   1  -9   1    9.80    1.70
  -1  -9  -1   10.90    2.20
  -1   9  -1    8.70    2.20
   1   9   1    8.10    2.00
  -1   9  -1    7.50    1.90
  -1   9  -1   11.10    1.90
   1   9   1    9.40    2.10
  -1   9  -1   10.40    2.00
   1   9   1    9.50    2.30
   1   9   1   11.10    2.50
   1   9   1   11.70    2.40
  -1   9  -1    8.50    2.40
  -1   9  -1   10.40    1.80
  -2  -9  -1  742.53   32.00
  -2  -9  -1  747.63   31.50
   2  -9   1  677.93   32.10
  -2  -9  -1  696.93   32.10
   2  -9   1  661.13   32.70
   2  -9   1  697.53   31.90
   2  -9   1  700.73   31.80
  -2  -9  -1  748.13   32.70
   2  -9   1  701.73   31.80
  -2  -9  -1  702.93   32.00
  -2  -9  -1  717.73   31.50
   2  -9   1  653.43   32.10
  -2   9  -1  661.63   31.90
   2   9   1  727.03   32.50
  -2   9  -1  657.73   31.90
   2   9   1  719.43   32.60
   2   9   1  706.03   32.00
   2   9   1  729.03   32.30
  -2   9  -1  693.43   32.60
   2   9   1  753.62   32.10
  -2   9  -1  685.33   31.90
  -2   9  -1  709.23   32.10
   2   9   1  692.53   31.90
   2   9   1  758.42   31.60
   3  -9   1  702.73   33.90
  -3  -9  -1  737.13   33.90
   3  -9   1  709.53   33.90
  -3  -9  -1  782.32   33.90
   3  -9   1  695.63   34.30
  -3  -9  -1  779.32   34.40
   3  -9   1  739.43   33.50
  -3  -9  -1  764.22   33.30
  -3  -9  -1  760.32   34.00
   3  -9   1  699.33   33.60
   3  -9   1  773.42   34.00
  -3  -9  -1  791.72   33.80
   3   9   1  767.72   33.80
  -3   9  -1  764.22   34.20
   3   9   1  736.93   33.70
   3   9   1  755.92   34.40
  -3   9  -1  700.23   34.20
   3   9   1  775.92   33.80
  -3   9  -1  692.33   33.90
  -3   9  -1  762.82   34.60
  -3   9  -1  731.23   34.00
   3   9   1  742.83   34.60
  -4  -9  -1   36.80    4.30
  -4  -9  -1   32.90    4.30
   4  -9   1   31.70    3.40
  -4  -9  -1   32.80    3.30
   4  -9   1   33.80    4.60
   4  -9   1   27.90    4.20
  -4  -9  -1   34.10    3.90
  -4  -9  -1   34.50    4.40
   4  -9   1   30.40    4.00
   4  -9   1   30.50    4.10
   4  -9   1   34.70    4.30
   4   9   1   27.00    4.00
   4   9   1   39.70    4.90
  -4   9  -1   32.10    4.40
   4   9   1   39.00    4.10
  -4   9  -1   25.90    4.40
   4   9   1   32.90    3.90
  -4   9  -1   30.60    4.30
   4   9   1   32.20    3.40
  -4   9  -1   30.90    2.90
  -4   9  -1   27.00    4.10
  -4   9  -1   17.80    3.80
  -5  -9  -1   63.49    5.30
   5  -9   1   59.39    6.20
   5  -9   1   62.19    6.20
   5  -9   1   59.39    6.00
   5  -9   1   62.19    6.80
   5  -9   1   72.59    6.70
  -5  -9  -1   65.79    6.00
  -5  -9  -1   71.39    6.80
  -5   9  -1   43.90    5.80
   5   9   1   70.29    6.30
   5   9   1   65.19    6.50
  -5   9  -1   62.39    6.50
   5   9   1   66.49    6.70
   5   9   1   73.29    6.90
  -5   9  -1   72.09    7.10
  -5   9  -1   52.99    6.60
  -5   9  -1   48.30    5.70
   5   9   1   70.09    6.10
  -6  -9  -1  208.58   13.10
   6  -9   1  209.98   13.10
   6  -9   1  230.08   13.80
  -6  -9  -1  237.98   12.70
   6  -9   1  220.08   13.10
   6   9   1  217.08   13.10
   6   9   1  227.18   12.50
   6   9   1  223.28   13.50
  -6   9  -1  205.98   13.40
  -6   9  -1  206.78   13.30
  -6   9  -1  211.38   14.00
  -6   9  -1  187.68   13.10
   6   9   1  226.08   12.40
   6   9   1  215.18   13.30
   6 -10  -1    6.30    3.60
   6 -10  -1    5.80    3.80
   6 -10  -1    6.00    3.90
  -6 -10   1   14.30    3.80
   6 -10  -1   10.20    3.40
   6 -10  -1    8.20    4.10
  -6 -10   1   10.80    4.00
  -6  10   1    7.90    3.90
  -6  10   1    9.80    4.60
   6  10  -1    5.90    3.60
   6  10  -1   11.20    3.20
   6  10  -1   12.90    3.20
  -6  10   1    7.70    4.10
   6  10  -1    6.80    3.70
   6  10  -1    3.80    3.40
   5 -10  -1   17.50    3.40
   5 -10  -1   21.70    4.60
  -5 -10   1   19.70    3.70
  -5 -10   1   22.40    4.30
   5 -10  -1   14.50    4.00
   5 -10  -1   21.60    4.50
   5 -10  -1   19.60    4.10
   5  10  -1   17.80    4.20
   5  10  -1   19.40    3.20
  -5  10   1   21.00    4.20
   5  10  -1   17.00    3.90
  -5  10   1   17.10    4.00
   5  10  -1   19.60    3.40
   5  10  -1   15.40    3.90
  -5  10   1   16.80    4.80
  -5  10   1   18.20    4.00
   4 -10  -1   10.40    3.10
  -4 -10   1    4.70    2.90
  -4 -10   1   11.50    2.70
  -4 -10   1    8.20    2.80
   4 -10  -1    7.00    3.40
   4 -10  -1    7.20    2.80
  -4 -10   1   13.00    3.50
   4 -10  -1    7.50    2.50
   4 -10  -1    6.30    3.00
   4  10  -1    6.90    3.10
   4  10  -1    9.00    3.10
  -4  10   1    5.80    3.00
   4  10  -1    5.70    2.40
   4  10  -1   10.00    2.50
   4  10  -1    8.20    2.20
  -4  10   1   11.10    3.30
  -4  10   1   12.30    4.00
  -4  10   1   12.70    3.20
   3 -10  -1   12.40    2.00
   3 -10  -1   11.90    2.90
   3 -10  -1    9.30    2.70
  -3 -10   1   11.00    2.60
  -3 -10   1    5.30    2.50
   3 -10  -1   12.00    3.40
   3 -10  -1   11.40    2.50
  -3 -10   1    9.50    3.00
   3  10  -1   13.10    2.40
  -3  10   1    9.20    3.30
   3  10  -1    9.90    3.00
   3  10  -1   15.10    3.20
  -3  10   1    8.90    2.90
  -3  10   1    8.20    3.20
  -3  10   1   12.40    2.90
   3  10  -1   13.30    2.20
   3  10  -1   10.10    2.30
  -2 -10   1   52.59    3.80
   2 -10  -1   47.10    3.80
   2 -10  -1   59.29    5.60
   2 -10  -1   57.59    4.40
  -2 -10   1   56.49    4.60
   2 -10  -1   62.99    4.80
   2 -10  -1   57.69    3.80
   2 -10  -1   55.39    4.70
  -2 -10   1   55.59    4.40
  -2 -10   1   60.89    5.50
   2 -10  -1   61.99    5.90
  -2  10   1   60.09    5.70
   2  10  -1   56.29    3.90
   2  10  -1   63.19    5.50
   2  10  -1   63.89    4.10
   2  10  -1   50.89    3.80
  -2  10   1   61.39    5.20
  -2  10   1   61.09    3.70
   2  10  -1   50.69    5.00
   2  10  -1   53.69    4.70
   2  10  -1   59.79    4.10
  -2  10   1   56.19    4.90
  -2  10   1   55.29    5.00
  -2  10   1   56.09    4.90
  -1 -10   1   74.39    5.30
   1 -10  -1   78.19    5.20
   1 -10  -1   62.39    4.50
  -1 -10   1   77.09    4.60
   1 -10  -1   70.59    5.90
  -1 -10   1   61.39    4.70
  -1 -10   1   79.29    6.10
   1 -10  -1   73.69    4.90
   1 -10  -1   74.79    5.60
  -1 -10   1   70.99    5.00
   1 -10  -1   71.79    5.70
   1  10  -1   78.59    4.40
   1  10  -1   73.69    4.50
  -1  10   1   85.99    5.40
  -1  10   1   79.09    6.20
  -1  10   1   78.89    5.50
  -1  10   1   67.59    4.70
   1  10  -1   66.89    4.70
   1  10  -1   77.49    5.60
   1  10  -1   80.79    5.70
  -1  10   1   74.39    5.20
   1  10  -1   75.59    4.60
   1  10  -1   76.29    4.10
  -1  10   1   73.59    5.40
   1  10  -1   75.89    4.30
   0 -10  -1    9.80    2.10
   0 -10  -1   14.50    2.30
   0 -10  -1   16.00    2.60
   0 -10   1   12.30    1.70
   0 -10   1   10.00    2.30
   0 -10  -1   12.90    1.50
   0 -10   1   12.90    2.20
   0 -10   1   14.30    2.10
   0 -10  -1   14.40    2.40
   0 -10  -1   14.90    3.20
   0 -10  -1   14.00    2.50
   0 -10   1   14.60    3.10
   0  10   1   13.40    2.60
   0  10   1    8.60    2.10
   0  10  -1   12.60    2.30
   0  10  -1   11.40    1.60
   0  10  -1    9.30    2.40
   0  10  -1   15.50    2.10
   0  10   1   12.30    2.50
   0  10  -1   11.00    1.90
   0  10  -1   14.80    2.30
   0  10   1   18.20    2.60
   0  10   1    9.90    2.70
   0  10  -1    9.00    2.60
   0  10  -1   12.00    2.00
  -1 -10  -1   62.09    5.60
  -1 -10  -1   70.69    4.30
  -1 -10  -1   72.99    4.50
  -1 -10  -1   75.69    4.90
   1 -10   1   59.59    4.10
   1 -10   1   62.59    4.30
   1 -10   1   68.49    4.60
   1 -10   1   69.89    4.60
   1 -10   1   62.99    5.60
  -1 -10  -1   77.09    5.00
  -1 -10  -1   73.09    5.10
   1 -10   1   64.19    4.70
   1 -10   1   67.49    5.20
   1  10   1   81.89    5.60
  -1  10  -1   73.99    4.50
  -1  10  -1   65.19    4.20
  -1  10  -1   62.49    4.60
  -1  10  -1   67.79    4.70
  -1  10  -1   68.69    5.80
   1  10   1   72.79    5.70
  -1  10  -1   67.29    5.30
   1  10   1   66.89    4.90
   1  10   1   78.79    4.90
   1  10   1   61.49    5.10
  -1  10  -1   78.89    5.30
  -2 -10  -1   42.20    4.00
   2 -10   1   35.00    3.90
   2 -10   1   43.10    5.00
  -2 -10  -1   48.30    5.10
   2 -10   1   40.30    4.30
   2 -10   1   36.10    3.80
   2 -10   1   45.10    4.00
  -2 -10  -1   51.69    4.10
  -2 -10  -1   45.30    4.20
  -2 -10  -1   48.80    3.50
   2 -10   1   40.30    3.20
   2  10   1   39.40    4.10
   2  10   1   47.10    3.40
   2  10   1   40.20    4.60
  -2  10  -1   40.90    4.60
  -2  10  -1   43.30    4.20
  -2  10  -1   41.90    4.10
  -2  10  -1   39.00    3.70
   2  10   1   52.09    5.00
   2  10   1   45.40    4.60
   2  10   1   48.20    4.40
   2  10   1   47.10    4.10
  -2  10  -1   32.20    3.90
  -3 -10  -1    3.00    2.10
   3 -10   1    2.40    2.30
  -3 -10  -1   -0.60    1.40
   3 -10   1    1.20    2.10
  -3 -10  -1    0.20    1.90
   3 -10   1   -1.00    1.80
  -3 -10  -1   -1.50    2.00
  -3 -10  -1    0.50    2.40
   3 -10   1    0.30    2.10
   3 -10   1    2.30    2.00
  -3  10  -1   -0.90    2.10
   3  10   1    2.00    2.00
  -3  10  -1    0.90    2.30
  -3  10  -1    1.40    2.40
   3  10   1    2.90    2.40
  -3  10  -1   -0.90    2.40
   3  10   1    4.90    2.60
   3  10   1   -0.80    2.00
   3  10   1   -2.90    2.40
  -3  10  -1    1.10    2.70
   4 -10   1   31.40    4.20
  -4 -10  -1   22.90    3.70
  -4 -10  -1   24.10    4.00
   4 -10   1   24.60    4.50
   4 -10   1   24.90    3.20
  -4 -10  -1   28.80    3.10
   4 -10   1   21.70    3.90
   4 -10   1   25.70    4.10
  -4 -10  -1   23.20    3.90
   4 -10   1   22.00    3.50
  -4  10  -1   19.20    3.80
  -4  10  -1   23.80    3.90
  -4  10  -1   25.60    4.70
  -4  10  -1   27.20    4.40
   4  10   1   26.40    3.70
  -4  10  -1   29.20    4.40
   4  10   1   21.70    4.30
   4  10   1   25.30    4.20
   4  10   1   22.00    3.10
   4  10   1   30.30    3.90
   5 -10   1   17.80    5.80
  -5 -10  -1   15.70    3.40
  -5 -10  -1   22.70    4.30
   5 -10   1   11.10    3.80
   5 -10   1   17.30    4.30
   5 -10   1   13.90    3.70
  -5  10  -1   19.30    4.30
  -5  10  -1   17.80    4.00
  -5  10  -1   24.60    4.80
  -5  10  -1   15.80    3.80
   5  10   1   18.60    3.50
   5  10   1   15.40    4.00
  -5  10  -1   17.60    4.40
   5  10   1   18.70    4.30
   5  10   1   16.00    4.10
   5  10   1   11.20    3.20
   6 -10   1    4.60    3.50
  -6 -10  -1    2.90    3.10
   6 -10   1    3.70    3.70
  -6 -10  -1   10.10    3.70
   6 -10   1    3.70    3.60
   6 -10   1   -2.20    2.80
   6  10   1    5.40    3.60
   6  10   1   -3.30    2.30
  -6  10  -1    0.80    3.70
   6  10   1    0.30    3.20
  -6  10  -1   -0.20    3.60
   6  10   1    0.20    3.00
  -6  10  -1   -2.60    3.40
  -6  10  -1    0.20    3.30
   6  10   1    0.50    2.70
   6 -11  -1   27.50    4.40
   6 -11  -1   40.00    5.70
  -6 -11   1   29.70    5.00
   6 -11  -1   29.00    5.70
   6 -11  -1   21.90    5.10
   6 -11  -1   31.90    5.70
  -6 -11   1   25.90    5.10
  -6  11   1   39.60    6.60
   6  11  -1   37.50    4.30
   6  11  -1   25.80    5.10
  -6  11   1   34.50    5.80
   6  11  -1   33.40    5.70
   6  11  -1   36.20    5.80
  -6  11   1   33.60    6.10
   5 -11  -1    7.50    3.60
  -5 -11   1    5.70    2.90
   5 -11  -1    7.70    4.00
  -5 -11   1    9.70    3.50
   5 -11  -1   17.10    3.40
   5 -11  -1   13.40    4.00
   5 -11  -1    3.80    3.10
  -5  11   1    6.60    3.50
  -5  11   1    4.50    4.00
   5  11  -1    9.60    3.80
   5  11  -1    7.80    2.50
   5  11  -1    7.80    3.30
  -5  11   1    9.90    3.80
  -5  11   1    5.50    3.40
   5  11  -1   10.40    3.80
   5  11  -1    6.80    2.70
   4 -11  -1  167.48   10.00
   4 -11  -1  176.78   11.40
   4 -11  -1  187.88   11.20
   4 -11  -1  185.88   10.60
  -4 -11   1  173.68   11.10
  -4 -11   1  180.68   10.50
   4 -11  -1  180.08   10.80
  -4 -11   1  177.78   10.60
   4  11  -1  183.28    9.70
  -4  11   1  177.58   10.80
   4  11  -1  182.68   11.10
  -4  11   1  171.38   11.30
  -4  11   1  175.68   11.40
   4  11  -1  185.28    9.50
   4  11  -1  158.98   10.90
  -4  11   1  192.18   11.00
   3 -11  -1  130.49    8.10
   3 -11  -1  129.79    8.90
  -3 -11   1  127.49    8.10
   3 -11  -1  130.99    7.80
  -3 -11   1  135.29    8.10
  -3 -11   1  118.69    8.70
   3 -11  -1  131.89    8.30
  -3  11   1  127.59    8.40
   3  11  -1  120.79    7.30
  -3  11   1  137.39    9.10
   3  11  -1  125.39    7.10
  -3  11   1  132.19    8.20
   3  11  -1  129.59    8.80
  -3  11   1  128.29    9.10
  -3  11   1  140.59    8.50
   3  11  -1  128.69    7.90
   3  11  -1  140.49    8.90
  -2 -11   1    6.70    2.20
  -2 -11   1    5.60    1.80
   2 -11  -1    5.80    2.20
   2 -11  -1    7.90    2.50
   2 -11  -1    5.80    2.50
   2 -11  -1    8.90    2.90
   2 -11  -1    9.20    3.20
  -2 -11   1    3.10    2.10
   2 -11  -1    5.30    1.60
  -2 -11   1    5.90    2.90
  -2  11   1    5.00    1.40
  -2  11   1    0.70    2.70
  -2  11   1    2.50    2.30
  -2  11   1    3.20    2.70
  -2  11   1    3.50    2.30
  -2  11   1    6.10    2.40
   2  11  -1    7.90    3.00
   2  11  -1    5.70    2.00
   2  11  -1    4.70    1.80
   2  11  -1    5.90    1.80
   2  11  -1    9.80    3.00
   2  11  -1    2.60    2.10
   2  11  -1    3.10    1.80
  -1 -11   1  334.37   16.50
   1 -11  -1  340.47   16.40
   1 -11  -1  330.27   16.10
  -1 -11   1  340.47   16.20
  -1 -11   1  336.47   17.40
  -1 -11   1  358.36   15.80
   1 -11  -1  309.97   17.00
   1 -11  -1  341.57   17.10
  -1 -11   1  290.97   15.90
   1 -11  -1  306.97   15.60
   1  11  -1  341.77   15.30
  -1  11   1  349.77   16.30
   1  11  -1  338.77   15.70
  -1  11   1  358.56   16.80
   1  11  -1  344.77   15.60
   1  11  -1  353.46   15.70
   1  11  -1  336.37   16.00
  -1  11   1  346.17   16.50
   1  11  -1  342.77   16.90
  -1  11   1  344.27   17.30
   1  11  -1  341.97   16.80
  -1  11   1  340.87   16.30
   0 -11   1  240.88   11.50
   0 -11   1  231.18   11.90
   0 -11   1  230.98   10.80
   0 -11  -1  226.28   10.70
   0 -11   1  229.08   12.70
   0 -11   1  216.58   11.30
   0 -11  -1  236.08   11.40
   0 -11  -1  247.98   11.90
   0 -11  -1  225.08   11.60
   0 -11  -1  234.08   11.80
   0 -11  -1  224.58   11.50
   0 -11  -1  223.88   12.60
   0  11  -1  240.38   11.20
   0  11   1  233.08   11.70
   0  11  -1  225.18   12.50
   0  11   1  235.28   12.00
   0  11   1  239.58   12.60
   0  11  -1  226.58   12.20
   0  11  -1  215.18   11.20
   0  11  -1  217.48   11.50
   0  11  -1  237.78   11.30
   0  11  -1  253.57   11.60
   0  11   1  236.08   12.20
   0  11   1  234.38   11.30
   1 -11   1    4.80    1.80
  -1 -11  -1    2.80    2.20
   1 -11   1    4.10    2.00
  -1 -11  -1    0.50    1.80
   1 -11   1    6.80    1.50
  -1 -11  -1    3.70    1.70
  -1 -11  -1    4.60    2.20
  -1 -11  -1    5.50    2.80
   1 -11   1    5.80    1.90
   1 -11   1    3.10    2.50
  -1 -11  -1    1.40    1.50
   1 -11   1    3.30    2.10
  -1  11  -1    5.20    1.80
   1  11   1    4.90    2.30
  -1  11  -1    3.80    1.50
  -1  11  -1    3.10    2.20
   1  11   1    6.20    2.60
  -1  11  -1    3.20    1.80
  -1  11  -1    2.90    2.40
  -1  11  -1    9.80    2.60
   1  11   1    3.30    2.10
  -1  11  -1    2.20    1.80
   1  11   1    2.10    2.30
  -2 -11  -1  247.98   11.90
   2 -11   1  247.08   12.90
   2 -11   1  252.17   12.40
   2 -11   1  234.48   12.50
  -2 -11  -1  258.07   13.80
   2 -11   1  225.18   12.90
   2 -11   1  236.08   11.80
  -2 -11  -1  274.17   13.00
  -2 -11  -1  274.07   12.60
  -2 -11  -1  247.78   12.80
   2 -11   1  238.48   13.60
   2  11   1  257.27   13.50
  -2  11  -1  242.08   12.70
   2  11   1  236.48   12.60
   2  11   1  262.07   12.90
  -2  11  -1  232.68   13.70
   2  11   1  262.47   13.30
  -2  11  -1  252.47   12.80
  -2  11  -1  264.17   13.20
   2  11   1  256.17   13.50
  -2  11  -1  243.78   12.40
  -3 -11  -1  215.38   10.80
   3 -11   1  186.08   10.90
   3 -11   1  189.98   11.10
  -3 -11  -1  195.88   10.80
  -3 -11  -1  191.48    9.70
   3 -11   1  209.38   10.70
  -3 -11  -1  193.18   10.80
   3 -11   1  191.68   11.80
  -3 -11  -1  198.28   11.60
   3 -11   1  199.38   10.80
  -3  11  -1  194.08   11.10
   3  11   1  217.78   12.10
   3  11   1  221.48   11.20
   3  11   1  179.88   10.50
  -3  11  -1  188.88   10.80
  -3  11  -1  204.28   11.50
   3  11   1  197.78   10.70
  -3  11  -1  172.88   10.80
  -3  11  -1  192.18   11.80
   3  11   1  191.48   11.30
  -4 -11  -1   10.00    3.20
   4 -11   1   13.10    3.40
   4 -11   1   11.10    3.10
   4 -11   1    9.00    3.30
   4 -11   1    5.00    3.20
   4 -11   1   12.90    3.20
  -4 -11  -1    8.50    2.90
  -4 -11  -1   10.40    3.50
  -4  11  -1    4.70    3.20
  -4  11  -1   11.50    3.50
   4  11   1   11.90    3.90
   4  11   1   13.30    3.00
   4  11   1   11.40    3.00
  -4  11  -1    7.00    3.60
  -4  11  -1   11.00    3.40
   4  11   1    7.60    3.30
  -4  11  -1    8.40    3.20
   4  11   1   10.40    2.70
   5 -11   1   52.39    6.30
  -5 -11  -1   70.29    6.20
  -5 -11  -1   60.69    6.50
   5 -11   1   61.59    7.10
   5 -11   1   56.69    5.90
   5 -11   1   52.79    5.90
   5  11   1   71.69    7.40
  -5  11  -1   63.09    7.10
   5  11   1   56.79    6.50
  -5  11  -1   57.19    6.60
   5  11   1   69.89    6.40
  -5  11  -1   52.89    6.30
  -5  11  -1   59.09    6.70
   5  11   1   57.69    5.80
  -5  11  -1   56.79    6.50
  -6 -11  -1   67.99    7.80
   6 -11   1   68.89    7.50
  -6 -11  -1   57.49    6.30
   6 -11   1   60.39    7.00
   6 -11   1   56.39    6.60
  -6  11  -1   59.09    8.30
   6  11   1   63.89    7.20
   6  11   1   66.29    6.70
  -6  11  -1   86.79   12.00
  -6  11  -1   49.30    7.10
   6  11   1   55.79    7.10
   6  11   1   61.19    6.40
   6 -12  -1   87.99    7.80
   6 -12  -1   85.09    8.70
   6 -12  -1   83.69    8.70
   6  12  -1   78.39    8.20
   6  12  -1  101.19    6.70
   5 -12  -1  184.68   12.20
  -5 -12   1  210.88   12.40
   5 -12  -1  179.08   11.90
   5 -12  -1  208.88   13.00
  -5 -12   1  192.18   11.80
   5 -12  -1  202.18   12.80
   5 -12  -1  189.08   11.50
   5  12  -1  217.98   13.10
  -5  12   1  204.48   12.60
   5  12  -1  188.38   12.30
   5  12  -1  193.18   12.60
  -5  12   1  212.48   13.30
  -5  12   1  208.88   12.60
   5  12  -1  206.98   10.80
  -5  12   1  202.08   13.00
  -4 -12   1   38.80    5.00
   4 -12  -1   38.90    5.20
   4 -12  -1   43.50    5.80
  -4 -12   1   50.09    6.20
  -4 -12   1   34.80    4.60
   4 -12  -1   36.60    4.50
   4 -12  -1   44.50    5.30
   4  12  -1   44.20    5.80
  -4  12   1   61.79    6.50
   4  12  -1   45.30    4.50
  -4  12   1   42.50    5.80
  -4  12   1   48.50    5.30
   4  12  -1   44.70    5.60
   4  12  -1   48.10    4.20
  -4  12   1   47.40    5.60
  -3 -12   1  211.08   13.10
   3 -12  -1  221.08   12.10
   3 -12  -1  211.28   12.10
   3 -12  -1  219.18   11.70
  -3 -12   1  225.48   12.10
  -3 -12   1  233.08   11.90
   3 -12  -1  214.58   12.90
   3  12  -1  211.68   11.00
  -3  12   1  219.98   12.30
   3  12  -1  212.08   11.40
  -3  12   1  205.88   12.00
   3  12  -1  214.68   12.80
   3  12  -1  222.28   12.00
  -3  12   1  231.48   13.30
   3  12  -1  237.98   12.90
  -3  12   1  232.08   12.50
  -3  12   1  236.68   12.90
   2 -12  -1  640.34   29.60
  -2 -12   1  646.34   29.90
   2 -12  -1  668.83   31.10
   2 -12  -1  579.44   28.70
  -2 -12   1  686.93   31.10
   2 -12  -1  663.83   30.00
   2 -12  -1  680.43   30.80
   2 -12  -1  637.84   29.90
  -2 -12   1  661.53   29.50
   2  12  -1  685.93   30.70
  -2  12   1  643.34   29.90
   2  12  -1  633.64   29.20
   2  12  -1  627.04   29.10
   2  12  -1  652.43   30.00
   2  12  -1  594.54   30.60
  -2  12   1  663.53   30.90
  -2  12   1  646.44   30.10
  -2  12   1  628.54   29.90
  -2  12   1  637.74   30.10
   1 -12  -1  183.68    9.70
  -1 -12   1  182.18   10.20
  -1 -12   1  191.78   10.70
  -1 -12   1  185.88   11.60
   1 -12  -1  200.68   10.60
   1 -12  -1  202.08   10.30
  -1 -12   1  205.58    9.90
  -1 -12   1  182.38   10.30
   1 -12  -1  209.48   11.50
   1 -12  -1  185.18   11.40
  -1  12   1  186.58   11.60
   1  12  -1  195.08   10.20
   1  12  -1  203.88   11.20
  -1  12   1  207.18   10.80
   1  12  -1  206.88    9.80
  -1  12   1  205.18   10.60
   1  12  -1  209.08   11.20
  -1  12   1  207.58   11.10
   1  12  -1  191.28    9.90
  -1  12   1  194.98   10.60
   0 -12  -1  245.58   12.30
   0 -12  -1  241.88   12.00
   0 -12   1  205.78   11.80
   0 -12   1  238.08   12.50
   0 -12  -1  249.68   13.40
   0 -12   1  222.28   13.30
   0 -12  -1  238.98   12.50
   0 -12  -1  251.47   12.10
   0 -12   1  254.17   12.10
   0 -12   1  240.98   11.30
   0 -12  -1  238.88   11.20
   0 -12  -1  255.07   12.50
   0  12  -1  258.97   11.90
   0  12   1  242.18   13.30
   0  12   1  257.57   13.10
   0  12   1  235.18   12.30
   0  12  -1  221.78   12.10
   0  12  -1  253.27   12.00
   0  12   1  245.18   11.90
   0  12  -1  259.17   12.20
   0  12  -1  251.77   13.30
   0  12  -1  239.88   13.00
  -1 -12  -1  751.12   32.10
   1 -12   1  704.03   32.10
   1 -12   1  696.03   32.80
  -1 -12  -1  711.73   33.80
   1 -12   1  690.13   33.70
  -1 -12  -1  736.13   32.60
   1 -12   1  691.93   32.40
   1 -12   1  713.33   32.20
  -1 -12  -1  720.63   32.80
  -1 -12  -1  683.23   32.80
  -1 -12  -1  715.43   32.10
  -1  12  -1  704.23   32.40
   1  12   1  744.03   32.70
   1  12   1  701.53   33.00
  -1  12  -1  732.93   32.60
  -1  12  -1  744.83   34.10
   1  12   1  735.03   33.40
  -1  12  -1  676.93   31.70
  -1  12  -1  728.63   32.60
  -1  12  -1  731.33   33.70
  -1  12  -1  715.23   33.30
   1  12   1  732.93   33.50
   2 -12   1  254.27   13.80
  -2 -12  -1  271.47   13.80
  -2 -12  -1  266.67   12.70
   2 -12   1  262.07   14.80
   2 -12   1  262.57   13.50
  -2 -12  -1  283.17   13.40
   2 -12   1  243.58   13.90
   2 -12   1  261.07   13.30
  -2 -12  -1  265.07   13.80
  -2 -12  -1  262.37   14.70
   2 -12   1  257.17   12.70
   2  12   1  266.87   13.50
  -2  12  -1  244.78   13.00
   2  12   1  287.27   14.70
  -2  12  -1  269.17   13.70
  -2  12  -1  274.87   14.10
   2  12   1  264.07   13.70
   2  12   1  278.67   14.30
   2  12   1  299.97   14.70
  -2  12  -1  267.17   13.70
  -2  12  -1  285.67   14.90
   3 -12   1   45.30    4.90
   3 -12   1   48.20    5.00
  -3 -12  -1   47.30    5.90
  -3 -12  -1   48.60    5.00
  -3 -12  -1   47.10    4.60
   3 -12   1   36.80    4.80
   3 -12   1   40.80    4.50
   3 -12   1   47.30    6.30
  -3 -12  -1   42.00    3.60
   3  12   1   52.09    4.90
  -3  12  -1   46.30    5.50
  -3  12  -1   47.30    4.70
   3  12   1   52.29    5.00
  -3  12  -1   50.09    5.30
  -3  12  -1   48.80    5.00
   3  12   1   48.20    5.00
   3  12   1   46.50    5.40
   3  12   1   49.99    5.80
  -3  12  -1   45.70    5.70
   4 -12   1  266.97   16.30
  -4 -12  -1  338.97   16.60
   4 -12   1  314.17   17.60
   4 -12   1  311.87   16.20
  -4 -12  -1  301.77   16.30
  -4 -12  -1  361.26   17.40
   4 -12   1  291.77   16.30
   4 -12   1  316.27   16.50
  -4  12  -1  295.77   16.60
   4  12   1  341.27   18.20
   4  12   1  319.67   16.10
  -4  12  -1  310.97   16.60
   4  12   1  327.07   17.10
  -4  12  -1  327.77   17.20
  -4  12  -1  307.07   16.70
  -4  12  -1  304.37   17.20
   4  12   1  324.87   17.40
   4  12   1  335.57   16.10
   5 -12   1  143.69    9.50
  -5 -12  -1  145.59    9.50
   5 -12   1  132.09    9.50
   5 -12   1  139.49    9.80
  -5 -12  -1  148.59    9.80
   5 -12   1  117.59   10.00
   5  12   1  144.99    9.20
  -5  12  -1  127.89   10.10
  -5  12  -1  129.89    9.80
  -5  12  -1  133.59   10.60
   5  12   1  157.78   10.40
  -5  12  -1  140.09   10.20
  -5  12  -1  139.19   10.50
   5  12   1  143.99    9.00
   5  12   1  147.39   10.70
   6 -12   1   -4.90    3.30
   6 -12   1    7.20    3.50
   6 -12   1    8.70    4.20
   6  12   1    4.30    3.30
   6  12   1    2.60    4.50
  -6  12  -1   -1.20    3.60
   6 -13  -1   26.00    5.80
   6  13  -1   18.00    5.00
   6  13  -1   23.70    3.70
   5 -13  -1    6.40    4.10
  -5 -13   1   19.00    4.30
  -5 -13   1   14.00    3.70
   5 -13  -1   11.10    4.00
   5 -13  -1   13.10    4.20
   5 -13  -1   16.70    3.60
   5  13  -1    9.50    4.30
  -5  13   1    8.60    4.10
  -5  13   1    8.20    4.60
   5  13  -1   12.50    4.10
  -5  13   1   13.70    4.50
   5  13  -1   11.50    2.80
   5  13  -1   16.70    4.80
  -5  13   1   10.50    4.00
  -4 -13   1  119.49    8.20
   4 -13  -1  117.59    8.20
  -4 -13   1   97.79    8.80
   4 -13  -1  114.79    9.10
   4 -13  -1  117.09    8.40
  -4 -13   1   95.79    7.80
   4 -13  -1  109.49    7.70
   4  13  -1  117.69    6.80
  -4  13   1  111.59    8.90
   4  13  -1   98.09    8.70
   4  13  -1  103.69    7.60
   4  13  -1  105.69    9.00
  -4  13   1  110.99    8.50
  -4  13   1  104.99    8.10
  -4  13   1  119.29    9.60
  -4  13   1  126.39    9.70
   3 -13  -1   54.89    6.30
   3 -13  -1   61.59    7.10
   3 -13  -1   53.39    5.60
  -3 -13   1   47.60    4.90
  -3 -13   1   41.60    4.80
   3 -13  -1   46.50    4.80
   3 -13  -1   56.59    5.60
  -3 -13   1   61.19    6.90
   3  13  -1   47.90    4.70
  -3  13   1   66.79    6.50
  -3  13   1   60.09    6.00
   3  13  -1   51.89    6.00
  -3  13   1   51.19    6.00
  -3  13   1   47.10    5.30
   3  13  -1   44.10    5.00
   3  13  -1   59.99    6.50
  -3  13   1   41.80    5.70
   3  13  -1   48.90    4.30
  -2 -13   1    3.20    3.00
   2 -13  -1    2.20    2.50
  -2 -13   1   -1.90    1.90
   2 -13  -1   -1.60    2.80
   2 -13  -1    2.70    2.80
   2 -13  -1    1.80    2.20
  -2 -13   1    1.20    2.20
   2 -13  -1   -0.70    2.90
  -2  13   1   -1.10    3.00
   2  13  -1    1.90    2.50
  -2  13   1    0.90    2.90
   2  13  -1   -2.70    2.40
   2  13  -1   -0.70    1.80
   2  13  -1    2.10    3.00
  -2  13   1    0.40    2.50
  -2  13   1    0.10    2.50
   2  13  -1    2.20    1.90
  -2  13   1    1.60    2.40
  -1 -13   1  130.39    7.40
  -1 -13   1  139.69    8.10
   1 -13  -1  132.99    7.30
   1 -13  -1  134.59    8.20
   1 -13  -1  142.69    9.20
  -1 -13   1  146.19    9.50
   1 -13  -1  135.89    8.20
   1 -13  -1  131.49    8.00
  -1 -13   1  140.79    8.50
   1 -13  -1  129.99    8.00
   1 -13  -1  130.29    9.20
  -1  13   1  147.79    8.60
  -1  13   1  145.49    9.00
  -1  13   1  135.19    8.30
  -1  13   1  138.49    9.50
  -1  13   1  138.09    8.50
   1  13  -1  137.29    8.00
   1  13  -1  138.59    7.70
   1  13  -1  143.59    7.60
   1  13  -1  138.99    9.00
   1  13  -1  134.19    9.00
   0 -13  -1  255.97   13.10
   0 -13  -1  268.27   14.90
   0 -13   1  266.77   13.50
   0 -13   1  257.47   14.00
   0 -13   1  270.87   12.80
   0 -13  -1  275.97   13.80
   0 -13   1  267.87   14.10
   0 -13   1  276.27   15.20
   0 -13  -1  277.87   13.90
   0 -13  -1  268.77   13.40
   0 -13  -1  271.47   13.40
   0 -13  -1  271.57   13.90
   0  13  -1  266.07   14.60
   0  13   1  267.17   14.40
   0  13   1  276.27   13.90
   0  13  -1  274.27   13.40
   0  13  -1  280.27   13.70
   0  13   1  293.47   15.20
   0  13   1  285.67   13.50
   0  13  -1  289.27   15.00
   0  13  -1  298.87   13.70
   1 -13   1    4.40    1.70
  -1 -13  -1   -0.70    1.50
   1 -13   1   -0.60    1.90
   1 -13   1    4.00    1.90
   1 -13   1    4.00    2.40
  -1 -13  -1    2.80    1.70
  -1 -13  -1    1.90    2.20
  -1 -13  -1    2.50    3.00
   1 -13   1    5.00    3.20
  -1 -13  -1    0.00    2.20
  -1  13  -1    1.50    2.30
   1  13   1   -2.50    2.30
  -1  13  -1    3.90    2.30
   1  13   1   -2.10    2.00
  -1  13  -1    2.20    2.60
   1  13   1    3.90    2.60
  -1  13  -1   -2.00    2.20
  -1  13  -1    4.20    2.80
   1  13   1    0.20    2.60
   2 -13   1  147.59    9.50
   2 -13   1  152.68    8.20
   2 -13   1  147.39    8.90
   2 -13   1  147.89    9.00
  -2 -13  -1  173.88    8.80
  -2 -13  -1  152.78    8.00
   2 -13   1  167.38    9.60
   2 -13   1  149.29   10.40
  -2 -13  -1  163.58    9.40
  -2 -13  -1  152.98   10.50
  -2  13  -1  157.98    9.30
   2  13   1  162.68   10.00
  -2  13  -1  177.88   10.00
   2  13   1  165.68   10.20
  -2  13  -1  160.68   10.60
  -2  13  -1  142.09    8.80
  -2  13  -1  151.48    9.20
   2  13   1  144.09    8.90
   2  13   1  150.48    9.30
   2  13   1  154.98   10.00
  -2  13  -1  173.68   10.10
   3 -13   1  116.79    8.10
  -3 -13  -1  129.39    7.80
   3 -13   1  124.99    9.50
   3 -13   1  100.29    8.10
   3 -13   1  122.69    8.00
  -3 -13  -1  134.29    9.40
   3 -13   1  121.89    7.80
  -3 -13  -1  109.69    7.80
  -3  13  -1  125.09    9.40
   3  13   1  107.09    7.70
  -3  13  -1  111.19    8.00
   3  13   1  124.29    8.70
   3  13   1  119.99    9.20
   3  13   1  123.29    8.50
  -3  13  -1  125.89    9.10
  -3  13  -1  117.89    7.70
   3  13   1  124.39    8.00
  -3  13  -1  113.39    8.30
  -4 -13  -1    6.80    3.10
   4 -13   1    4.40    2.90
  -4 -13  -1    8.10    3.80
   4 -13   1    3.10    3.90
   4 -13   1   -0.30    2.80
  -4 -13  -1    4.50    3.00
   4 -13   1    6.40    2.90
   4 -13   1    0.80    2.70
  -4  13  -1    1.20    3.70
  -4  13  -1    1.70    3.00
   4  13   1    4.90    3.00
   4  13   1    5.30    2.90
  -4  13  -1    4.10    3.30
  -4  13  -1   -1.50    3.10
   4  13   1    2.00    3.60
  -4  13  -1    4.30    3.20
   4  13   1    6.10    3.50
   5 -13   1   17.50    4.40
   5 -13   1   13.30    4.00
  -5 -13  -1   24.70    4.30
  -5 -13  -1   18.40    4.20
   5 -13   1   20.90    4.30
   5  13   1   15.60    4.70
  -5  13  -1   24.00    5.40
   5  13   1   16.00    4.30
   5  13   1   18.20    4.00
  -5  13  -1   21.50    4.90
  -5  13  -1   17.90    4.50
   5  13   1   17.60    3.70
  -5  13  -1   21.60    4.70
   5 -14  -1    9.20    3.40
   5 -14  -1   10.20    4.20
   5 -14  -1   12.40    4.30
  -5 -14   1    5.80    3.40
   5 -14  -1    8.20    3.70
  -5 -14   1    8.00    3.60
   5  14  -1   12.00    2.90
  -5  14   1   10.20    4.80
   5  14  -1    4.10    4.10
   5  14  -1    8.20    4.30
   5  14  -1    8.40    4.10
  -5  14   1    9.70    4.60
  -5  14   1    8.40    4.20
  -5  14   1    9.20    4.20
   4 -14  -1   10.70    3.70
   4 -14  -1    8.60    3.80
   4 -14  -1    2.60    4.40
   4 -14  -1    7.30    3.30
  -4 -14   1    8.60    4.00
  -4 -14   1    5.00    3.00
   4 -14  -1    6.30    2.80
  -4 -14   1    9.80    3.10
  -4  14   1    1.70    3.70
   4  14  -1    2.20    2.20
   4  14  -1    5.30    3.70
  -4  14   1   11.20    4.50
  -4  14   1   11.80    3.40
  -4  14   1    8.00    3.70
  -4  14   1    2.60    3.70
   4  14  -1    3.80    3.50
   3 -14  -1    1.70    2.40
   3 -14  -1    7.60    3.30
  -3 -14   1    2.50    2.50
   3 -14  -1   -0.50    3.60
   3 -14  -1   -0.10    2.70
  -3 -14   1    0.10    2.50
  -3 -14   1    6.20    3.90
   3 -14  -1    5.50    3.40
   3  14  -1   -1.10    2.80
  -3  14   1    1.90    2.80
  -3  14   1    1.30    3.60
  -3  14   1   -0.90    3.50
   3  14  -1    0.90    3.20
   3  14  -1    3.30    2.30
  -3  14   1   -0.80    3.00
   3  14  -1    5.40    2.20
  -3  14   1    4.20    2.90
   3  14  -1    3.70    2.90
   2 -14  -1   32.00    4.90
   2 -14  -1   40.50    4.50
  -2 -14   1   41.00    4.70
   2 -14  -1   58.19    6.90
  -2 -14   1   46.90    6.00
   2 -14  -1   46.20    5.10
   2 -14  -1   48.50    5.50
  -2 -14   1   42.90    4.20
  -2  14   1   44.20    5.90
  -2  14   1   42.40    5.20
   2  14  -1   43.20    5.50
   2  14  -1   35.60    4.70
   2  14  -1   32.10    3.90
   2  14  -1   33.80    5.20
  -2  14   1   55.19    5.70
  -2  14   1   38.40    4.90
  -2  14   1   47.30    5.40
   2  14  -1   36.50    3.90
   1 -14  -1    5.40    3.30
   1 -14  -1    2.90    2.30
  -1 -14   1   -2.70    2.30
  -1 -14   1    1.80    1.80
   1 -14  -1    5.60    3.00
   1 -14  -1    2.20    2.30
  -1 -14   1    3.60    2.40
   1 -14  -1    1.70    2.10
   1 -14  -1    1.40    2.00
  -1 -14   1    4.80    3.20
   1 -14  -1    2.80    2.90
  -1  14   1   -0.90    2.60
   1  14  -1   -2.60    2.40
   1  14  -1   -0.90    2.00
   1  14  -1    4.40    2.10
   1  14  -1   -0.10    2.60
  -1  14   1   -1.90    2.50
   1  14  -1    0.40    2.10
  -1  14   1    2.40    2.80
  -1  14   1    4.10    2.80
  -1  14   1    6.30    3.50
   0 -14  -1    4.70    2.00
   0 -14  -1    4.00    2.40
   0 -14  -1    2.90    2.20
   0 -14   1    5.60    2.70
   0 -14   1    4.70    3.20
   0 -14   1    1.40    2.10
   0 -14  -1    8.30    3.60
   0 -14  -1    2.70    2.00
   0 -14  -1    2.30    2.30
   0  14  -1    2.70    2.90
   0  14   1   -3.00    2.80
   0  14  -1    1.40    2.50
   0  14   1    6.00    2.50
   0  14   1    7.90    2.80
   0  14   1    0.40    2.40
   0  14  -1    3.90    2.20
   0  14  -1    1.40    2.80
   0  14   1    6.90    3.10
  -1 -14  -1   16.20    2.40
   1 -14   1   21.10    3.50
  -1 -14  -1   13.50    2.30
   1 -14   1   16.40    2.60
  -1 -14  -1   14.90    5.10
  -1 -14  -1   15.90    3.10
   1 -14   1   20.60    4.30
  -1 -14  -1   21.10    4.50
   1 -14   1   17.10    2.70
  -1  14  -1   15.40    3.90
  -1  14  -1   15.80    3.50
  -1  14  -1   15.60    3.60
   1  14   1    6.60    3.40
  -1  14  -1   17.60    3.20
   1  14   1   12.60    3.60
   1  14   1   15.50    3.50
   1  14   1   21.90    3.40
  -1  14  -1   16.00    3.30
  -2 -14  -1    5.10    2.30
   2 -14   1    0.30    3.10
  -2 -14  -1    6.00    3.70
   2 -14   1    4.80    2.00
   2 -14   1    2.40    2.60
   2 -14   1    6.60    2.90
  -2 -14  -1    5.00    2.60
  -2  14  -1    7.20    2.80
   2  14   1    2.80    2.50
  -2  14  -1    6.20    3.20
   2  14   1    6.20    3.20
   2  14   1    2.80    3.00
  -2  14  -1    0.50    3.20
  -2  14  -1    6.00    2.80
  -2  14  -1    1.40    3.10
   2  14   1    7.00    3.10
   2  14   1    3.10    3.10
   3 -14   1    3.60    2.80
   3 -14   1    1.70    2.70
   3 -14   1    1.50    3.60
   3 -14   1    1.90    2.60
  -3 -14  -1    4.20    3.80
  -3 -14  -1    1.30    2.50
  -3 -14  -1   -3.30    2.30
   3  14   1    1.40    2.70
   3  14   1   -3.20    3.00
  -3  14  -1    4.60    3.00
   3  14   1   -0.60    2.80
   3  14   1   -1.70    2.90
  -3  14  -1    0.30    3.50
  -3  14  -1    0.50    3.20
   3  14   1   -1.20    2.60
  -3  14  -1   -2.40    2.70
  -4 -14  -1   13.90    3.50
  -4 -14  -1   17.70    3.80
   4 -14   1   19.60    4.00
   4 -14   1   15.00    4.70
   4 -14   1   23.80    4.10
  -4 -14  -1   17.00    4.50
   4  14   1    9.90    3.40
   4  14   1   14.10    4.80
  -4  14  -1   16.30    4.20
  -4  14  -1   10.50    4.20
   4  14   1   18.50    4.60
  -4  14  -1   14.10    4.00
  -4  14  -1   11.50    4.40
   4  14   1   16.20    3.80
  -5 -14  -1   12.00    3.80
   5 -14   1    9.30    3.70
   5 -14   1    6.70    4.50
   5 -14   1    9.50    3.70
  -5 -14  -1   14.90    4.20
  -5  14  -1    5.80    4.10
   5  14   1   10.10    3.60
   5  14   1   10.20    4.60
   5  14   1   10.30    3.30
   5  14   1    5.10    3.70
  -5  14  -1   11.50    4.50
   5 -15  -1    6.30    3.80
  -5 -15   1    5.60    3.60
   5 -15  -1   11.00    3.70
   5 -15  -1    6.90    3.80
   5 -15  -1    2.20    4.10
   5  15  -1    0.20    4.20
   5  15  -1    3.50    2.40
  -5  15   1   -1.00    4.10
  -4 -15   1   78.99    7.60
   4 -15  -1   88.19    9.50
   4 -15  -1   88.09    7.40
   4 -15  -1   91.59    8.40
   4 -15  -1   96.69    9.00
  -4 -15   1   96.59    9.70
  -4 -15   1  103.49    7.70
   4 -15  -1  107.79    8.20
  -4  15   1  101.49    8.40
  -4  15   1   85.29    9.10
  -4  15   1  103.69    8.10
  -4  15   1  117.09    9.70
  -4  15   1   95.39    8.60
   4  15  -1  100.69    8.90
   4  15  -1   78.39    8.80
   4  15  -1   97.29    6.40
  -3 -15   1  139.69   11.10
  -3 -15   1  143.79    8.90
  -3 -15   1  147.89    9.40
   3 -15  -1  135.39    9.60
   3 -15  -1  143.79   11.20
   3 -15  -1  138.09    9.00
   3 -15  -1  136.09   10.20
   3 -15  -1  135.09    9.80
   3  15  -1  137.99    9.70
  -3  15   1  150.08   10.10
   3  15  -1  148.69   10.80
  -3  15   1  140.69    9.90
  -3  15   1  150.28   10.60
  -3  15   1  139.89    9.70
  -3  15   1  146.29   11.30
   3  15  -1  151.08   10.50
   3  15  -1  151.28    8.20
  -2 -15   1    3.00    3.40
   2 -15  -1    0.60    2.70
   2 -15  -1   -2.40    2.30
   2 -15  -1    3.30    3.50
  -2 -15   1   -0.30    2.20
   2 -15  -1    0.80    3.00
  -2 -15   1    2.50    2.50
   2 -15  -1   -0.40    2.30
   2  15  -1   -1.20    2.80
  -2  15   1   -0.20    3.40
  -2  15   1    3.00    3.10
  -2  15   1    3.60    3.50
  -2  15   1   -1.40    2.70
   2  15  -1   -1.80    2.80
   2  15  -1    2.20    2.10
   2  15  -1   -0.10    2.10
   2  15  -1    0.70    3.10
  -2  15   1    5.10    3.10
   1 -15  -1  196.18   12.10
   1 -15  -1  168.38   10.50
  -1 -15   1  192.28   10.40
  -1 -15   1  174.28   10.60
  -1 -15   1  169.18   11.60
   1 -15  -1  178.98   10.00
   1 -15  -1  174.78   10.20
   1 -15  -1  193.98   10.40
   1  15  -1  192.78   11.60
  -1  15   1  199.48   11.60
  -1  15   1  186.18   10.70
   1  15  -1  175.38    9.90
  -1  15   1  201.68   11.20
  -1  15   1  164.48   10.50
   1  15  -1  180.28    9.70
   1  15  -1  172.08   10.10
   1  15  -1  182.18   11.50
  -1  15   1  197.98   12.20
   0 -15   1  215.68   12.90
   0 -15  -1  215.78   12.50
   0 -15   1  236.38   14.10
   0 -15   1  229.38   12.50
   0 -15  -1  261.37   13.10
   0 -15  -1  239.18   12.20
   0 -15  -1  245.58   14.10
   0  15  -1  247.78   12.70
   0  15   1  263.67   12.60
   0  15   1  250.77   13.30
   0  15  -1  253.87   14.40
   0  15   1  241.88   12.90
   0  15   1  240.88   13.70
   0  15  -1  237.88   12.50
   0  15   1  257.67   14.70
   0  15  -1  243.48   13.90
   1 -15   1    2.80    2.70
  -1 -15  -1   -1.00    3.10
   1 -15   1    3.30    2.00
   1 -15   1    0.30    3.00
  -1 -15  -1    1.00    2.40
   1  15   1   -0.90    3.00
  -1  15  -1    5.60    3.10
   1  15   1    4.20    2.80
  -1  15  -1   -1.40    2.80
  -1  15  -1    2.20    2.50
  -1  15  -1    1.90    2.50
  -1  15  -1    2.50    3.30
   1  15   1    1.40    2.40
   1  15   1    1.20    3.00
   2 -15   1   71.99    6.70
  -2 -15  -1   86.79    5.80
  -2 -15  -1   90.59    6.70
  -2 -15  -1   71.09    7.80
   2 -15   1   76.99    8.10
   2  15   1   84.19    6.50
   2  15   1   67.79    7.20
  -2  15  -1   78.19    6.80
  -2  15  -1   89.49    7.60
  -2  15  -1   72.99    7.70
  -2  15  -1   77.59    7.60
   2  15   1   79.49    6.70
   2  15   1   78.99    7.70
   2  15   1   89.99    7.80
  -2  15  -1   78.09    6.80
   3 -15   1  189.08   11.50
   3 -15   1  178.88   11.00
  -3 -15  -1  176.08   12.70
  -3 -15  -1  175.98   11.10
   3 -15   1  173.08   11.30
  -3 -15  -1  199.18   10.90
   3 -15   1  178.88   12.80
   3  15   1  200.18   11.10
   3  15   1  217.08   12.10
   3  15   1  216.08   12.60
  -3  15  -1  190.58   11.60
   3  15   1  189.18   11.20
  -3  15  -1  191.48   12.80
   3  15   1  208.28   12.80
  -3  15  -1  187.58   12.10
  -3  15  -1  181.58   12.20
  -3  15  -1  185.58   11.60
  -4 -15  -1   24.10    4.00
  -4 -15  -1    7.50    3.10
  -4 -15  -1    6.00    4.10
   4 -15   1   11.30    3.60
   4 -15   1   13.80    3.70
   4 -15   1   12.50    5.00
  -4  15  -1   18.00    4.50
   4  15   1   11.20    3.60
   4  15   1   18.40    4.10
  -4  15  -1   18.20    4.20
  -4  15  -1   11.90    4.60
  -4  15  -1   13.20    4.40
   4  15   1   12.70    4.80
   4  15   1   12.20    4.30
   5 -15   1   24.30    4.70
  -5 -15  -1   24.20    4.70
   5 -15   1   19.00    4.40
   5  15   1   20.20    4.50
   5  15   1   25.40    5.10
  -5  15  -1   20.00    5.20
  -5 -16   1   55.29    6.40
   5 -16  -1   44.90    7.50
  -5  16   1   37.90    7.00
   4 -16  -1   15.70    3.70
  -4 -16   1   14.90    3.90
   4 -16  -1    9.40    4.00
   4 -16  -1   19.20    4.90
  -4 -16   1    7.70    4.80
   4 -16  -1   18.70    5.60
  -4 -16   1   14.90    3.90
  -4  16   1   14.30    4.80
   4  16  -1   11.20    4.30
  -4  16   1   15.40    5.20
  -4  16   1   14.30    5.00
   4  16  -1    9.80    4.50
  -4  16   1    5.10    3.80
   4  16  -1   18.70    3.00
   3 -16  -1   40.70    6.10
  -3 -16   1   44.30    6.90
   3 -16  -1   47.90    7.10
   3 -16  -1   51.69    6.50
  -3 -16   1   35.30    5.00
  -3 -16   1   45.80    5.10
   3 -16  -1   49.20    5.40
  -3  16   1   40.30    5.80
   3  16  -1   42.00    4.20
   3  16  -1   40.70    6.00
   3  16  -1   37.00    5.40
  -3  16   1   34.50    6.20
  -3  16   1   48.50    6.10
  -3  16   1   43.50    5.80
   3  16  -1   52.69    6.90
  -3  16   1   40.20    6.00
   2 -16  -1  141.99    9.00
   2 -16  -1  148.39   10.50
  -2 -16   1  148.99    9.30
   2 -16  -1  127.69    8.60
  -2 -16   1  134.29   10.80
   2 -16  -1  144.49   10.80
   2  16  -1  159.68   11.10
  -2  16   1  149.99   11.30
  -2  16   1  139.79    9.90
  -2  16   1  149.09    9.80
   2  16  -1  142.89    8.40
   2  16  -1  163.38   10.60
  -2  16   1  146.19   10.10
   2  16  -1  132.09   10.10
  -2  16   1  155.08   10.30
  -1 -16   1   49.70    5.60
   1 -16  -1   41.30    4.90
   1 -16  -1   44.50    6.50
  -1 -16   1   58.09    5.60
  -1 -16   1   53.89    6.80
   1 -16  -1   62.29    5.50
   1 -16  -1   52.39    4.90
   1  16  -1   54.99    5.20
  -1  16   1   49.99    5.80
   1  16  -1   46.70    5.80
   1  16  -1   51.19    6.10
   1  16  -1   51.29    5.00
  -1  16   1   52.49    6.30
  -1  16   1   60.79    5.70
  -1  16   1   65.79    6.30
  -1  16   1   51.49    6.50
   0 -16  -1   53.19    6.60
   0 -16   1   36.90    5.60
   0 -16  -1   34.60    4.50
   0 -16  -1   37.50    4.60
   0 -16   1   34.40    4.70
   0 -16   1   39.00    4.40
   0  16   1   40.70    4.40
   0  16  -1   39.20    5.70
   0  16   1   39.10    5.40
   0  16   1   38.10    5.80
   0  16   1   43.10    5.10
   0  16  -1   32.20    4.30
   0  16  -1   38.70    4.50
   0  16   1   34.10    4.70
   0  16  -1   38.50    4.50
   1 -16   1  133.99    8.30
   1 -16   1  131.49    9.20
  -1 -16  -1  140.69    9.10
   1 -16   1  136.89   10.20
  -1 -16  -1  137.99   10.10
  -1  16  -1  140.49    9.00
   1  16   1  136.39    8.90
   1  16   1  148.79    9.40
   1  16   1  152.88   10.10
  -1  16  -1  152.18    9.20
   1  16   1  145.39   10.00
  -1  16  -1  139.39   10.80
   1  16   1  150.38   10.80
  -1  16  -1  145.89   10.20
  -1  16  -1  141.19    9.50
   2 -16   1   56.09    6.20
  -2 -16  -1   79.49    6.50
  -2 -16  -1   79.59    8.30
   2 -16   1   73.29    8.30
  -2  16  -1   74.29    6.70
  -2  16  -1   58.49    7.00
  -2  16  -1   63.89    6.50
  -2  16  -1   71.69    7.30
   2  16   1   74.19    6.60
  -2  16  -1   59.89    6.60
   2  16   1   75.19    7.60
   2  16   1   68.69    6.40
   2  16   1   58.19    6.80
   2  16   1   69.99    7.40
  -3 -16  -1    2.40    2.70
   3 -16   1   10.30    4.30
  -3 -16  -1    8.00    3.70
   3 -16   1    0.60    3.00
  -3 -16  -1   -0.10    3.90
  -3  16  -1    1.30    3.30
  -3  16  -1   -2.40    3.90
  -3  16  -1    7.20    4.10
   3  16   1    8.60    3.80
   3  16   1    1.60    3.80
  -3  16  -1    3.10    3.50
   3  16   1    0.40    3.30
   3  16   1    5.10    3.20
   3  16   1   -0.80    2.80
  -3  16  -1    3.20    3.10
  -4 -16  -1   69.19    7.20
  -4 -16  -1   67.19    8.20
  -4 -16  -1   77.19    6.80
   4 -16   1   74.09    8.90
   4 -16   1   70.09    7.30
   4  16   1   65.79    7.80
  -4  16  -1   62.19    8.00
  -4  16  -1   93.59    8.90
   4  16   1   67.59    6.60
  -4  16  -1   73.99    8.30
  -4  16  -1   74.49    8.10
   4  16   1   77.89    7.40
   4  16   1   76.09    9.00
  -4  16  -1   76.89    7.80
   4 -17  -1   -4.80    3.40
   4 -17  -1    0.70    3.60
   4 -17  -1    2.80    3.10
  -4  17   1   -2.70    4.10
   3 -17  -1   -1.50    2.60
  -3 -17   1    3.20    4.20
   3 -17  -1    4.30    4.00
   3 -17  -1   -2.80    3.80
  -3 -17   1    2.30    3.00
   3 -17  -1   -3.10    3.20
  -3  17   1   -6.60    2.90
   3  17  -1    2.50    3.80
  -3  17   1    2.00    4.30
  -3  17   1    3.20    3.60
   3  17  -1   -1.60    3.20
   3  17  -1    2.60    2.40
   3  17  -1   -3.30    3.30
  -3  17   1    6.00    4.40
  -3  17   1   -4.20    3.20
   2 -17  -1   -1.60    2.60
   2 -17  -1    0.70    4.00
   2 -17  -1    1.40    2.50
   2 -17  -1   -1.50    3.10
   2 -17  -1   -2.00    2.40
  -2 -17   1    0.60    3.50
  -2 -17   1    3.00    3.00
  -2  17   1   -0.60    3.30
   2  17  -1    4.80    3.50
  -2  17   1   -1.10    3.90
   2  17  -1    4.30    3.70
   2  17  -1   -4.30    2.90
  -2  17   1   -3.10    3.60
   2  17  -1   -1.00    2.20
  -2  17   1   -2.60    3.20
  -2  17   1   -4.40    3.00
  -1 -17   1    6.60    2.80
   1 -17  -1    1.60    2.60
  -1 -17   1    1.20    3.30
  -1 -17   1   -1.10    3.00
   1 -17  -1   -0.20    2.60
   1 -17  -1   -4.30    3.10
   1  17  -1   -1.80    3.00
   1  17  -1    2.10    3.20
   1  17  -1    0.00    2.30
  -1  17   1    5.70    3.60
  -1  17   1   -0.30    3.00
   1  17  -1    3.20    2.80
  -1  17   1    0.80    3.10
  -1  17   1    3.80    3.20
  -1  17   1   -4.90    3.50
   0 -17   1    1.40    3.40
   0 -17   1    8.40    3.30
   0 -17  -1    6.00    2.90
   0 -17  -1   11.50    4.20
   0 -17  -1    6.40    2.90
   0 -17   1    7.10    2.80
   0  17  -1    5.90    2.80
   0  17   1    3.60    4.00
   0  17   1    5.70    3.10
   0  17   1    5.80    3.60
   0  17  -1    5.70    3.40
   0  17  -1    2.20    2.70
   0  17   1    6.70    3.20
   0  17  -1    0.20    3.00
   0  17  -1    8.10    4.00
   1 -17   1    0.80    2.80
   1 -17   1    2.30    3.50
  -1 -17  -1   -1.10    3.20
   1 -17   1    1.80    2.30
  -1 -17  -1   -2.10    2.40
  -1  17  -1   -2.50    3.20
   1  17   1   -3.90    3.50
  -1  17  -1   -1.80    2.80
   1  17   1   -6.10    2.40
  -1  17  -1   -1.90    3.40
   1  17   1    0.80    3.30
  -1  17  -1    1.60    3.40
   1  17   1   -0.30    3.20
  -1  17  -1    0.90    2.90
   1  17   1    2.60    2.80
  -2 -17  -1   -1.90    2.60
   2 -17   1    0.60    3.70
  -2 -17  -1   -4.10    3.40
   2 -17   1   -3.40    2.60
  -2  17  -1   -0.20    3.20
  -2  17  -1   -2.30    3.20
  -2  17  -1    2.90    3.30
   2  17   1    5.80    3.30
   2  17   1   -1.60    2.70
   2  17   1    4.40    3.80
  -2  17  -1   -9.30    3.30
   2  17   1    3.50    3.60
   2  17   1   -2.80    3.30
  -2  17  -1   -2.50    3.60
   3 -17   1    5.40    4.20
  -3 -17  -1    4.70    4.60
  -3 -17  -1   -2.10    2.60
   3 -17   1    6.70    3.40
  -3  17  -1   -0.90    3.40
  -3  17  -1    4.90    4.30
  -3  17  -1    4.90    3.60
   3  17   1    6.70    4.00
  -3  17  -1    9.40    3.90
   3  17   1    1.80    3.10
   3  17   1    3.20    4.10
  -3  17  -1   -4.40    3.90
   3  17   1    4.20    3.70
   3  17   1    9.10    3.30
   4 -17   1    3.10    3.30
  -4 -17  -1    2.00    4.50
  -4  17  -1    3.10    3.80
   4  17   1    4.90    3.20
  -4  17  -1   -4.90    5.80
  -3 -18   1   10.80    3.70
   3 -18  -1   18.50    4.00
   3 -18  -1   15.90    4.70
  -3  18   1   13.10    5.20
  -3  18   1   16.30    4.60
  -3  18   1    3.00    5.10
   3  18  -1   11.70    3.70
  -3  18   1   14.00    4.40
   3  18  -1    5.20    4.00
   2 -18  -1   60.29    6.20
   2 -18  -1   63.49    8.30
  -2 -18   1   56.39    6.30
  -2 -18   1   57.99    7.50
  -2  18   1   59.89    6.80
   2  18  -1   55.89    5.30
  -2  18   1   62.59    8.20
  -2  18   1   64.19    7.30
  -2  18   1   56.99    7.00
  -2  18   1   54.49    7.00
   2  18  -1   62.69    7.40
   2  18  -1   65.39    7.90
   2  18  -1   66.19    7.40
  -1 -18   1   14.00    3.50
  -1 -18   1   10.60    3.60
   1 -18  -1   15.80    4.70
   1 -18  -1   19.00    3.60
  -1 -18   1    9.70    4.00
   1 -18  -1   12.50    3.40
  -1  18   1   12.30    4.00
  -1  18   1    5.90    4.50
   1  18  -1   10.00    4.10
  -1  18   1   11.10    4.10
   1  18  -1   11.40    4.60
   1  18  -1    6.30    3.00
  -1  18   1   16.80    4.70
   0 -18   1   13.30    3.20
   0 -18   1   15.20    4.50
   0 -18  -1   20.90    4.00
   0 -18  -1   13.10    3.40
   0 -18  -1   10.40    4.40
   0 -18   1   13.20    3.70
   0  18   1   11.10    4.40
   0  18  -1   16.70    4.60
   0  18  -1   13.80    3.50
   0  18   1   11.40    4.80
   0  18  -1   17.40    4.90
   0  18   1   16.80    4.00
   0  18  -1   16.50    3.70
   0  18   1   14.40    3.80
  -1 -18  -1   40.20    6.50
   1 -18   1   31.50    5.70
   1 -18   1   40.50    5.30
  -1 -18  -1   41.50    5.30
   1  18   1   41.40    6.40
   1  18   1   43.00    5.30
   1  18   1   35.20    5.90
   1  18   1   38.00    5.00
  -1  18  -1   41.40    5.20
  -1  18  -1   38.30    6.20
  -1  18  -1   43.90    5.40
   1  18   1   27.90    5.50
  -1  18  -1   35.80    5.90
  -1  18  -1   43.10    5.80
  -2 -18  -1    8.80    4.40
  -2 -18  -1   13.60    3.60
   2 -18   1   11.00    3.70
   2 -18   1    8.20    4.30
  -2  18  -1   21.00    4.40
  -2  18  -1   15.60    4.20
   2  18   1   10.70    4.30
   2  18   1   15.80    3.80
  -2  18  -1   24.10    5.20
  -2  18  -1   10.40    4.80
   2  18   1   17.10    4.80
   2  18   1   14.80    4.80
   2  18   1   15.10    3.90
  -2  18  -1   15.00    4.50
   3 -18   1   -0.90    3.00
  -3 -18  -1    3.10    4.60
  -3  18  -1    5.80    4.00
  -3  18  -1    2.90    3.90
  -3  18  -1    1.70    4.30
   3  18   1    2.60    3.40
   3  18   1    1.20    3.70
   3  18   1    1.20    2.90
   3 -19  -1   38.00    6.40
  -3  19   1   47.40    9.50
  -3  19   1   51.99    7.20
  -2 -19   1   -1.90    2.60
   2 -19  -1    1.60    3.10
  -2  19   1   -1.20    4.20
   2  19  -1   -6.00    3.60
  -2  19   1   -0.30    3.60
   2  19  -1    1.40    2.60
  -2  19   1    2.30    3.60
   1 -19  -1   39.10    5.20
  -1 -19   1   45.60    6.00
  -1 -19   1   41.80    5.40
   1 -19  -1   60.29    7.70
   1 -19  -1   53.49    5.60
  -1 -19   1   46.70    7.10
   1  19  -1   52.19    5.30
   1  19  -1   49.60    6.80
  -1  19   1   57.89    6.40
   1  19  -1   54.49    7.10
  -1  19   1   51.79    6.90
   1  19  -1   39.50    6.60
  -1  19   1   36.60    7.00
   0 -19   1   81.09    8.50
   0 -19   1   61.29    6.10
   0 -19  -1   65.59    7.80
   0 -19  -1   55.89    6.10
   0 -19   1   65.79    6.70
   0 -19  -1   62.89    6.30
   0  19   1   65.39    6.70
   0  19  -1   61.19    7.50
   0  19   1   64.59    7.60
   0  19  -1   61.79    5.90
   0  19  -1   57.09    7.60
   0  19   1   61.49    6.60
   0  19   1   62.69    8.20
  -1 -19  -1    3.40    3.80
   1 -19   1    1.20    3.90
   1 -19   1   -1.20    3.00
  -1 -19  -1    2.10    2.70
  -1  19  -1    4.60    3.30
   1  19   1    3.40    3.90
  -1  19  -1    4.40    3.20
   1  19   1    1.60    2.90
   1  19   1    0.10    3.50
  -1  19  -1    2.30    3.80
   1  19   1    3.10    4.10
  -1  19  -1   -6.60    3.30
   1  19   1   -4.30    2.90
  -1  19  -1    0.00    4.00
  -2 -19  -1   27.90    6.30
   2 -19   1   10.00    3.70
  -2 -19  -1   23.80    5.80
   2  19   1   22.40    4.40
   2  19   1   13.40    4.00
  -2  19  -1   14.70    5.00
  -2  19  -1   15.40    4.80
  -2  19  -1   19.40    4.60
  -2  19  -1   23.10    4.70
   2  19   1   14.30    4.90
   3  19   1   56.49    7.90
   2 -20  -1   18.60    4.30
   2  20  -1   14.40    5.20
  -2  20   1   12.00    4.90
  -2  20   1   11.80    8.00
  -1 -20   1    4.90    3.00
   1 -20  -1    3.70    3.20
   1 -20  -1    0.60    3.20
   1  20  -1    2.00    2.80
  -1  20   1   10.00    4.00
  -1  20   1   10.40    5.70
   0 -20   1    2.80    3.90
   0 -20  -1    2.00    3.20
   0 -20   1    2.00    3.50
   0  20   1    1.60    5.40
   0  20   1    1.60    3.50
   0  20  -1    2.10    2.80
   1 -20   1    4.70    3.90
  -1 -20  -1    8.20    4.30
   1  20   1    9.50    6.50
   1  20   1    8.80    3.70
  -2  20  -1   10.20    5.00
   7   0  -2  193.58   12.50
  -7   0   2  191.88   13.00
   7   0  -2  188.38   11.80
   7   0  -2  180.28   11.60
  -7   0   2  201.68   12.20
   7   0  -2  201.88   12.60
   6   0  -2  123.49    9.00
   6   0  -2  106.39    7.80
  -6   0   2  117.39    7.80
  -6   0   2  120.59    7.70
   6   0  -2  113.79    8.00
  -6   0   2  124.69    8.60
   6   0  -2  101.09    8.30
  -6   0   2  113.09    8.30
  -6   0   2  114.39    9.10
  -5   0   2  439.86   20.30
   5   0  -2  434.06   20.60
  -5   0   2  446.16   20.70
  -5   0   2  435.76   20.90
  -5   0   2  448.26   21.60
   5   0  -2  426.66   20.60
  -5   0   2  414.66   20.30
   5   0  -2  421.96   21.10
   5   0  -2  414.26   19.90
   5   0  -2  427.36   21.10
  -4   0   2 1660.23   68.69
  -4   0   2 1457.15   68.09
   4   0  -2 1478.85   68.89
  -4   0   2 1558.24   68.49
  -4   0   2 1593.54   68.39
  -4   0   2 1585.04   68.89
   4   0  -2 1624.14   68.59
   4   0  -2 1588.84   68.59
   4   0  -2 1487.25   67.99
  -4   0   2 1551.64   69.29
   4   0  -2 1554.74   69.09
  -3   0   2  523.65   23.10
   3   0  -2  508.75   22.80
  -3   0   2  503.85   22.70
   3   0  -2  525.35   23.40
  -3   0   2  533.55   22.90
  -3   0   2  466.65   22.40
   3   0  -2  500.85   23.20
  -3   0   2  521.65   22.90
  -3   0   2  527.05   23.50
   3   0  -2  473.95   22.40
   3   0  -2  519.85   22.90
  -3   0   2  474.75   22.50
   3   0  -2  504.05   22.80
   2   0  -2 1074.49   48.50
   2   0  -2 1155.58   48.50
  -2   0   2 1073.99   48.60
  -2   0   2 1099.19   48.30
   2   0  -2 1049.09   48.30
   2   0  -2 1051.49   48.40
  -2   0   2 1095.99   48.90
   2   0  -2 1132.59   48.40
  -2   0   2 1103.09   48.40
  -2   0   2 1175.58   48.80
   2   0  -2 1081.69   48.60
  -2   0   2 1066.79   48.60
   2   0  -2 1172.48   48.50
  -2   0   2 1164.08   48.50
  -2   0   2 1048.00   48.30
   2   0  -2 1202.28   48.90
   1   0  -2 1809.72   78.49
   1   0  -2 1862.21   78.49
   1   0  -2 1739.43   78.49
   1   0  -2 1824.52   78.59
   1   0  -2 1729.73   78.59
  -1   0   2 1925.01   78.79
  -1   0   2 1731.13   78.49
  -1   0   2 1694.13   78.69
  -1   0   2 1893.61   78.89
  -1   0   2 1814.92   78.59
   1   0  -2 1811.92   78.79
  -1   0   2 1797.42   78.99
   1   0  -2 1910.51   78.89
  -1   0   2 1865.71   78.49
  -1   0   2 1748.03   78.59
   1   0  -2 1925.61   78.79
   1   0  -2 1875.61   78.99
   1   0  -2 1722.63   78.59
  -1   0   2 1839.62   78.79
   1   0  -2 1836.92   78.49
  -1   0   2 1705.33   78.49
   1   0  -2 1779.92   78.79
  -1   0   2 1859.01   78.49
   0   0   2 3834.92  170.08
   0   0  -2 3972.70  169.38
   0   0  -2 4049.40  169.38
   0   0   2 4013.00  169.48
   0   0  -2 3844.62  169.28
   0   0  -2 3659.23  169.58
   0   0   2 3654.63  169.98
   0   0   2 3957.80  169.58
   0   0  -2 4065.49  169.38
   0   0   2 4146.08  170.08
   0   0   2 4184.48  169.78
   0   0   2 4095.59  169.58
   0   0   2 3885.81  170.78
   0   0   2 4027.70  169.38
   0   0   2 4038.30  169.78
   0   0   2 3819.02  169.48
   0   0  -2 3359.36  169.78
   0   0  -2 4098.29  169.78
   0   0  -2 3986.30  169.68
   0   0  -2 3744.13  169.78
   0   0  -2 3812.52  169.38
   0   0  -2 3866.01  169.38
   1   0   2  295.87   13.30
   1   0   2  296.97   13.40
  -1   0  -2  303.87   13.40
  -1   0  -2  274.07   13.30
  -1   0  -2  293.27   13.20
  -1   0  -2  296.47   13.20
   1   0   2  291.57   13.30
   1   0   2  281.27   13.30
   1   0   2  309.87   13.60
  -1   0  -2  286.67   13.30
   1   0   2  281.17   13.70
  -1   0  -2  293.47   13.30
   1   0   2  308.27   13.20
  -1   0  -2  278.77   13.40
  -1   0  -2  267.07   13.70
  -1   0  -2  293.07   13.50
   1   0   2  305.27   13.40
  -2   0  -2 4422.06  188.58
  -2   0  -2 4606.54  189.28
   2   0   2 4230.08  188.58
  -2   0  -2 4427.76  188.88
   2   0   2 4333.77  188.88
  -2   0  -2 4173.78  188.48
   2   0   2 4211.08  188.58
  -2   0  -2 4137.39  188.78
  -2   0  -2 4485.35  188.88
   2   0   2 4583.54  188.88
   2   0   2 4618.94  189.18
   2   0   2 4305.97  188.88
   2   0   2 4380.16  188.78
  -2   0  -2 4103.29  189.28
   3   0   2 1506.25   65.59
   3   0   2 1475.65   65.79
   3   0   2 1578.74   65.99
  -3   0  -2 1411.16   65.29
  -3   0  -2 1499.45   65.69
   3   0   2 1510.15   65.69
  -3   0  -2 1557.74   65.79
   3   0   2 1448.76   65.19
  -3   0  -2 1465.65   66.39
   3   0   2 1492.85   65.29
  -3   0  -2 1478.95   64.99
  -3   0  -2 1475.05   65.19
   4   0   2  117.89    7.10
  -4   0  -2  124.99    6.20
  -4   0  -2  123.09    6.80
   4   0   2  111.79    7.30
  -4   0  -2  119.09    8.10
   4   0   2  118.09    7.20
   4   0   2  104.59    7.30
  -4   0  -2  122.49    7.40
   4   0   2  116.99    6.50
   4   0   2  109.79    6.60
  -4   0  -2  114.39    7.20
   5   0   2  564.94   25.60
  -5   0  -2  537.85   25.40
   5   0   2  544.65   26.70
   5   0   2  565.24   26.50
  -5   0  -2  593.64   28.10
  -5   0  -2  565.64   26.60
  -5   0  -2  553.44   26.70
  -5   0  -2  557.44   25.80
   5   0   2  561.94   26.50
   5   0   2  563.14   26.70
  -5   0  -2  563.94   26.70
   5   0   2  562.34   26.10
   6   0   2  325.87   17.80
   6   0   2  328.77   17.10
  -6   0  -2  359.16   19.40
   6   0   2  349.37   17.70
  -6   0  -2  336.87   18.00
   6   0   2  349.67   18.30
  -6   0  -2  358.46   18.10
   6   0   2  332.27   17.70
  -7   0  -2   -3.30    2.80
   7   0   2    0.80    3.10
  -7   0  -2   -4.30    2.70
   7   0   2   -4.50    3.00
  -7   0  -2   -1.00    4.20
   7   0   2   -4.60    2.80
  -7   0  -2    1.50    3.00
   7   0   2    2.20    3.40
   7  -1  -2    1.00    3.20
   7  -1  -2    9.90    3.90
   7  -1  -2   10.20    3.70
  -7  -1   2    2.90    3.70
   7  -1  -2    3.60    3.20
   7  -1  -2    8.90    3.30
  -7  -1   2    4.70    3.50
  -7   1   2    6.90    3.80
   7   1  -2    5.80    3.30
   7   1  -2    1.80    3.30
  -7   1   2   -0.20    3.70
  -7   1   2    5.40    3.10
  -7   1   2    8.80    3.50
   7   1  -2    6.50    3.30
   7   1  -2    1.40    3.40
   6  -1  -2  169.28   10.90
   6  -1  -2  183.58   11.10
   6  -1  -2  159.38   10.10
  -6  -1   2  175.68   11.30
  -6  -1   2  169.58   10.60
   6  -1  -2  166.68   10.30
  -6  -1   2  172.78    9.60
  -6  -1   2  159.98    9.70
  -6   1   2  181.38   10.20
   6   1  -2  161.58   10.00
   6   1  -2  158.28   10.70
  -6   1   2  181.18   10.40
   6   1  -2  172.08   10.90
  -6   1   2  156.08   10.10
   6   1  -2  177.48   10.20
  -6   1   2  167.28    9.90
  -6   1   2  163.98   11.30
  -5  -1   2  172.48   10.30
   5  -1  -2  196.58   10.20
   5  -1  -2  179.38   10.50
   5  -1  -2  178.68   10.00
  -5  -1   2  188.58   11.00
  -5  -1   2  191.38    9.70
  -5  -1   2  179.08   10.00
  -5  -1   2  182.38    9.80
   5  -1  -2  171.28    9.10
   5  -1  -2  196.18   10.90
  -5   1   2  179.48   11.10
   5   1  -2  183.48   10.00
  -5   1   2  185.38    9.90
   5   1  -2  181.78   10.60
  -5   1   2  192.78   10.30
   5   1  -2  160.68    9.30
  -5   1   2  185.58   10.10
   5   1  -2  180.18    9.90
   5   1  -2  178.88   10.80
  -5   1   2  172.88   10.10
   4  -1  -2   10.70    1.80
  -4  -1   2   16.30    2.60
  -4  -1   2   11.20    2.40
   4  -1  -2   14.20    2.50
   4  -1  -2   13.80    2.60
   4  -1  -2   12.60    2.80
  -4  -1   2   13.70    2.70
   4  -1  -2   13.60    3.00
  -4  -1   2   17.40    2.50
  -4  -1   2   13.80    3.10
  -4  -1   2   13.30    2.10
   4   1  -2   14.10    2.40
  -4   1   2    8.90    3.10
   4   1  -2   12.90    2.00
   4   1  -2   12.50    2.80
  -4   1   2   14.10    2.70
  -4   1   2   10.50    2.00
  -4   1   2   15.80    2.70
   4   1  -2   16.20    2.30
   4   1  -2   15.70    3.00
  -4   1   2   10.10    2.20
  -4   1   2   16.00    2.70
   4   1  -2   13.50    2.40
  -3  -1   2  478.85   21.70
  -3  -1   2  488.75   22.20
   3  -1  -2  442.16   21.40
   3  -1  -2  506.95   22.00
  -3  -1   2  488.15   21.60
   3  -1  -2  502.85   22.00
   3  -1  -2  492.15   22.50
  -3  -1   2  506.95   22.20
  -3  -1   2  503.85   21.90
   3  -1  -2  488.35   22.00
   3  -1  -2  469.85   21.40
  -3  -1   2  454.85   21.60
   3  -1  -2  470.75   22.20
  -3  -1   2  459.25   21.90
  -3  -1   2  489.95   22.60
   3   1  -2  479.45   22.30
  -3   1   2  493.05   22.10
   3   1  -2  492.25   21.90
   3   1  -2  512.95   22.50
  -3   1   2  529.15   22.10
   3   1  -2  453.55   21.60
   3   1  -2  494.15   21.80
  -3   1   2  486.55   21.90
  -3   1   2  501.95   22.70
  -3   1   2  481.45   22.10
   3   1  -2  533.45   22.00
  -3   1   2  442.66   21.40
  -3   1   2  455.55   21.50
   2  -1  -2 1093.19   46.40
  -2  -1   2 1001.30   46.50
  -2  -1   2 1084.89   46.20
  -2  -1   2 1021.10   46.00
   2  -1  -2 1064.99   46.40
   2  -1  -2 1077.09   46.80
   2  -1  -2 1049.09   46.50
  -2  -1   2 1006.30   46.10
   2  -1  -2 1056.49   46.50
  -2  -1   2 1122.29   46.30
   2  -1  -2 1203.98   47.10
  -2  -1   2 1021.30   46.00
  -2  -1   2 1136.69   46.60
   2  -1  -2 1106.39   46.60
   2  -1  -2 1015.70   46.40
   2  -1  -2 1110.39   46.50
   2  -1  -2  958.50   46.30
  -2  -1   2 1023.10   46.10
  -2  -1   2 1118.09   46.70
   2   1  -2 1032.40   46.50
   2   1  -2 1103.19   46.00
   2   1  -2 1040.40   46.10
   2   1  -2 1010.60   46.20
   2   1  -2  979.20   46.10
   2   1  -2 1131.79   46.30
  -2   1   2  973.80   46.30
   2   1  -2 1026.10   46.20
  -2   1   2 1160.38   46.60
  -2   1   2 1043.30   46.80
   2   1  -2 1088.79   46.80
  -2   1   2 1066.79   46.40
  -2   1   2 1060.79   46.40
   2   1  -2 1087.39   46.30
  -2   1   2 1004.40   46.50
  -2   1   2 1027.80   46.30
  -1  -1   2   56.39    3.40
   1  -1  -2   68.39    4.10
  -1  -1   2   60.39    3.20
   1  -1  -2   69.79    3.90
   1  -1  -2   67.19    3.80
   1  -1  -2   67.09    3.70
  -1  -1   2   66.39    3.30
   1  -1  -2   67.19    3.70
  -1  -1   2   62.99    3.70
  -1  -1   2   64.69    3.40
   1  -1  -2   67.59    3.90
   1  -1  -2   64.59    3.50
   1  -1  -2   54.89    3.80
   1  -1  -2   66.89    3.60
   1  -1  -2   65.49    3.30
  -1  -1   2   59.59    3.40
   1  -1  -2   63.99    3.50
  -1   1   2   66.69    3.40
   1   1  -2   57.19    3.20
  -1   1   2   64.99    3.90
  -1   1   2   63.29    3.60
   1   1  -2   61.89    3.50
   1   1  -2   67.09    3.50
  -1   1   2   67.29    4.00
   1   1  -2   71.29    3.70
  -1   1   2   69.79    3.70
   1   1  -2   64.09    3.70
  -1   1   2   61.79    3.50
  -1   1   2   65.89    3.80
  -1   1   2   65.69    3.60
   1   1  -2   64.89    3.20
   1   1  -2   63.99    4.10
   1   1  -2   64.59    3.70
   1   1  -2   62.59    3.10
   1   1  -2   66.69    3.40
  -1   1   2   57.79    3.70
   1   1  -2   57.49    3.30
   1   1  -2   68.59    3.70
   1   1  -2   68.09    3.80
  -1   1   2   61.19    3.30
   0  -1  -2 1722.23   79.69
   0  -1   2 1842.72   78.99
   0  -1   2 1686.73   79.79
   0  -1   2 1872.61   79.09
   0  -1   2 1738.93   78.99
   0  -1  -2 1903.11   79.19
   0  -1  -2 1762.72   79.09
   0  -1  -2 1796.72   79.39
   0  -1  -2 2007.10   79.39
   0  -1   2 1905.21   78.89
   0  -1  -2 1831.62   79.19
   0  -1   2 1830.42   79.09
   0  -1   2 1817.72   78.89
   0  -1   2 1802.22   78.99
   0  -1  -2 1845.92   79.29
   0  -1  -2 1949.30   79.09
   0  -1  -2 1819.72   79.19
   0  -1  -2 1906.91   79.09
   0  -1   2 1668.63   78.89
   0  -1   2 1850.51   78.79
   0   1   2 1906.01   79.29
   0   1   2 1924.51   79.09
   0   1  -2 1692.83   78.99
   0   1  -2 1793.62   78.89
   0   1   2 1877.41   79.39
   0   1   2 1872.81   79.29
   0   1   2 1849.91   79.09
   0   1  -2 1717.13   78.89
   0   1  -2 1850.41   78.89
   0   1  -2 1818.92   79.09
   0   1   2 1859.31   79.19
   0   1   2 1909.91   79.89
   0   1  -2 1601.54   79.69
   0   1  -2 1862.01   79.39
   0   1   2 2013.60   79.19
   0   1  -2 1778.02   79.09
   0   1  -2 1797.52   79.09
   0   1  -2 1804.52   78.89
   0   1   2 1818.22   79.19
   0   1  -2 1850.11   78.99
   0   1  -2 1691.73   78.89
   0   1   2 1798.52   79.19
   0   1  -2 1745.93   78.99
   1  -1   2  808.02   37.00
  -1  -1  -2  878.21   37.20
   1  -1   2  802.42   37.40
  -1  -1  -2  819.62   36.80
   1  -1   2  814.02   36.90
  -1  -1  -2  878.41   37.20
  -1  -1  -2  858.91   37.20
   1  -1   2  877.01   36.90
   1  -1   2  869.31   37.20
   1  -1   2  814.02   36.90
  -1  -1  -2  886.41   37.10
   1  -1   2  816.62   36.90
  -1  -1  -2  908.91   37.50
   1  -1   2  808.42   36.90
  -1  -1  -2  830.62   37.00
  -1  -1  -2  856.11   37.00
   1  -1   2  800.52   36.90
  -1  -1  -2  826.92   37.00
  -1  -1  -2  888.21   36.90
   1  -1   2  805.62   36.90
  -1   1  -2  815.52   36.90
  -1   1  -2  780.62   37.40
   1   1   2  869.91   37.20
   1   1   2  894.21   36.90
  -1   1  -2  790.82   36.90
   1   1   2  875.71   37.50
  -1   1  -2  819.62   37.10
  -1   1  -2  807.92   37.00
   1   1   2  883.11   36.90
  -1   1  -2  743.53   36.90
   1   1   2  888.91   37.10
   1   1   2  864.61   37.00
   1   1   2  858.91   37.10
   1   1   2  882.31   37.20
   1   1   2  873.51   36.60
   1   1   2  853.51   37.10
  -1   1  -2  847.42   36.90
  -1   1  -2  813.62   37.00
  -1   1  -2  837.72   37.00
   2  -1   2  111.19    5.90
   2  -1   2  114.39    6.20
   2  -1   2  107.19    6.00
  -2  -1  -2  120.49    6.50
  -2  -1  -2  122.29    6.10
  -2  -1  -2  114.99    6.70
  -2  -1  -2  118.49    6.20
  -2  -1  -2  114.09    6.20
   2  -1   2  108.39    6.00
   2  -1   2  108.89    5.50
   2  -1   2  109.99    6.10
  -2  -1  -2  116.19    5.70
   2  -1   2  108.39    5.90
  -2  -1  -2  118.59    5.80
  -2  -1  -2  114.89    6.30
   2  -1   2  113.59    6.40
   2   1   2  118.79    5.70
  -2   1  -2  115.19    6.20
   2   1   2  118.69    6.20
  -2   1  -2  112.79    6.00
  -2   1  -2  111.09    6.10
  -2   1  -2  101.99    5.90
   2   1   2  119.09    6.10
   2   1   2  110.99    6.10
   2   1   2  117.79    6.50
  -2   1  -2  112.89    6.40
   2   1   2  122.89    5.80
  -3  -1  -2  358.26   16.10
   3  -1   2  338.97   16.70
  -3  -1  -2  360.86   16.60
   3  -1   2  349.47   16.50
   3  -1   2  344.27   16.20
  -3  -1  -2  355.36   16.70
   3  -1   2  357.36   16.70
  -3  -1  -2  370.66   17.50
   3  -1   2  356.96   16.90
  -3  -1  -2  347.67   16.00
   3  -1   2  344.87   16.10
  -3  -1  -2  349.87   16.20
   3   1   2  361.46   16.60
  -3   1  -2  362.46   16.70
   3   1   2  335.57   16.60
   3   1   2  377.56   16.80
   3   1   2  354.86   16.30
  -3   1  -2  338.57   17.40
  -3   1  -2  325.67   16.50
   3   1   2  356.96   16.90
  -3   1  -2  345.37   16.30
   4  -1   2  597.84   27.00
   4  -1   2  567.24   27.90
  -4  -1  -2  634.64   28.90
  -4  -1  -2  606.44   27.70
  -4  -1  -2  614.84   27.10
  -4  -1  -2  594.04   27.00
  -4  -1  -2  644.44   27.90
   4  -1   2  610.44   27.90
   4  -1   2  582.74   27.60
   4  -1   2  599.54   27.30
   4  -1   2  615.24   27.80
  -4   1  -2  588.94   26.70
   4   1   2  597.04   27.80
   4   1   2  622.74   28.10
   4   1   2  579.04   27.80
   4   1   2  605.34   27.40
   4   1   2  612.14   27.70
  -4   1  -2  576.14   28.70
  -4   1  -2  590.94   27.90
  -4   1  -2  584.74   27.30
  -4   1  -2  598.94   27.70
  -5  -1  -2   49.10    5.20
   5  -1   2   39.60    4.10
  -5  -1  -2   40.20    4.80
   5  -1   2   43.80    5.00
  -5  -1  -2   46.10    3.70
   5  -1   2   38.30    3.70
  -5  -1  -2   40.60    5.80
  -5  -1  -2   36.40    3.80
   5  -1   2   45.70    5.20
   5  -1   2   34.00    4.40
   5  -1   2   39.60    4.80
  -5  -1  -2   51.49    5.30
  -5   1  -2   39.10    3.30
  -5   1  -2   43.30    5.10
   5   1   2   40.40    4.60
   5   1   2   39.60    4.80
   5   1   2   39.00    4.20
  -5   1  -2   43.90    4.70
   5   1   2   44.80    4.70
  -5   1  -2   34.80    5.50
  -5   1  -2   37.90    4.20
  -5   1  -2   39.20    4.50
   5   1   2   38.40    3.70
   5   1   2   42.90    5.10
   6  -1   2   43.30    7.40
  -6  -1  -2   57.69    6.40
  -6  -1  -2   59.59    6.10
  -6  -1  -2   57.09    6.30
   6  -1   2   40.80    5.80
   6  -1   2   67.79    6.60
   6  -1   2   37.80    5.30
  -6  -1  -2   53.69    7.20
   6  -1   2   53.29    6.00
   6   1   2   57.19    5.70
   6   1   2   51.49    5.90
  -6   1  -2   58.29    5.50
   6   1   2   60.89    6.60
   6   1   2   60.79    6.30
  -6   1  -2   46.90    5.80
  -6   1  -2   59.19    6.10
   6   1   2   67.09    6.40
  -6   1  -2   65.69    7.70
  -7  -1  -2   94.69    7.70
   7  -1   2   59.59    7.80
  -7  -1  -2   65.19    9.10
  -7  -1  -2   67.79    7.10
   7  -1   2   82.79    7.90
   7  -1   2   64.59    7.50
  -7  -1  -2   69.59    7.60
   7  -1   2   66.89    7.30
  -7   1  -2   80.59   10.70
   7   1   2   61.79    7.50
  -7   1  -2   70.39    7.50
   7   1   2   71.19    7.90
   7   1   2   74.59    7.50
   7   1   2   62.69    7.00
  -7   1  -2   87.39    8.30
  -7   1  -2   75.69    7.70
   7  -2  -2   18.50    4.50
   7  -2  -2   18.80    4.60
  -7  -2   2   26.50    4.80
   7  -2  -2   25.00    4.30
   7  -2  -2   18.50    4.30
  -7  -2   2   15.80    4.90
   7  -2  -2   22.20    4.30
  -7   2   2   20.40    5.30
   7   2  -2   12.30    4.20
  -7   2   2   20.30    4.30
  -7   2   2   20.70    4.00
   7   2  -2   21.20    4.20
   7   2  -2   19.60    4.60
  -7   2   2   16.90    4.00
   7   2  -2   16.20    3.90
  -6  -2   2    6.00    3.70
  -6  -2   2    8.90    3.50
   6  -2  -2   11.90    3.30
   6  -2  -2   12.50    3.20
   6  -2  -2    8.00    3.10
  -6  -2   2    4.10    2.40
   6  -2  -2    7.10    3.50
   6  -2  -2    7.00    3.40
  -6   2   2   10.50    4.10
  -6   2   2    9.70    3.30
   6   2  -2    7.90    3.10
  -6   2   2    9.80    3.40
  -6   2   2    8.70    3.00
   6   2  -2    3.60    2.90
   6   2  -2    6.00    3.20
  -6   2   2    6.10    2.90
   6   2  -2    8.40    3.50
  -5  -2   2   19.40    3.20
  -5  -2   2   22.20    4.10
   5  -2  -2   17.30    3.10
   5  -2  -2   14.50    3.60
   5  -2  -2   16.30    3.20
   5  -2  -2   14.80    3.50
  -5  -2   2   21.60    3.30
  -5  -2   2   16.50    3.40
   5  -2  -2   15.40    3.00
  -5  -2   2   17.60    2.70
   5   2  -2   22.60    3.20
  -5   2   2   18.10    3.30
  -5   2   2   22.10    4.40
   5   2  -2   16.60    3.00
  -5   2   2   15.40    3.00
  -5   2   2   14.50    3.00
   5   2  -2   19.60    3.80
   5   2  -2   18.40    3.50
   5   2  -2   16.00    2.70
  -5   2   2   18.00    3.40
  -4  -2   2  108.79    7.10
  -4  -2   2  111.59    6.50
   4  -2  -2   98.49    6.80
   4  -2  -2   98.49    6.40
  -4  -2   2  103.09    6.10
   4  -2  -2  100.39    6.40
   4  -2  -2  109.29    6.40
  -4  -2   2  107.49    6.70
  -4  -2   2  102.29    5.80
   4  -2  -2   99.49    6.80
   4   2  -2   98.39    5.90
  -4   2   2  105.39    6.30
  -4   2   2  111.19    6.40
  -4   2   2  101.49    6.40
   4   2  -2  107.59    6.00
   4   2  -2  119.29    6.30
  -4   2   2   94.59    5.60
  -4   2   2  103.79    6.70
  -4   2   2   90.69    7.10
   4   2  -2  104.39    6.10
   4   2  -2  105.59    6.70
   4   2  -2  108.29    6.90
  -3  -2   2   91.39    5.40
   3  -2  -2   81.29    4.60
   3  -2  -2   87.79    5.10
  -3  -2   2   94.49    4.90
  -3  -2   2   88.09    5.70
  -3  -2   2   85.69    4.50
   3  -2  -2   85.69    5.40
   3  -2  -2   87.49    5.20
   3  -2  -2   95.49    5.70
   3  -2  -2   90.09    5.30
  -3  -2   2   79.79    4.40
  -3  -2   2   91.39    5.20
  -3  -2   2   72.69    4.70
  -3   2   2   90.49    5.20
  -3   2   2   72.59    4.30
  -3   2   2   97.79    6.00
   3   2  -2   75.29    4.70
   3   2  -2   86.49    4.30
  -3   2   2   85.79    5.10
   3   2  -2   81.79    4.80
  -3   2   2   71.59    4.70
  -3   2   2   86.19    5.50
   3   2  -2   88.79    5.60
   3   2  -2   92.69    4.90
   3   2  -2   82.69    5.30
  -3   2   2   86.49    5.10
   3   2  -2   91.89    4.80
  -2  -2   2    3.00    1.70
   2  -2  -2    1.20    1.30
   2  -2  -2    1.30    1.20
   2  -2  -2    0.40    1.10
  -2  -2   2    0.50    0.90
   2  -2  -2    0.60    1.40
   2  -2  -2    1.40    1.30
   2  -2  -2    0.10    1.10
  -2  -2   2   -0.60    1.30
  -2  -2   2    0.30    1.30
  -2  -2   2    1.50    1.00
  -2  -2   2    2.80    1.30
   2  -2  -2    1.30    1.20
  -2  -2   2    1.00    1.00
   2  -2  -2   -0.30    1.10
  -2  -2   2    0.10    0.90
  -2   2   2    1.00    1.10
  -2   2   2   -1.30    1.00
   2   2  -2    0.10    1.10
  -2   2   2   -0.40    1.50
  -2   2   2   -2.00    1.20
  -2   2   2   -1.20    1.70
   2   2  -2    0.20    0.90
   2   2  -2    0.30    0.90
   2   2  -2   -0.60    0.80
  -2   2   2    1.20    1.30
   2   2  -2    0.50    1.20
  -2   2   2    1.90    1.30
   2   2  -2    1.30    1.20
   2   2  -2    0.00    0.90
  -2   2   2    0.10    1.20
   2   2  -2    0.50    1.10
   2   2  -2   -0.80    1.30
   2   2  -2    0.20    0.90
  -1  -2   2 1233.98   49.90
   1  -2  -2 1076.29   49.90
  -1  -2   2 1094.59   49.90
   1  -2  -2 1237.98   49.80
  -1  -2   2 1206.98   49.99
   1  -2  -2 1180.68   49.80
   1  -2  -2 1190.08   49.60
   1  -2  -2 1177.18   49.99
  -1  -2   2 1176.58   49.70
  -1  -2   2 1091.89   49.80
   1  -2  -2 1172.48   49.90
  -1  -2   2 1192.78   49.40
   1  -2  -2 1136.79   49.80
  -1  -2   2 1075.69   49.70
   1  -2  -2 1148.09   49.80
   1  -2  -2 1130.39   49.80
   1  -2  -2 1188.08   49.90
  -1  -2   2 1145.29   49.90
  -1  -2   2 1105.39   49.99
   1  -2  -2 1114.89   49.80
  -1   2   2 1037.40   49.90
  -1   2   2 1139.59   49.80
  -1   2   2 1141.99   49.80
   1   2  -2 1218.88   49.90
   1   2  -2 1142.79   49.90
  -1   2   2 1121.49   49.70
   1   2  -2 1161.88   49.80
   1   2  -2 1152.28   49.90
  -1   2   2 1137.09   49.60
  -1   2   2 1157.58   49.90
   1   2  -2 1160.68   49.30
   1   2  -2 1055.39   49.70
  -1   2   2 1174.88   49.99
  -1   2   2 1137.99   49.90
   1   2  -2 1100.19   49.90
   1   2  -2 1135.69   49.90
  -1   2   2 1208.88   49.80
   1   2  -2 1017.90   49.40
   1   2  -2 1042.20   49.60
   1   2  -2 1171.78   49.70
   1   2  -2 1130.89   49.99
  -1   2   2 1093.99   49.80
  -1   2   2 1125.99   49.90
   0  -2   2  189.38    9.00
   0  -2   2  187.18    9.40
   0  -2  -2  210.68    9.70
   0  -2  -2  199.68    9.30
   0  -2  -2  200.28    9.00
   0  -2  -2  196.88    9.60
   0  -2   2  185.98    8.90
   0  -2  -2  200.48    9.20
   0  -2   2  178.68    9.80
   0  -2  -2  202.08    9.10
   0  -2  -2  203.28    9.40
   0  -2   2  195.38    9.00
   0  -2   2  180.38    8.70
   0  -2  -2  198.38    9.20
   0  -2   2  184.08    8.70
   0  -2   2  203.58    8.90
   0  -2  -2  205.48    9.20
   0   2   2  208.08    9.30
   0   2  -2  196.38    8.90
   0   2  -2  177.88    9.00
   0   2  -2  189.58    9.00
   0   2   2  210.68    9.70
   0   2  -2  206.08    9.20
   0   2   2  192.58    9.00
   0   2   2  191.58    9.30
   0   2   2  192.38    9.10
   0   2  -2  175.68    8.70
   0   2  -2  170.48    9.80
   0   2  -2  212.78    8.90
   0   2  -2  196.38    9.50
   0   2   2  198.68    9.00
   0   2  -2  177.08    8.70
   0   2   2  202.48    9.30
   0   2   2  198.38    9.20
   0   2   2  234.88    9.90
   0   2  -2  186.38    8.90
   0   2   2  201.38    9.10
   0   2  -2  190.28    9.10
   0   2  -2  174.38    8.70
   0   2  -2  178.48    8.70
   1  -2   2    3.40    1.10
   1  -2   2    4.60    1.30
  -1  -2  -2    8.40    1.30
   1  -2   2    3.90    1.30
   1  -2   2    3.80    1.40
  -1  -2  -2    5.20    1.60
  -1  -2  -2    4.00    1.50
   1  -2   2    9.50    1.40
   1  -2   2    3.50    1.60
  -1  -2  -2    6.70    1.50
   1  -2   2    5.10    1.30
  -1  -2  -2    4.30    1.50
   1  -2   2    6.30    1.30
  -1  -2  -2    7.50    1.60
   1  -2   2    4.00    1.10
  -1  -2  -2    6.60    1.60
  -1  -2  -2    2.30    1.50
  -1  -2  -2    5.30    1.00
  -1  -2  -2    4.70    1.70
   1   2   2    5.50    1.50
  -1   2  -2    2.80    1.10
   1   2   2    8.20    1.30
   1   2   2    5.40    1.40
   1   2   2    6.50    1.60
   1   2   2    4.50    1.60
  -1   2  -2    2.50    1.20
  -1   2  -2    3.60    1.30
  -1   2  -2    2.80    1.30
   1   2   2    4.50    1.40
  -1   2  -2    5.20    1.30
  -1   2  -2    5.40    1.30
  -1   2  -2    6.80    1.80
   1   2   2    6.60    1.60
  -1   2  -2    4.60    1.30
  -1   2  -2    4.50    1.40
   1   2   2    7.20    1.50
   1   2   2    7.40    1.10
   1   2   2    9.20    1.60
   1   2   2    6.40    1.50
  -1   2  -2    3.20    1.30
   2  -2   2  281.07   13.90
   2  -2   2  290.37   13.60
  -2  -2  -2  299.57   13.80
  -2  -2  -2  279.47   13.40
   2  -2   2  266.17   13.40
  -2  -2  -2  300.37   13.80
  -2  -2  -2  296.97   13.90
   2  -2   2  307.17   13.80
  -2  -2  -2  312.97   14.30
  -2  -2  -2  291.67   13.20
  -2  -2  -2  304.67   13.70
   2  -2   2  281.67   13.10
   2  -2   2  291.57   13.50
   2  -2   2  302.87   13.90
  -2   2  -2  289.47   13.70
  -2   2  -2  286.37   13.60
  -2   2  -2  271.57   14.20
   2   2   2  297.87   14.00
  -2   2  -2  252.27   13.30
  -2   2  -2  285.57   13.70
  -2   2  -2  277.97   13.70
   2   2   2  327.67   13.50
   2   2   2  315.47   13.80
   2   2   2  304.27   13.70
   2   2   2  300.67   13.20
   2   2   2  307.17   13.80
   3  -2   2  108.19    5.70
  -3  -2  -2  105.29    5.70
  -3  -2  -2  112.99    5.60
  -3  -2  -2   97.99    6.10
  -3  -2  -2  106.59    6.90
   3  -2   2   99.99    5.80
  -3  -2  -2  112.99    6.40
   3  -2   2  110.89    6.50
   3  -2   2   94.69    6.10
   3  -2   2  104.59    6.30
  -3  -2  -2  107.89    6.30
   3  -2   2   97.39    6.30
  -3  -2  -2  108.99    5.90
  -3   2  -2  107.19    6.20
  -3   2  -2  107.99    6.40
  -3   2  -2  114.19    7.20
   3   2   2  106.89    5.40
   3   2   2   98.89    5.90
   3   2   2  117.89    6.70
  -3   2  -2   97.39    6.20
   3   2   2  107.39    6.30
   3   2   2  113.09    6.20
   3   2   2  109.89    6.20
   4  -2   2    3.90    2.20
  -4  -2  -2    3.20    2.10
   4  -2   2    1.40    1.70
  -4  -2  -2   -1.40    1.40
  -4  -2  -2    2.30    1.50
  -4  -2  -2    3.30    1.90
  -4  -2  -2    0.30    1.40
   4  -2   2    2.20    1.60
   4  -2   2    2.00    2.30
   4  -2   2    0.20    2.00
  -4  -2  -2    5.50    2.90
   4  -2   2    1.60    2.10
   4   2   2    1.60    1.90
  -4   2  -2    3.30    2.00
  -4   2  -2    2.50    2.10
   4   2   2    0.40    2.00
   4   2   2   -0.10    2.20
   4   2   2   -0.90    2.10
  -4   2  -2    2.20    2.80
  -4   2  -2    2.20    1.60
  -4   2  -2    5.30    2.40
   4   2   2   -1.00    1.60
   5  -2   2   68.79    5.00
  -5  -2  -2   76.39    6.10
  -5  -2  -2   72.99    5.30
   5  -2   2   71.59    5.50
   5  -2   2   84.19    6.50
  -5  -2  -2   86.49    7.70
  -5  -2  -2   78.79    5.20
   5  -2   2   77.89    6.40
   5  -2   2   71.39    6.40
  -5  -2  -2   78.49    6.10
   5  -2   2   81.19    6.30
  -5  -2  -2   87.89    6.80
   5   2   2   77.89    5.80
  -5   2  -2   65.29    6.30
  -5   2  -2   67.49    6.20
  -5   2  -2   77.79    6.10
   5   2   2   70.69    6.40
   5   2   2   77.99    6.10
  -5   2  -2   78.59    6.20
   5   2   2   69.99    6.30
  -5   2  -2   82.99    7.70
   5   2   2   76.29    6.20
  -5   2  -2   80.79    6.00
   6  -2   2   26.60    4.80
   6  -2   2   28.40    4.40
  -6  -2  -2   25.80    4.60
  -6  -2  -2   34.00    4.80
   6  -2   2   19.70    4.20
  -6  -2  -2   23.90    4.10
   6  -2   2   29.30    4.90
  -6  -2  -2   25.30    5.30
   6   2   2   27.70    4.60
  -6   2  -2   21.10    4.40
   6   2   2   26.30    4.10
  -6   2  -2   30.50    6.00
  -6   2  -2   21.40    4.10
  -6   2  -2   20.60    4.00
   6   2   2   33.10    4.60
   6   2   2   27.50    4.70
   6   2   2   33.30    4.60
  -7  -2  -2    8.20    4.50
   7  -2   2    0.10    3.70
   7  -2   2   -1.20    6.00
   7  -2   2    2.20    3.50
  -7  -2  -2    8.20    3.70
  -7  -2  -2    1.90    3.50
  -7  -2  -2   -1.80    2.70
   7   2   2   -1.60    3.20
   7   2   2   10.70    3.90
  -7   2  -2    3.40    3.20
  -7   2  -2    5.00    3.60
   7   2   2   -3.40    2.80
  -7   2  -2    0.90    3.50
   7   2   2    6.20    5.40
   7  -3  -2   13.30    3.90
   7  -3  -2    8.00    3.90
   7  -3  -2    4.20    3.40
   7  -3  -2   11.70    4.00
  -7  -3   2    6.00    3.30
  -7  -3   2    9.10    4.10
   7  -3  -2   11.70    3.50
   7   3  -2    5.90    3.90
   7   3  -2    4.40    3.10
  -7   3   2    6.30    3.70
  -7   3   2   12.00    5.00
  -7   3   2   12.30    3.90
   7   3  -2   12.50    3.80
   7   3  -2    6.20    3.70
  -7   3   2   13.70    3.60
   6  -3  -2  402.06   20.40
   6  -3  -2  393.36   19.70
  -6  -3   2  411.66   20.60
   6  -3  -2  394.76   20.30
   6  -3  -2  417.36   20.00
   6  -3  -2  377.86   19.70
  -6  -3   2  375.06   19.40
  -6  -3   2  374.06   20.10
   6   3  -2  377.16   20.20
  -6   3   2  410.26   21.00
   6   3  -2  395.86   19.40
   6   3  -2  362.46   20.30
  -6   3   2  398.06   19.80
  -6   3   2  362.86   19.50
   6   3  -2  400.96   20.40
   6   3  -2  400.76   19.50
  -6   3   2  429.56   19.80
  -6   3   2  413.46   20.10
  -5  -3   2  350.96   16.60
   5  -3  -2  363.86   18.10
  -5  -3   2  345.57   17.40
   5  -3  -2  355.86   17.60
  -5  -3   2  343.67   17.80
   5  -3  -2  353.06   17.60
  -5  -3   2  363.86   18.20
   5  -3  -2  347.87   17.40
   5  -3  -2  351.76   17.90
  -5  -3   2  383.66   17.30
  -5   3   2  326.77   17.30
  -5   3   2  377.66   17.80
   5   3  -2  324.17   16.90
  -5   3   2  361.26   18.50
  -5   3   2  355.96   17.40
   5   3  -2  342.27   17.10
   5   3  -2  352.46   17.90
  -5   3   2  350.16   17.70
   5   3  -2  394.16   17.30
   5   3  -2  362.06   18.10
   4  -3  -2   15.90    2.60
  -4  -3   2   10.70    2.60
   4  -3  -2   12.30    2.70
  -4  -3   2   14.70    2.30
   4  -3  -2   11.00    2.40
  -4  -3   2   13.20    2.60
  -4  -3   2   16.40    3.20
   4  -3  -2   11.40    1.60
  -4  -3   2   12.90    1.90
   4  -3  -2   16.50    2.80
  -4  -3   2   13.10    1.90
   4  -3  -2   12.60    2.80
  -4   3   2   13.10    2.50
   4   3  -2   13.10    2.80
   4   3  -2   14.00    2.30
   4   3  -2   13.00    2.20
   4   3  -2   15.50    2.40
   4   3  -2   11.40    2.20
  -4   3   2   11.00    1.80
  -4   3   2    8.80    2.70
  -4   3   2    9.30    1.80
  -4   3   2   10.00    2.30
   4   3  -2   13.40    2.80
  -4   3   2   14.50    2.70
  -4   3   2    9.80    3.20
   3  -3  -2 1404.06   60.89
  -3  -3   2 1446.46   60.89
   3  -3  -2 1315.77   60.39
  -3  -3   2 1347.87   61.09
   3  -3  -2 1395.26   61.19
   3  -3  -2 1353.36   60.89
   3  -3  -2 1456.05   60.89
  -3  -3   2 1384.96   60.99
  -3  -3   2 1331.97   60.59
   3  -3  -2 1426.16   60.79
  -3  -3   2 1454.65   60.49
   3   3  -2 1473.35   60.49
   3   3  -2 1355.76   60.39
  -3   3   2 1403.56   61.29
   3   3  -2 1414.06   61.09
  -3   3   2 1274.47   60.49
   3   3  -2 1398.56   60.19
  -3   3   2 1294.97   60.09
  -3   3   2 1377.26   60.69
   3   3  -2 1317.47   60.59
  -3   3   2 1361.96   60.89
   3   3  -2 1436.96   60.39
  -3   3   2 1324.17   60.69
   3   3  -2 1376.56   61.19
  -3   3   2 1436.76   60.89
   2  -3  -2 2359.06  102.69
  -2  -3   2 2325.37  102.49
  -2  -3   2 2414.76  102.19
   2  -3  -2 2475.85  102.79
   2  -3  -2 2418.46  102.99
   2  -3  -2 2321.37  102.59
  -2  -3   2 2504.85  102.29
   2  -3  -2 2516.15  102.79
  -2  -3   2 2341.77  102.89
   2  -3  -2 2386.86  102.49
   2  -3  -2 2264.17  102.69
  -2  -3   2 2443.36  102.89
   2  -3  -2 2326.87  102.69
  -2   3   2 2391.16  102.79
   2   3  -2 2453.65  102.39
   2   3  -2 2208.48  102.09
  -2   3   2 2262.87  102.69
  -2   3   2 2324.27  102.69
   2   3  -2 2413.56  102.29
   2   3  -2 2250.17  102.19
  -2   3   2 2394.06  102.49
   2   3  -2 2412.46  102.99
  -2   3   2 2329.97  102.69
  -2   3   2 2466.35  102.79
  -2   3   2 2191.78  102.09
   2   3  -2 2536.75  102.29
  -2   3   2 2361.66  102.99
   2   3  -2 2427.26  102.19
   2   3  -2 2124.69  102.49
   2   3  -2 2306.67  102.79
  -2   3   2 2236.48  102.69
   1  -3  -2 1155.78   49.00
   1  -3  -2 1042.70   49.30
   1  -3  -2 1170.28   49.30
   1  -3  -2 1165.28   48.90
  -1  -3   2 1189.18   49.10
   1  -3  -2 1205.68   49.10
  -1  -3   2 1104.99   49.40
  -1  -3   2 1197.28   49.20
   1  -3  -2 1116.99   49.20
   1  -3  -2 1159.98   49.40
  -1  -3   2 1176.88   49.30
   1  -3  -2 1094.79   49.20
   1  -3  -2 1151.28   49.20
  -1  -3   2 1072.99   49.30
  -1  -3   2 1121.59   49.20
   1  -3  -2 1090.09   49.10
   1  -3  -2 1184.78   49.30
   1   3  -2 1101.59   49.20
  -1   3   2 1115.69   49.20
   1   3  -2 1141.59   49.20
  -1   3   2 1106.99   49.10
  -1   3   2 1063.69   48.80
   1   3  -2 1148.29   49.20
  -1   3   2 1049.20   49.40
   1   3  -2 1107.29   49.10
  -1   3   2 1121.99   49.20
  -1   3   2 1091.89   49.30
  -1   3   2 1099.29   49.20
   1   3  -2 1118.19   49.40
  -1   3   2 1126.99   49.20
  -1   3   2 1137.39   49.00
  -1   3   2 1116.79   49.20
   1   3  -2 1088.79   49.30
  -1   3   2 1150.08   49.30
   1   3  -2 1116.59   49.00
   1   3  -2 1054.79   49.20
   1   3  -2 1116.09   49.10
   0  -3   2 5657.73  241.18
   0  -3   2 5075.89  241.08
   0  -3  -2 5771.72  241.78
   0  -3  -2 5852.11  242.28
   0  -3  -2 5780.62  240.08
   0  -3  -2 5777.12  240.38
   0  -3  -2 5794.32  241.78
   0  -3   2 4699.43  240.58
   0  -3  -2 5731.93  240.38
   0  -3   2 4967.20  239.88
   0  -3   2 5686.53  240.28
   0  -3  -2 5677.93  241.38
   0  -3  -2 5540.55  242.18
   0  -3   2 5679.33  240.48
   0  -3  -2 5433.16  239.88
   0  -3  -2 5603.84  241.58
   0  -3   2 5629.44  240.38
   0  -3   2 5161.08  239.98
   0  -3  -2 5704.93  240.38
   0  -3  -2 5844.12  240.68
   0   3   2 6206.58  242.18
   0   3  -2 5548.84  240.38
   0   3   2 5896.01  240.58
   0   3   2 5591.74  240.28
   0   3   2 5543.75  240.48
   0   3  -2 5535.25  240.08
   0   3   2 5640.44  240.58
   0   3   2 5884.21  240.28
   0   3  -2 5506.25  240.58
   0   3  -2 5339.07  239.98
   0   3   2 5769.02  241.18
   0   3   2 5569.84  241.38
   0   3   2 5743.62  242.08
   0   3  -2 5425.96  241.38
   0   3  -2 5527.25  240.08
   0   3  -2 5073.69  240.58
   0   3  -2 5301.57  239.98
   0   3  -2 5246.17  240.58
   0   3  -2 4986.00  240.08
   0   3  -2 5766.72  240.78
  -1  -3  -2 2373.86  100.79
  -1  -3  -2 2681.33  100.69
  -1  -3  -2 2525.35  100.99
   1  -3   2 2187.18  100.69
   1  -3   2 2275.67  100.39
   1  -3   2 2113.39  100.29
   1  -3   2 2257.37  100.59
  -1  -3  -2 2427.76  100.79
   1  -3   2 2266.47  100.49
   1  -3   2 2189.78  100.39
   1  -3   2 2292.27  100.69
  -1  -3  -2 2322.67  100.39
   1  -3   2 2193.38  100.59
  -1  -3  -2 2504.15  100.99
  -1  -3  -2 2467.95  100.89
   1  -3   2 2096.69  100.99
  -1  -3  -2 2415.36  100.99
  -1  -3  -2 2542.75  100.89
   1  -3   2 2061.89  100.59
   1  -3   2 2151.88  100.49
  -1  -3  -2 2436.26  100.89
  -1   3  -2 2226.58  101.09
  -1   3  -2 2233.38  100.49
  -1   3  -2 2092.39  100.49
   1   3   2 2375.66  100.69
   1   3   2 2398.76  100.89
   1   3   2 2439.06  100.79
   1   3   2 2455.35  100.59
  -1   3  -2 2089.19  100.39
  -1   3  -2 1983.60  100.29
  -1   3  -2 2189.08  100.49
   1   3   2 2610.84  100.89
   1   3   2 2374.66  100.79
   1   3   2 2409.66  100.89
  -1   3  -2 2232.68  100.49
   1   3   2 2457.55  100.99
   1   3   2 2694.83  101.09
   1   3   2 2508.95  100.89
  -1   3  -2 2081.39  100.59
  -1   3  -2 2285.57  100.69
  -1   3  -2 2124.69  100.69
  -2  -3  -2  595.04   26.00
   2  -3   2  560.74   25.70
   2  -3   2  575.74   25.90
  -2  -3  -2  638.84   26.40
  -2  -3  -2  614.74   26.20
   2  -3   2  510.15   25.40
   2  -3   2  540.55   25.30
   2  -3   2  594.14   26.00
  -2  -3  -2  585.84   25.90
   2  -3   2  558.44   25.60
  -2  -3  -2  625.74   25.90
  -2  -3  -2  581.94   25.70
   2   3   2  601.94   25.90
   2   3   2  591.44   25.90
  -2   3  -2  531.75   25.80
  -2   3  -2  530.05   25.20
  -2   3  -2  509.35   25.40
   2   3   2  586.64   26.20
  -2   3  -2  545.65   25.80
  -2   3  -2  539.45   26.30
  -2   3  -2  586.04   25.90
  -2   3  -2  556.24   25.80
   2   3   2  637.94   25.70
   2   3   2  612.54   26.00
   2   3   2  584.04   25.80
  -3  -3  -2  898.21   38.00
   3  -3   2  792.32   37.20
  -3  -3  -2  870.61   37.00
   3  -3   2  809.42   37.10
  -3  -3  -2  835.92   37.40
   3  -3   2  825.82   36.80
   3  -3   2  801.62   37.40
   3  -3   2  815.52   36.70
   3  -3   2  860.41   37.50
   3  -3   2  745.23   36.70
  -3  -3  -2  847.82   37.20
  -3  -3  -2  856.11   37.00
  -3  -3  -2  859.61   37.30
   3   3   2  849.41   37.20
   3   3   2  845.72   37.30
  -3   3  -2  795.42   36.60
  -3   3  -2  826.12   37.20
  -3   3  -2  824.62   37.10
   3   3   2  864.81   37.40
  -3   3  -2  801.82   37.20
   3   3   2  822.32   37.50
  -3   3  -2  847.22   37.40
  -3   3  -2  826.32   38.10
   4  -3   2 1158.48   52.99
  -4  -3  -2 1153.38   54.29
  -4  -3  -2 1240.98   53.59
   4  -3   2 1177.08   53.69
   4  -3   2 1223.98   53.59
   4  -3   2 1228.48   52.99
  -4  -3  -2 1188.18   53.59
  -4  -3  -2 1201.88   53.69
   4  -3   2 1215.18   53.79
   4  -3   2 1151.88   53.89
  -4  -3  -2 1243.08   53.19
  -4   3  -2 1220.28   53.69
   4   3   2 1139.09   53.79
   4   3   2 1212.68   53.59
  -4   3  -2 1217.48   53.39
  -4   3  -2 1178.58   54.59
   4   3   2 1211.78   53.79
  -4   3  -2 1150.88   53.69
   4   3   2 1242.18   53.59
   4   3   2 1234.08   53.49
  -4   3  -2 1225.28   53.29
  -5  -3  -2  265.27   13.00
   5  -3   2  211.28   11.50
   5  -3   2  225.28   12.30
   5  -3   2  223.08   11.10
   5  -3   2  220.68   12.40
   5  -3   2  200.08   12.30
   5  -3   2  219.58   12.60
  -5  -3  -2  234.28   12.40
  -5  -3  -2  254.17   13.70
  -5  -3  -2  219.98   11.40
  -5  -3  -2  240.58   12.10
  -5   3  -2  220.48   13.60
  -5   3  -2  217.48   11.70
  -5   3  -2  223.38   12.10
   5   3   2  212.48   11.90
   5   3   2  230.88   12.30
  -5   3  -2  234.58   12.50
   5   3   2  218.78   12.40
  -5   3  -2  206.58   12.30
   5   3   2  223.68   12.10
   5   3   2  228.08   12.50
  -5   3  -2  227.18   12.10
   6  -3   2  139.19    9.60
  -6  -3  -2  153.18    9.70
   6  -3   2  130.39    9.70
  -6  -3  -2  152.38    9.40
  -6  -3  -2  143.19    8.50
  -6  -3  -2  154.58   11.20
  -6  -3  -2  141.49    9.80
   6  -3   2  129.99    9.80
   6   3   2  148.39    9.90
   6   3   2  147.49    9.40
   6   3   2  153.48    9.60
  -6   3  -2  146.29   10.00
  -6   3  -2  140.89   10.00
   6   3   2  145.79    9.20
  -6   3  -2  141.29    9.50
  -6   3  -2  150.88   11.50
   6   3   2  139.99    9.70
  -6   3  -2  152.38    9.70
   7  -3   2  177.18   12.10
  -7  -3  -2  211.18   12.00
  -7  -3  -2  182.58   13.50
  -7  -3  -2  172.88   12.20
   7  -3   2  183.18   16.70
   7   3   2  202.18   12.30
  -7   3  -2  206.98   12.80
   7   3   2  189.78   13.10
  -7   3  -2  176.08   12.30
  -7   3  -2  193.58   11.90
   7   3   2  184.28   13.20
  -7  -4   2  143.99   10.20
  -7  -4   2  143.99   10.50
   7  -4  -2  141.59   10.10
  -7  -4   2  126.09    9.20
   7  -4  -2  132.69   10.30
   7  -4  -2  129.19    9.80
   7  -4  -2  147.69   10.50
   7   4  -2  138.19   10.20
  -7   4   2  131.49   11.30
   7   4  -2  146.09   10.70
   7   4  -2  119.79    9.00
  -7   4   2  132.89    9.30
   7   4  -2  141.39    9.50
  -7   4   2  140.19   10.00
  -7   4   2  150.58   10.20
  -6  -4   2   83.49    6.70
   6  -4  -2   83.39    7.80
  -6  -4   2   88.49    7.60
  -6  -4   2   83.19    7.60
   6  -4  -2   87.89    7.60
   6  -4  -2   72.79    7.00
   6  -4  -2   77.79    6.50
   6  -4  -2  106.59    7.90
   6   4  -2   83.29    7.50
   6   4  -2   75.29    6.20
   6   4  -2   74.79    6.40
  -6   4   2   76.49    6.40
  -6   4   2   85.49    7.30
  -6   4   2   81.59    7.20
  -6   4   2   95.59    7.40
   6   4  -2   84.19    7.60
   6   4  -2   86.09    6.80
  -6   4   2   74.09    8.00
  -5  -4   2  226.78   11.20
   5  -4  -2  225.88   12.20
   5  -4  -2  225.78   12.50
  -5  -4   2  234.08   12.30
  -5  -4   2  250.17   13.00
   5  -4  -2  239.38   13.00
   5  -4  -2  225.48   12.80
   5  -4  -2  243.78   12.60
  -5  -4   2  242.08   12.90
   5   4  -2  219.28   11.90
   5   4  -2  224.58   12.80
   5   4  -2  239.18   13.00
  -5   4   2  235.38   12.80
  -5   4   2  224.28   12.10
  -5   4   2  225.18   12.50
  -5   4   2  235.28   13.60
  -5   4   2  248.38   12.60
   5   4  -2  229.78   11.90
   5   4  -2  236.08   12.00
   4  -4  -2 1032.40   45.40
  -4  -4   2 1003.20   44.90
   4  -4  -2 1011.00   45.60
  -4  -4   2 1025.10   45.70
   4  -4  -2 1039.40   45.50
   4  -4  -2 1065.69   45.30
  -4  -4   2 1026.90   44.30
  -4  -4   2 1009.00   45.40
   4  -4  -2  963.70   45.60
  -4  -4   2 1054.49   45.70
  -4   4   2  954.20   44.80
   4   4  -2 1083.69   45.00
  -4   4   2 1016.00   45.50
  -4   4   2  984.20   45.00
   4   4  -2  946.71   45.00
   4   4  -2 1005.10   45.80
  -4   4   2  934.71   44.50
   4   4  -2  997.50   45.60
  -4   4   2 1027.60   45.30
  -4   4   2 1025.30   45.50
   4   4  -2  999.40   44.80
   4   4  -2 1067.99   44.90
   3  -4  -2  406.36   18.30
  -3  -4   2  392.76   18.60
  -3  -4   2  401.06   18.60
  -3  -4   2  405.76   18.00
   3  -4  -2  390.06   18.50
   3  -4  -2  419.36   18.50
   3  -4  -2  413.06   18.60
  -3  -4   2  405.76   18.50
   3  -4  -2  406.86   18.80
  -3   4   2  354.06   18.30
   3   4  -2  398.66   18.80
   3   4  -2  389.56   18.70
  -3   4   2  400.16   18.50
  -3   4   2  351.26   17.70
   3   4  -2  370.66   18.30
  -3   4   2  398.86   18.70
   3   4  -2  392.16   17.90
  -3   4   2  378.56   18.10
  -3   4   2  407.76   18.60
   3   4  -2  420.66   17.90
   3   4  -2  405.86   17.90
   3   4  -2  421.46   18.00
   3   4  -2  388.26   17.90
  -2  -4   2  529.45   24.60
  -2  -4   2  561.04   24.40
  -2  -4   2  540.95   24.20
  -2  -4   2  558.04   24.30
   2  -4  -2  558.94   24.30
  -2  -4   2  529.25   24.40
   2  -4  -2  480.55   24.20
   2  -4  -2  523.45   23.90
   2  -4  -2  548.95   24.30
  -2  -4   2  556.34   23.70
   2  -4  -2  561.74   24.20
   2   4  -2  546.05   23.90
  -2   4   2  528.75   24.40
  -2   4   2  515.95   24.20
  -2   4   2  542.75   23.90
   2   4  -2  512.95   23.60
  -2   4   2  525.95   24.30
  -2   4   2  520.25   24.30
   2   4  -2  539.55   24.50
  -2   4   2  540.85   24.30
  -2   4   2  545.25   23.70
   2   4  -2  551.14   23.60
   2   4  -2  551.94   24.00
  -2   4   2  544.25   24.50
   2   4  -2  526.75   24.20
   2   4  -2  549.65   24.50
  -1  -4   2 1558.14   66.29
   1  -4  -2 1493.05   66.49
  -1  -4   2 1524.55   66.39
   1  -4  -2 1447.06   66.39
   1  -4  -2 1517.95   66.29
  -1  -4   2 1601.14   66.19
   1  -4  -2 1579.44   66.39
  -1  -4   2 1527.75   66.09
   1  -4  -2 1544.55   66.29
  -1  -4   2 1552.34   66.39
   1  -4  -2 1608.74   65.99
   1  -4  -2 1439.36   66.09
  -1  -4   2 1504.75   66.49
   1  -4  -2 1540.45   66.29
   1  -4  -2 1616.84   65.99
  -1   4   2 1511.05   66.39
  -1   4   2 1471.25   65.99
   1   4  -2 1530.15   66.09
   1   4  -2 1478.95   66.29
   1   4  -2 1511.55   66.19
  -1   4   2 1485.45   66.19
   1   4  -2 1492.15   66.29
  -1   4   2 1506.35   66.29
   1   4  -2 1491.55   66.19
  -1   4   2 1529.25   66.29
  -1   4   2 1473.85   66.19
   1   4  -2 1481.15   66.49
  -1   4   2 1554.84   66.59
  -1   4   2 1499.95   66.09
   1   4  -2 1566.44   66.29
   1   4  -2 1453.45   66.29
   1   4  -2 1451.25   66.39
  -1   4   2 1528.95   66.59
   0  -4  -2 2627.04  110.99
   0  -4  -2 2590.74  111.19
   0  -4   2 2236.48  111.19
   0  -4  -2 2635.24  111.19
   0  -4  -2 2612.84  110.89
   0  -4  -2 2565.54  110.59
   0  -4   2 2465.55  110.99
   0  -4   2 2466.75  110.49
   0  -4   2 2371.96  110.29
   0  -4  -2 2495.25  111.09
   0  -4  -2 2524.85  110.89
   0  -4  -2 2673.63  111.09
   0  -4   2 2601.84  110.89
   0  -4   2 2542.05  110.79
   0  -4  -2 2687.93  110.99
   0  -4  -2 2615.04  110.99
   0  -4  -2 2630.74  110.89
   0   4  -2 2392.36  111.19
   0   4  -2 2473.95  110.29
   0   4  -2 2547.05  110.89
   0   4   2 2860.61  110.99
   0   4   2 2528.65  110.89
   0   4   2 2577.44  111.09
   0   4   2 2586.64  111.09
   0   4   2 2555.64  111.09
   0   4  -2 2370.96  110.49
   0   4  -2 2588.54  111.09
   0   4   2 2594.04  111.29
   0   4   2 2652.03  110.99
   0   4  -2 2381.56  110.29
   0   4  -2 2617.74  110.69
   0   4   2 2675.83  110.49
   0   4  -2 2518.55  111.09
   0   4  -2 2558.34  110.79
   0   4  -2 2407.66  110.69
   0   4   2 2587.04  110.79
   0   4  -2 2437.96  110.49
   0   4   2 2732.43  111.09
   0   4  -2 2571.84  111.09
   1  -4   2   11.30    1.80
   1  -4   2    7.70    1.80
  -1  -4  -2    9.20    1.80
   1  -4   2    9.70    1.60
   1  -4   2   10.50    1.40
   1  -4   2   10.90    1.10
   1  -4   2    9.40    1.50
  -1  -4  -2   15.50    2.10
  -1  -4  -2   13.40    1.80
   1  -4   2    8.50    1.30
  -1  -4  -2   14.00    2.20
  -1  -4  -2   11.70    1.60
   1  -4   2   10.20    2.00
   1  -4   2   10.20    1.80
  -1  -4  -2   18.00    2.30
   1   4   2   13.80    2.00
  -1   4  -2    9.50    1.30
  -1   4  -2   11.30    1.60
   1   4   2   10.80    1.90
  -1   4  -2   10.10    1.90
   1   4   2   12.90    1.70
  -1   4  -2    9.60    2.00
  -1   4  -2   10.40    1.40
  -1   4  -2    9.90    1.60
  -1   4  -2    9.50    1.60
   1   4   2   11.20    1.90
  -1   4  -2   10.10    1.50
  -1   4  -2   10.90    1.20
   1   4   2    9.50    1.80
   1   4   2   12.80    1.90
   1   4   2   13.40    2.00
   1   4   2   14.40    2.30
  -1   4  -2   13.00    2.00
   1   4   2   15.00    1.90
  -2  -4  -2 3387.16  138.59
  -2  -4  -2 3479.15  139.19
   2  -4   2 3313.67  138.89
  -2  -4  -2 3404.66  138.89
  -2  -4  -2 3246.28  138.79
  -2  -4  -2 3204.28  138.79
   2  -4   2 2968.40  138.19
   2  -4   2 2835.52  138.09
   2  -4   2 3212.98  138.89
  -2  -4  -2 3154.98  138.59
   2  -4   2 3108.79  138.69
  -2  -4  -2 3334.07  139.09
   2  -4   2 3061.19  138.49
  -2   4  -2 3094.09  138.69
  -2   4  -2 3027.20  138.59
   2   4   2 3314.97  138.79
   2   4   2 3245.28  138.69
  -2   4  -2 3017.40  139.19
  -2   4  -2 3020.00  138.59
   2   4   2 3346.77  138.89
   2   4   2 3256.47  139.09
  -2   4  -2 3078.19  138.69
   2   4   2 3206.18  138.79
  -2   4  -2 3126.79  138.89
   2   4   2 3610.04  138.79
  -2   4  -2 2962.30  138.09
  -3  -4  -2 1005.60   43.40
   3  -4   2  978.50   43.50
   3  -4   2  881.41   42.70
   3  -4   2  911.61   43.60
  -3  -4  -2 1025.60   43.50
   3  -4   2  976.30   43.30
   3  -4   2  953.30   42.80
   3  -4   2  934.91   42.90
  -3  -4  -2 1010.30   43.20
  -3  -4  -2 1026.10   44.00
  -3  -4  -2  999.90   43.60
  -3   4  -2  873.61   42.70
   3   4   2 1025.10   43.60
   3   4   2  990.70   43.80
  -3   4  -2 1003.40   43.50
  -3   4  -2  992.30   43.40
  -3   4  -2  999.90   44.30
  -3   4  -2  969.70   43.40
   3   4   2  985.60   43.40
  -3   4  -2  984.30   43.50
   3   4   2  918.71   43.30
   4  -4   2   34.20    4.20
   4  -4   2   35.60    3.50
   4  -4   2   41.40    4.60
  -4  -4  -2   47.80    4.60
  -4  -4  -2   40.40    4.80
  -4  -4  -2   44.10    4.30
   4  -4   2   38.60    4.10
  -4  -4  -2   37.70    3.60
   4  -4   2   43.30    3.30
   4   4   2   36.50    4.00
   4   4   2   38.70    4.00
  -4   4  -2   38.90    3.90
  -4   4  -2   38.90    4.90
  -4   4  -2   41.70    4.30
   4   4   2   41.10    4.50
  -4   4  -2   29.90    4.10
  -4   4  -2   39.10    4.60
   4   4   2   35.10    4.20
   4   4   2   35.00    4.10
   5  -4   2  409.06   19.20
   5  -4   2  425.16   20.40
   5  -4   2  400.26   20.60
  -5  -4  -2  434.16   20.40
   5  -4   2  414.76   20.40
  -5  -4  -2  429.56   20.10
   5  -4   2  401.26   19.60
  -5  -4  -2  403.66   19.60
  -5  -4  -2  425.86   21.40
  -5  -4  -2  431.36   20.90
   5   4   2  409.36   20.60
   5   4   2  411.86   20.10
  -5   4  -2  393.36   20.50
   5   4   2  440.66   20.30
   5   4   2  387.46   20.40
  -5   4  -2  416.46   19.80
   5   4   2  438.26   20.30
  -5   4  -2  403.36   21.60
  -5   4  -2  412.26   20.20
  -5   4  -2  379.96   19.90
  -6  -4  -2  245.08   13.60
   6  -4   2  207.48   13.00
   6  -4   2  243.78   13.50
  -6  -4  -2  212.98   12.00
   6  -4   2  234.58   13.50
  -6  -4  -2  259.67   12.90
  -6  -4  -2  244.18   14.60
  -6  -4  -2  244.28   13.10
   6   4   2  205.58   13.10
   6   4   2  231.58   12.90
   6   4   2  212.78   13.10
  -6   4  -2  219.48   13.30
  -6   4  -2  237.18   13.20
   6   4   2  219.48   12.70
   6   4   2  221.88   12.90
  -6   4  -2  217.28   12.70
  -6   4  -2  236.38   13.50
  -6   4  -2  227.38   14.60
  -7  -4  -2    1.70    4.20
  -7  -4  -2   -6.00    6.20
   7  -4   2    5.00    3.70
  -7   4  -2    3.30    3.60
  -7   4  -2   10.40    4.20
   7   4   2    3.30    3.10
  -7   4  -2    3.80    3.10
   7  -5  -2    5.00    3.50
   7  -5  -2    5.00    3.70
  -7  -5   2    3.00    3.30
  -7  -5   2    2.30    2.90
   7  -5  -2    3.30    3.40
   7  -5  -2    4.20    3.60
  -7  -5   2    2.10    3.40
  -7   5   2   -1.00    3.40
   7   5  -2    9.40    3.70
  -7   5   2    1.40    3.60
   7   5  -2   -2.20    2.60
   7   5  -2   -4.20    2.70
  -7   5   2    2.80    3.70
  -7   5   2   -1.00    3.90
   7   5  -2    3.40    3.30
  -6  -5   2    5.20    3.40
   6  -5  -2    7.50    3.20
   6  -5  -2    7.20    3.50
   6  -5  -2   11.30    3.70
  -6  -5   2   11.60    3.90
   6  -5  -2    7.90    3.30
  -6  -5   2   10.40    3.10
   6  -5  -2   10.00    3.10
  -6   5   2   16.70    4.00
   6   5  -2    7.80    2.80
  -6   5   2    7.80    3.70
  -6   5   2    4.30    2.60
   6   5  -2    8.20    3.00
   6   5  -2   11.80    3.00
  -6   5   2    2.70    3.70
   6   5  -2   10.40    3.60
   6   5  -2    9.00    3.30
   5  -5  -2   14.40    2.80
   5  -5  -2    7.30    2.90
  -5  -5   2   15.00    3.00
  -5  -5   2   15.20    3.40
   5  -5  -2    7.70    3.00
   5  -5  -2   14.00    3.20
  -5  -5   2   19.80    3.80
   5  -5  -2   11.20    3.20
   5   5  -2   11.00    3.20
   5   5  -2   14.10    2.80
  -5   5   2    8.20    3.40
  -5   5   2   14.80    3.40
   5   5  -2   11.10    2.70
  -5   5   2   13.00    2.60
   5   5  -2   12.60    3.30
  -5   5   2   13.00    3.30
   5   5  -2   12.90    2.70
  -4  -5   2    4.40    2.10
   4  -5  -2    7.80    2.20
   4  -5  -2    7.10    2.40
  -4  -5   2    4.20    1.80
  -4  -5   2   10.70    2.60
   4  -5  -2    5.70    2.00
   4  -5  -2    3.50    2.20
  -4  -5   2    6.20    2.40
   4  -5  -2    7.70    2.60
  -4   5   2    4.10    1.90
   4   5  -2    9.80    2.20
  -4   5   2   10.10    3.00
   4   5  -2    1.70    2.10
   4   5  -2    7.90    2.00
  -4   5   2   12.30    2.80
   4   5  -2    5.20    2.00
   4   5  -2    1.80    2.20
  -4   5   2    6.50    1.90
   4   5  -2    6.00    2.00
  -4   5   2    6.90    2.40
  -4   5   2    3.60    2.00
   3  -5  -2   16.30    2.70
  -3  -5   2   16.50    2.60
   3  -5  -2   19.30    2.70
  -3  -5   2   19.00    2.70
   3  -5  -2   18.00    2.30
  -3  -5   2   13.50    2.40
  -3  -5   2   18.60    1.90
   3  -5  -2   18.90    2.80
   3  -5  -2   11.90    2.60
   3   5  -2   19.20    1.80
  -3   5   2   13.00    2.50
  -3   5   2   17.50    1.80
  -3   5   2   19.90    2.90
   3   5  -2   16.10    2.40
   3   5  -2   18.50    2.10
  -3   5   2   16.50    2.00
  -3   5   2   20.00    2.80
   3   5  -2   17.60    2.80
   3   5  -2   15.90    2.70
   3   5  -2   16.50    1.90
  -3   5   2   17.80    3.10
   3   5  -2   17.10    1.90
   3   5  -2   17.80    2.00
   2  -5  -2    6.60    1.60
   2  -5  -2    5.30    1.70
   2  -5  -2    5.90    2.00
   2  -5  -2    5.80    1.80
  -2  -5   2    6.70    1.80
   2  -5  -2    4.80    1.20
   2  -5  -2    4.40    1.20
   2  -5  -2    5.50    1.70
  -2  -5   2    6.40    1.90
  -2  -5   2    6.10    1.10
  -2  -5   2    3.40    1.50
  -2  -5   2    5.70    1.90
   2   5  -2    7.70    1.90
   2   5  -2    5.90    1.00
   2   5  -2    7.00    1.70
  -2   5   2    4.50    1.20
   2   5  -2    5.80    1.00
   2   5  -2    5.40    1.60
  -2   5   2    5.00    1.70
  -2   5   2    7.80    2.10
  -2   5   2    5.90    1.20
  -2   5   2    5.50    1.70
  -2   5   2    9.70    2.10
   1  -5  -2   -0.50    1.30
  -1  -5   2    0.40    1.10
  -1  -5   2   -1.60    1.10
  -1  -5   2    0.20    1.60
  -1  -5   2    1.20    1.30
   1  -5  -2    2.10    1.20
   1  -5  -2    0.10    1.40
   1  -5  -2    1.60    1.40
   1  -5  -2    0.80    1.60
   1  -5  -2    0.70    1.00
   1  -5  -2    1.50    0.90
  -1  -5   2    0.60    1.50
  -1  -5   2    0.10    1.50
  -1   5   2    1.80    1.00
  -1   5   2    3.20    1.20
   1   5  -2    3.40    1.30
  -1   5   2   -0.60    1.20
  -1   5   2    1.50    1.30
  -1   5   2    1.40    1.60
  -1   5   2    0.20    1.40
   1   5  -2    0.90    1.00
   1   5  -2    0.70    1.50
  -1   5   2    0.50    1.50
  -1   5   2    2.60    1.50
   1   5  -2    0.40    1.10
  -1   5   2    2.50    1.40
   1   5  -2    0.90    1.20
   0  -5  -2    1.30    1.30
   0  -5  -2    2.00    1.50
   0  -5  -2    0.80    1.50
   0  -5   2    2.80    0.80
   0  -5  -2    1.80    1.70
   0  -5  -2    2.70    1.20
   0  -5   2    0.40    1.60
   0  -5  -2    2.20    1.50
   0  -5   2    1.70    1.50
   0  -5  -2   -0.10    1.20
   0  -5   2    1.20    1.50
   0  -5   2    1.20    0.70
   0  -5   2    1.40    1.20
   0  -5  -2    2.40    1.70
   0  -5   2    1.00    1.30
   0  -5   2    2.20    1.00
   0   5   2    0.80    1.60
   0   5  -2    1.10    1.60
   0   5   2    1.40    1.10
   0   5  -2    0.90    0.80
   0   5   2    2.40    1.30
   0   5  -2    2.20    1.00
   0   5  -2    0.80    0.90
   0   5   2    2.00    1.50
   0   5  -2    2.20    1.40
   0   5  -2    2.30    1.70
   0   5   2    3.90    1.50
   0   5  -2    1.40    0.80
   0   5   2    0.90    1.50
   0   5   2   -0.80    1.50
   0   5  -2    1.80    1.10
   0   5  -2   -0.40    1.30
   0   5  -2    2.40    1.50
   1  -5   2   32.70    2.90
  -1  -5  -2   31.90    3.10
  -1  -5  -2   33.40    3.00
   1  -5   2   26.90    2.30
  -1  -5  -2   36.50    3.10
   1  -5   2   31.10    2.60
  -1  -5  -2   30.30    2.80
   1  -5   2   33.00    3.10
  -1  -5  -2   32.20    2.70
   1  -5   2   24.80    2.20
   1  -5   2   32.90    3.20
   1  -5   2   31.60    2.50
   1   5   2   25.30    2.70
  -1   5  -2   31.10    2.50
  -1   5  -2   28.30    2.70
   1   5   2   34.20    2.80
   1   5   2   37.00    3.10
   1   5   2   31.30    2.90
   1   5   2   34.40    2.90
  -1   5  -2   26.80    2.30
  -1   5  -2   23.90    2.70
  -1   5  -2   29.60    2.50
   1   5   2   33.70    2.90
  -1   5  -2   28.00    3.00
  -1   5  -2   25.30    2.40
   1   5   2   28.40    2.60
  -1   5  -2   29.00    2.50
   1   5   2   23.90    2.80
  -2  -5  -2   55.49    3.90
   2  -5   2   53.29    4.00
   2  -5   2   63.99    4.20
   2  -5   2   48.40    4.30
   2  -5   2   46.40    3.60
   2  -5   2   58.59    3.80
  -2  -5  -2   64.59    4.40
  -2  -5  -2   64.99    4.20
  -2  -5  -2   62.09    4.60
  -2  -5  -2   66.39    4.20
   2  -5   2   65.29    4.40
  -2  -5  -2   57.59    4.10
  -2   5  -2   57.79    4.50
   2   5   2   58.69    4.20
  -2   5  -2   55.29    4.10
  -2   5  -2   57.89    4.70
   2   5   2   57.79    4.20
  -2   5  -2   59.49    4.10
   2   5   2   58.89    4.50
  -2   5  -2   54.19    3.90
   2   5   2   58.09    4.10
  -2   5  -2   54.89    4.30
  -2   5  -2   52.79    3.40
   2   5   2   64.69    4.30
   3  -5   2   27.10    3.50
   3  -5   2   28.10    3.30
   3  -5   2   28.40    2.80
  -3  -5  -2   31.50    3.30
   3  -5   2   26.30    2.40
  -3  -5  -2   34.60    3.50
  -3  -5  -2   29.30    3.70
  -3  -5  -2   27.40    3.30
   3  -5   2   28.70    2.90
   3  -5   2   21.20    2.90
  -3  -5  -2   27.20    3.00
  -3   5  -2   31.60    3.60
   3   5   2   31.00    3.40
  -3   5  -2   27.10    3.30
  -3   5  -2   23.50    2.40
   3   5   2   30.90    3.60
   3   5   2   28.70    2.80
   3   5   2   31.40    3.30
  -3   5  -2   31.90    4.10
  -3   5  -2   31.60    3.50
  -3   5  -2   28.10    3.30
   3   5   2   27.50    3.20
  -4  -5  -2   31.40    4.50
  -4  -5  -2   36.70    3.80
   4  -5   2   34.40    4.20
   4  -5   2   35.10    3.40
   4  -5   2   34.80    3.40
   4  -5   2   26.50    3.90
  -4  -5  -2   39.00    4.20
  -4  -5  -2   39.50    4.30
  -4  -5  -2   33.60    3.50
   4  -5   2   29.40    3.90
  -4   5  -2   41.90    4.30
  -4   5  -2   31.80    3.80
   4   5   2   39.20    4.10
  -4   5  -2   34.60    4.20
   4   5   2   36.10    3.90
   4   5   2   32.60    4.10
   4   5   2   34.70    4.10
  -4   5  -2   37.10    4.20
  -4   5  -2   32.70    4.80
  -5  -5  -2    5.20    2.20
  -5  -5  -2    2.50    3.10
  -5  -5  -2   -0.80    2.30
   5  -5   2    1.90    2.70
   5  -5   2    2.80    1.90
  -5  -5  -2    0.60    2.20
   5  -5   2    3.40    2.90
   5  -5   2    3.70    2.20
   5  -5   2    2.60    2.70
  -5  -5  -2    7.20    3.10
   5   5   2    1.10    2.40
  -5   5  -2    3.90    2.90
   5   5   2    2.50    2.60
  -5   5  -2    2.60    2.30
  -5   5  -2    0.40    2.40
   5   5   2    3.40    2.70
  -5   5  -2   -0.20    2.60
  -5   5  -2    0.10    3.20
  -5   5  -2   -1.80    2.50
   5   5   2    2.30    2.30
   5   5   2    2.40    2.70
   6  -5   2    2.60    3.20
  -6  -5  -2    3.20    2.70
  -6  -5  -2   -2.10    2.70
   6  -5   2    3.10    3.10
   6  -5   2    4.90    3.40
  -6  -5  -2    3.50    3.20
  -6  -5  -2    3.10    3.60
  -6  -5  -2    5.30    2.50
  -6   5  -2   -0.70    3.00
  -6   5  -2    5.30    3.40
   6   5   2    2.50    3.10
  -6   5  -2    2.00    2.60
  -6   5  -2    1.60    3.30
   6   5   2    1.60    3.00
   6   5   2    1.80    2.90
  -6   5  -2    5.20    4.10
   6   5   2    1.50    2.60
   6   5   2    6.60    3.00
   7  -5   2    2.20    3.90
  -7  -5  -2    2.10    4.10
  -7   5  -2   -9.60    3.10
  -7   5  -2   -2.80    3.10
   7   5   2    0.70    3.20
  -7  -6   2   99.19    9.20
   7  -6  -2   80.79    8.70
   7  -6  -2   97.49   13.30
   7  -6  -2  102.69    9.00
  -7  -6   2   99.09    7.80
   7   6  -2  100.29    7.90
  -7   6   2   98.99    9.10
  -7   6   2   96.89    8.70
  -7   6   2   92.99    8.80
   7   6  -2   98.29    9.30
   7   6  -2   81.99    7.20
   7   6  -2   99.39   12.50
  -6  -6   2   34.00    5.20
   6  -6  -2   32.00    5.10
  -6  -6   2   33.50    4.60
   6  -6  -2   38.00    5.50
   6  -6  -2   46.00    5.70
  -6  -6   2   21.40    4.50
   6  -6  -2   25.00    4.60
   6  -6  -2   41.40    5.50
  -6   6   2   41.80    5.40
   6   6  -2   27.90    3.90
   6   6  -2   40.40    5.60
  -6   6   2   24.30    5.40
  -6   6   2   36.20    5.30
   6   6  -2   30.00    4.30
   6   6  -2   37.60    5.40
  -6   6   2   25.50    3.90
  -6   6   2   28.60    5.00
   6   6  -2   35.70    4.40
   5  -6  -2   92.89    7.40
   5  -6  -2  101.19    6.70
  -5  -6   2  105.69    7.20
   5  -6  -2  113.99    8.10
   5  -6  -2  102.59    7.50
  -5  -6   2  105.29    7.50
  -5  -6   2  115.99    7.80
   5  -6  -2   98.19    7.60
   5   6  -2   88.49    6.80
  -5   6   2  124.39    7.90
  -5   6   2  104.89    8.30
  -5   6   2   93.49    6.50
   5   6  -2  106.19    7.70
   5   6  -2  110.89    7.90
  -5   6   2  110.99    7.80
   5   6  -2  109.09    6.70
  -5   6   2   85.39    8.00
   5   6  -2  106.89    6.60
  -4  -6   2  497.85   23.40
   4  -6  -2  499.05   23.60
  -4  -6   2  498.55   23.20
   4  -6  -2  488.95   23.20
   4  -6  -2  507.65   23.40
  -4  -6   2  486.45   22.40
   4  -6  -2  515.15   22.80
   4  -6  -2  476.05   23.40
  -4  -6   2  480.65   23.10
   4   6  -2  504.35   22.50
  -4   6   2  499.25   23.20
  -4   6   2  500.85   23.40
  -4   6   2  479.85   23.20
   4   6  -2  493.75   22.50
  -4   6   2  507.25   23.50
   4   6  -2  490.05   23.50
   4   6  -2  485.85   23.60
  -4   6   2  474.65   22.50
   4   6  -2  463.05   23.10
  -3  -6   2  301.77   14.20
   3  -6  -2  288.17   13.50
   3  -6  -2  299.57   13.70
  -3  -6   2  296.17   13.30
  -3  -6   2  305.97   14.20
   3  -6  -2  254.37   13.20
   3  -6  -2  304.07   14.30
  -3  -6   2  304.27   14.30
   3  -6  -2  292.17   14.20
   3  -6  -2  287.67   14.10
  -3   6   2  287.57   14.40
  -3   6   2  297.87   14.30
   3   6  -2  291.37   14.40
  -3   6   2  291.27   14.20
   3   6  -2  285.37   14.10
   3   6  -2  290.27   13.30
  -3   6   2  282.27   14.30
  -3   6   2  272.57   13.40
   3   6  -2  300.47   14.50
   3   6  -2  289.27   13.30
  -3   6   2  263.77   13.20
   3   6  -2  273.07   13.30
   3   6  -2  300.57   13.30
  -2  -6   2   63.59    4.30
   2  -6  -2   69.39    4.50
  -2  -6   2   57.09    4.60
   2  -6  -2   59.59    4.90
   2  -6  -2   62.39    4.40
  -2  -6   2   66.79    4.60
   2  -6  -2   62.69    4.10
  -2  -6   2   70.59    4.40
   2  -6  -2   65.39    3.80
   2  -6  -2   63.19    4.40
   2  -6  -2   64.49    3.50
   2   6  -2   63.99    3.30
   2   6  -2   59.69    4.10
   2   6  -2   62.99    4.50
   2   6  -2   62.29    4.50
  -2   6   2   61.39    5.10
  -2   6   2   57.89    4.80
  -2   6   2   63.49    3.90
  -2   6   2   62.09    4.50
  -2   6   2   67.59    4.50
   2   6  -2   60.69    3.30
  -1  -6   2 2596.24  110.49
   1  -6  -2 2615.94  110.09
   1  -6  -2 2632.24  110.49
  -1  -6   2 2581.64  110.49
  -1  -6   2 2357.06  110.79
   1  -6  -2 2525.75  110.69
   1  -6  -2 2490.05  110.09
   1  -6  -2 2567.74  110.99
  -1  -6   2 2643.64  110.79
   1  -6  -2 2610.44  110.59
   1  -6  -2 2481.95  110.69
  -1  -6   2 2464.65  110.59
  -1  -6   2 2642.04  110.59
  -1   6   2 2519.15  110.49
  -1   6   2 2447.06  110.69
  -1   6   2 2459.05  110.29
  -1   6   2 2513.15  110.59
  -1   6   2 2500.15  110.59
   1   6  -2 2417.66  110.79
   1   6  -2 2512.65  110.69
   1   6  -2 2613.14  110.69
   1   6  -2 2614.84  110.29
  -1   6   2 2558.64  110.99
   1   6  -2 2450.85  110.89
  -1   6   2 2699.53  110.19
  -1   6   2 2535.75  110.49
   0  -6  -2  715.73   31.30
   0  -6  -2  713.43   31.20
   0  -6   2  665.23   30.60
   0  -6   2  723.53   31.20
   0  -6   2  657.93   30.70
   0  -6  -2  711.33   30.70
   0  -6   2  644.04   31.10
   0  -6  -2  686.73   30.60
   0  -6   2  699.73   31.50
   0  -6  -2  705.73   31.50
   0  -6   2  658.83   30.40
   0  -6   2  694.73   30.40
   0  -6  -2  693.93   31.40
   0  -6   2  720.93   31.00
   0  -6  -2  744.13   31.20
   0   6  -2  705.13   31.30
   0   6   2  727.23   31.50
   0   6   2  700.13   31.10
   0   6   2  730.33   30.80
   0   6  -2  712.23   30.70
   0   6  -2  657.63   30.50
   0   6  -2  664.73   30.40
   0   6  -2  659.83   30.30
   0   6  -2  681.93   30.40
   0   6   2  769.62   31.70
   0   6   2  706.83   31.10
   0   6  -2  673.43   30.60
   0   6  -2  711.83   30.90
   0   6  -2  691.03   30.40
   0   6  -2  669.53   31.10
   0   6   2  671.63   30.60
   1  -6   2   92.99    6.10
  -1  -6  -2  110.99    6.30
   1  -6   2  105.19    5.50
  -1  -6  -2  115.29    6.30
  -1  -6  -2  114.19    6.50
  -1  -6  -2  117.19    6.40
   1  -6   2  110.79    6.10
   1  -6   2  105.49    6.20
   1  -6   2  108.19    5.70
   1  -6   2  105.49    5.50
   1  -6   2  100.29    6.40
  -1  -6  -2  117.29    5.80
  -1   6  -2  111.29    6.50
   1   6   2  110.79    6.10
   1   6   2  135.29    6.10
   1   6   2  137.19    7.00
  -1   6  -2  107.89    6.20
   1   6   2  116.09    6.60
  -1   6  -2  119.69    5.70
  -1   6  -2  113.49    6.70
   1   6   2  126.09    6.70
  -1   6  -2   89.29    6.00
  -1   6  -2  101.59    5.70
   1   6   2  116.49    6.50
   1   6   2  126.29    6.50
   1   6   2  108.09    6.10
  -1   6  -2  100.59    5.70
  -1   6  -2   97.19    6.10
  -1   6  -2  110.79    5.80
  -2  -6  -2 1133.19   46.40
   2  -6   2 1042.80   46.00
  -2  -6  -2 1070.09   45.90
  -2  -6  -2 1105.79   46.00
  -2  -6  -2 1039.30   45.90
   2  -6   2  976.00   46.10
   2  -6   2  942.21   45.50
  -2  -6  -2 1142.29   46.10
   2  -6   2 1027.90   45.70
  -2  -6  -2 1066.99   46.00
   2  -6   2 1004.20   45.60
   2  -6   2 1041.40   45.80
   2   6   2 1052.99   45.90
  -2   6  -2  944.71   45.60
   2   6   2 1052.69   46.30
  -2   6  -2 1007.50   45.80
   2   6   2 1071.69   46.00
   2   6   2 1110.49   46.10
  -2   6  -2  892.81   45.20
  -2   6  -2 1031.10   46.30
   2   6   2 1085.39   46.10
  -2   6  -2  993.10   46.30
  -2   6  -2  987.30   45.70
  -2   6  -2 1028.30   46.00
   3  -6   2  537.15   24.60
   3  -6   2  479.65   24.70
  -3  -6  -2  561.34   25.00
  -3  -6  -2  547.85   24.40
   3  -6   2  532.75   24.10
  -3  -6  -2  534.75   24.80
   3  -6   2  520.35   24.40
   3  -6   2  529.75   24.20
   3  -6   2  523.95   24.70
  -3  -6  -2  552.04   24.60
  -3  -6  -2  555.84   24.50
   3   6   2  554.94   24.40
  -3   6  -2  487.45   24.80
  -3   6  -2  530.15   24.80
  -3   6  -2  498.25   24.60
   3   6   2  552.04   24.80
   3   6   2  545.15   25.00
  -3   6  -2  509.95   25.30
   3   6   2  548.55   24.50
   3   6   2  536.55   24.60
  -3   6  -2  522.95   24.60
  -3   6  -2  525.95   24.70
   4  -6   2    5.70    2.00
   4  -6   2    5.60    2.00
   4  -6   2    6.90    2.50
  -4  -6  -2    4.20    2.70
  -4  -6  -2    4.30    2.00
   4  -6   2    8.90    2.80
   4  -6   2    6.40    2.70
  -4  -6  -2    2.50    2.10
  -4  -6  -2    9.40    2.30
  -4  -6  -2    5.90    2.70
   4  -6   2    4.30    2.60
   4   6   2    1.20    2.10
   4   6   2    5.50    2.70
   4   6   2    7.80    2.50
  -4   6  -2    1.30    2.20
  -4   6  -2    3.60    2.60
  -4   6  -2    4.70    2.50
   4   6   2    5.00    2.30
  -5  -6  -2  303.77   14.90
   5  -6   2  268.17   15.70
   5  -6   2  288.27   14.20
   5  -6   2  310.97   15.40
  -5  -6  -2  294.37   15.70
  -5  -6  -2  300.77   16.20
  -5  -6  -2  280.67   14.70
  -5  -6  -2  294.57   15.20
   5  -6   2  297.37   15.60
   5   6   2  301.17   15.80
   5   6   2  294.57   15.10
   5   6   2  298.37   15.30
  -5   6  -2  270.27   15.50
  -5   6  -2  273.77   14.80
  -5   6  -2  293.57   15.50
  -5   6  -2  295.27   15.30
  -5   6  -2  310.57   15.80
  -5   6  -2  312.47   17.00
   5   6   2  290.87   15.30
   5   6   2  285.97   15.60
  -6  -6  -2  141.29    9.70
   6  -6   2  138.09    9.50
  -6  -6  -2  139.99    8.50
   6  -6   2  121.29    9.70
  -6  -6  -2  144.89   10.50
   6  -6   2  141.49    9.70
  -6  -6  -2  133.49    8.70
  -6   6  -2  129.99   10.90
  -6   6  -2  123.69    9.60
  -6   6  -2  116.19    8.50
  -6   6  -2  133.59    9.80
   6   6   2  123.69    9.40
   6   6   2  143.99    9.20
   6   6   2  144.39    9.20
   6   6   2  132.49    9.00
  -6   6  -2  135.49   10.10
   6   6   2  131.09    9.60
  -7  -6  -2    7.30    5.50
   7   6   2   -1.10    3.20
  -7   6  -2    0.40    4.00
  -7  -7   2   15.50    4.20
   7  -7  -2    8.10    3.90
  -7  -7   2    7.60    3.40
  -7   7   2    1.90    3.60
  -7   7   2    5.20    3.70
  -7   7   2   13.60    4.50
   7   7  -2    5.50    2.90
   7   7  -2    5.60    3.00
   6  -7  -2  299.17   16.40
   6  -7  -2  298.87   16.30
   6  -7  -2  310.17   16.80
  -6  -7   2  310.07   16.30
  -6  -7   2  303.17   16.70
  -6  -7   2  295.87   16.10
   6  -7  -2  297.87   16.60
   6   7  -2  310.27   16.90
   6   7  -2  272.77   15.70
  -6   7   2  299.97   16.60
  -6   7   2  291.77   17.60
  -6   7   2  323.17   16.90
   6   7  -2  306.27   16.70
  -6   7   2  327.47   16.70
   6   7  -2  292.77   15.40
   6   7  -2  308.07   15.40
   5  -7  -2  267.07   13.10
   5  -7  -2  248.68   13.80
  -5  -7   2  267.07   14.20
   5  -7  -2  246.18   13.80
   5  -7  -2  275.57   14.20
   5  -7  -2  280.27   14.40
  -5  -7   2  260.77   13.80
   5  -7  -2  233.48   13.10
  -5  -7   2  262.47   13.80
  -5   7   2  276.57   14.30
  -5   7   2  253.57   12.90
   5   7  -2  266.77   13.00
   5   7  -2  249.38   14.10
  -5   7   2  233.18   13.50
   5   7  -2  266.97   13.00
  -5   7   2  273.57   14.60
   5   7  -2  271.47   14.50
   5   7  -2  221.18   13.40
  -5   7   2  278.47   14.20
   4  -7  -2   22.90    3.70
   4  -7  -2   24.30    3.50
  -4  -7   2   26.60    3.50
   4  -7  -2   33.90    4.10
   4  -7  -2   24.00    3.00
  -4  -7   2   34.70    4.00
   4  -7  -2   27.70    3.20
   4  -7  -2   28.10    4.10
  -4  -7   2   32.20    3.70
   4   7  -2   21.50    3.90
  -4   7   2   28.20    2.80
  -4   7   2   31.20    4.40
  -4   7   2   23.80    3.70
   4   7  -2   33.60    3.20
   4   7  -2   28.40    2.90
   4   7  -2   25.40    3.60
   4   7  -2   26.20    3.70
  -4   7   2   25.20    3.80
  -4   7   2   21.60    3.50
   3  -7  -2 1096.69   49.00
   3  -7  -2 1135.19   48.60
   3  -7  -2 1126.49   49.20
   3  -7  -2 1147.59   49.50
   3  -7  -2 1112.09   48.50
  -3  -7   2 1145.69   49.00
   3  -7  -2 1116.59   49.10
   3  -7  -2  996.10   48.00
  -3  -7   2 1107.89   49.10
  -3  -7   2 1120.49   48.20
  -3  -7   2 1079.39   49.50
   3   7  -2 1042.50   49.20
  -3   7   2 1086.49   49.10
  -3   7   2 1128.19   49.20
  -3   7   2 1006.80   48.00
   3   7  -2 1122.19   48.40
   3   7  -2 1097.29   49.40
   3   7  -2 1060.39   49.10
  -3   7   2 1045.10   49.20
   3   7  -2 1164.58   48.20
  -3   7   2 1113.59   49.10
   3   7  -2 1125.59   48.20
  -3   7   2 1053.59   48.10
   3   7  -2 1138.69   48.20
   2  -7  -2 1645.34   70.69
  -2  -7   2 1677.73   70.69
  -2  -7   2 1653.83   70.59
   2  -7  -2 1618.34   70.69
  -2  -7   2 1520.85   71.09
   2  -7  -2 1572.54   70.69
   2  -7  -2 1499.85   69.69
   2  -7  -2 1657.33   70.19
   2  -7  -2 1601.74   71.09
  -2  -7   2 1675.03   70.69
   2  -7  -2 1617.94   70.39
  -2   7   2 1617.84   70.69
  -2   7   2 1615.94   70.79
   2   7  -2 1631.24   69.99
   2   7  -2 1640.94   70.49
  -2   7   2 1564.64   70.59
   2   7  -2 1565.54   70.89
  -2   7   2 1611.94   71.09
   2   7  -2 1570.04   69.69
   2   7  -2 1630.24   70.89
   2   7  -2 1540.85   69.79
  -2   7   2 1632.64   70.29
   1  -7  -2  409.46   19.20
   1  -7  -2  415.96   18.60
  -1  -7   2  363.36   17.80
   1  -7  -2  407.06   18.90
  -1  -7   2  392.86   19.10
   1  -7  -2  393.06   18.20
   1  -7  -2  406.16   18.00
  -1  -7   2  392.26   17.70
   1  -7  -2  409.56   18.80
  -1  -7   2  415.56   18.50
  -1  -7   2  406.76   18.70
  -1  -7   2  404.26   18.90
  -1  -7   2  405.46   18.60
  -1  -7   2  415.56   18.50
   1   7  -2  412.56   18.30
   1   7  -2  400.56   18.80
  -1   7   2  396.96   18.70
  -1   7   2  414.96   18.60
   1   7  -2  413.56   18.80
  -1   7   2  424.96   18.40
  -1   7   2  400.16   18.60
  -1   7   2  404.46   19.20
   1   7  -2  383.36   18.70
   0  -7  -2 2623.74  111.49
   0  -7  -2 2566.34  111.29
   0  -7   2 2473.75  110.49
   0  -7   2 2242.78  111.09
   0  -7  -2 2683.93  111.59
   0  -7   2 2627.34  111.79
   0  -7  -2 2507.65  110.69
   0  -7   2 2608.34  111.19
   0  -7  -2 2670.53  111.29
   0  -7  -2 2508.75  110.59
   0  -7   2 2610.94  111.29
   0  -7   2 2519.65  110.79
   0  -7   2 2521.55  110.79
   0  -7  -2 2629.64  111.69
   0   7  -2 2417.46  110.49
   0   7  -2 2503.45  110.49
   0   7   2 2624.24  111.29
   0   7   2 2539.55  111.19
   0   7  -2 2491.85  110.59
   0   7   2 2625.44  111.59
   0   7   2 2470.05  110.69
   0   7  -2 2506.95  111.19
   0   7  -2 2549.04  110.79
   0   7  -2 2521.75  110.69
   0   7  -2 2603.74  111.49
   0   7  -2 2593.24  110.99
   0   7   2 2674.03  110.99
   1  -7   2 1566.14   80.79
   1  -7   2 1681.93   81.09
  -1  -7  -2 1883.21   80.99
   1  -7   2 1754.02   80.19
   1  -7   2 1862.41   80.79
  -1  -7  -2 1974.20   80.99
  -1  -7  -2 1993.30   80.49
  -1  -7  -2 1974.00   81.09
   1  -7   2 1844.72   80.89
  -1  -7  -2 2034.70   81.39
   1  -7   2 1713.03   80.19
   1  -7   2 1780.02   80.39
  -1   7  -2 1851.71   81.29
   1   7   2 2127.99   80.69
  -1   7  -2 1848.22   80.79
   1   7   2 1944.31   80.99
  -1   7  -2 1639.14   80.69
  -1   7  -2 1745.03   80.39
  -1   7  -2 1704.23   80.79
   1   7   2 1920.61   81.19
   1   7   2 1855.01   80.79
  -1   7  -2 1817.52   80.49
  -1   7  -2 1852.01   80.29
   1   7   2 1951.90   81.19
  -1   7  -2 1771.72   80.39
   1   7   2 1941.11   81.19
  -2  -7  -2  333.87   15.50
  -2  -7  -2  357.46   15.80
   2  -7   2  330.17   16.00
  -2  -7  -2  362.96   15.70
  -2  -7  -2  337.57   16.00
   2  -7   2  320.57   15.80
   2  -7   2  324.27   15.50
   2  -7   2  305.37   15.30
  -2  -7  -2  353.96   15.80
   2  -7   2  300.77   16.10
   2  -7   2  340.87   15.30
   2  -7   2  334.97   15.50
  -2  -7  -2  339.97   15.70
  -2   7  -2  287.07   15.00
   2   7   2  325.07   15.60
  -2   7  -2  288.37   15.40
  -2   7  -2  323.27   16.10
   2   7   2  351.66   15.90
   2   7   2  336.37   15.80
  -2   7  -2  314.07   15.50
  -2   7  -2  314.87   16.10
   2   7   2  359.06   15.90
  -2   7  -2  337.77   15.80
  -2   7  -2  322.07   15.50
   3  -7   2  546.55   26.00
  -3  -7  -2  573.64   26.20
   3  -7   2  563.84   25.50
  -3  -7  -2  543.45   25.80
   3  -7   2  545.15   25.70
  -3  -7  -2  573.74   25.90
  -3  -7  -2  557.14   25.60
   3  -7   2  590.44   26.00
  -3  -7  -2  600.14   26.00
   3  -7   2  507.05   26.10
   3  -7   2  525.15   25.50
  -3  -7  -2  621.94   26.30
   3   7   2  567.14   25.80
  -3   7  -2  515.95   26.40
   3   7   2  566.54   26.10
  -3   7  -2  527.85   26.00
   3   7   2  586.44   25.80
  -3   7  -2  534.05   25.90
  -3   7  -2  560.74   26.30
   3   7   2  577.34   25.90
   3   7   2  567.44   26.40
   4  -7   2  814.52   38.40
  -4  -7  -2  846.92   37.60
  -4  -7  -2  892.71   38.70
  -4  -7  -2  838.42   38.20
   4  -7   2  821.12   38.70
   4  -7   2  826.32   38.30
  -4  -7  -2  861.91   38.10
  -4  -7  -2  853.61   37.90
   4  -7   2  837.62   38.10
   4  -7   2  865.91   37.70
   4  -7   2  756.52   37.60
  -4  -7  -2  882.51   38.90
   4   7   2  856.71   38.20
   4   7   2  801.72   38.00
   4   7   2  846.22   37.60
  -4   7  -2  858.61   38.60
  -4   7  -2  789.32   39.00
   4   7   2  880.71   38.60
  -4   7  -2  835.52   38.40
  -4   7  -2  811.12   38.40
   4   7   2  848.32   38.80
  -4   7  -2  826.62   38.40
   5  -7   2  247.28   12.90
  -5  -7  -2  229.98   12.60
  -5  -7  -2  251.37   13.40
   5  -7   2  243.38   13.10
   5  -7   2  229.28   13.00
  -5  -7  -2  230.08   14.00
  -5  -7  -2  264.37   13.90
   5  -7   2  230.38   11.90
   5  -7   2  218.98   13.30
  -5  -7  -2  233.08   12.30
  -5  -7  -2  225.68   12.40
   5   7   2  218.48   12.80
  -5   7  -2  248.08   13.40
  -5   7  -2  226.98   13.10
  -5   7  -2  234.88   14.30
  -5   7  -2  216.78   12.20
   5   7   2  233.98   13.30
   5   7   2  227.38   13.10
  -5   7  -2  209.08   12.70
   5   7   2  237.98   12.70
  -5   7  -2  236.78   13.30
   5   7   2  233.18   12.80
   6  -7   2   91.09    8.60
  -6  -7  -2  115.89    8.70
  -6  -7  -2  119.19    7.70
  -6  -7  -2  111.49    9.20
  -6  -7  -2  106.89    7.60
   6  -7   2   96.99    8.50
   6  -7   2   95.49    8.30
   6  -7   2  111.39    8.50
  -6   7  -2  103.49    8.70
  -6   7  -2  113.89    9.90
   6   7   2  116.39    8.70
   6   7   2  112.09    8.20
  -6   7  -2   91.69    8.50
  -6   7  -2  108.29    9.00
   6   7   2   94.49    8.50
   6   7   2   97.59    8.00
   6   7   2  120.09    8.10
  -7   7  -2  146.49   12.00
   7   7   2  163.08   11.50
   7   7   2  147.19   12.80
   7  -8  -2   33.40    5.90
  -7  -8   2   33.10    5.70
  -7   8   2   38.80    6.30
   7   8  -2   30.60    4.30
  -6  -8   2   25.60    4.50
   6  -8  -2   19.90    3.80
   6  -8  -2   17.00    4.20
   6  -8  -2   20.00    4.30
  -6  -8   2   13.50    3.70
   6  -8  -2   23.80    4.80
  -6  -8   2   13.40    4.00
   6  -8  -2   16.90    4.70
   6   8  -2   17.30    3.80
   6   8  -2   17.30    3.50
   6   8  -2   15.60    3.10
   6   8  -2   24.30    4.90
  -6   8   2   19.60    4.60
  -6   8   2    9.60    4.50
  -6   8   2   20.70    4.60
   6   8  -2   13.70    4.00
   5  -8  -2   34.00    4.90
   5  -8  -2   39.10    5.00
   5  -8  -2   52.09    5.60
  -5  -8   2   42.20    5.20
   5  -8  -2   49.80    5.40
  -5  -8   2   47.00    5.00
  -5  -8   2   37.50    4.60
   5  -8  -2   41.30    4.40
   5  -8  -2   40.50    5.50
  -5   8   2   50.69    5.80
   5   8  -2   47.10    4.20
  -5   8   2   37.20    4.70
   5   8  -2   45.80    5.50
   5   8  -2   49.10    4.40
   5   8  -2   38.20    4.90
   5   8  -2   33.70    4.60
  -5   8   2   39.60    5.70
  -5   8   2   40.90    5.10
   4  -8  -2  226.18   11.80
  -4  -8   2  239.58   11.80
   4  -8  -2  219.78   12.40
   4  -8  -2  222.68   12.00
  -4  -8   2  212.58   11.70
   4  -8  -2  204.88   11.80
   4  -8  -2  229.88   11.20
  -4  -8   2  214.08   11.90
   4  -8  -2  216.68   11.00
  -4   8   2  209.58   12.20
  -4   8   2  207.78   12.00
   4   8  -2  231.68   10.80
   4   8  -2  206.88   10.60
   4   8  -2  236.38   12.50
  -4   8   2  207.78   10.70
   4   8  -2  234.48   11.00
   4   8  -2  222.78   12.20
  -4   8   2  228.88   12.50
   4   8  -2  191.48   11.70
  -4   8   2  226.78   12.10
  -3  -8   2  117.19    5.90
   3  -8  -2  119.29    6.50
  -3  -8   2  114.39    7.00
   3  -8  -2  115.99    6.50
   3  -8  -2  107.59    7.00
   3  -8  -2  112.89    7.80
   3  -8  -2  113.39    7.10
  -3  -8   2  125.09    7.10
   3  -8  -2  117.49    7.30
  -3  -8   2  100.59    7.40
  -3   8   2  122.29    7.40
  -3   8   2  115.79    7.60
   3   8  -2  125.59    7.50
   3   8  -2  116.29    6.00
   3   8  -2  117.09    6.10
   3   8  -2  109.89    6.10
  -3   8   2  118.99    6.60
  -3   8   2  108.19    5.80
  -3   8   2  101.39    7.50
   3   8  -2  115.39    6.40
  -3   8   2  120.99    7.40
   3   8  -2  119.09    7.50
   2  -8  -2   76.29    5.00
  -2  -8   2   79.99    5.90
   2  -8  -2   84.99    6.10
  -2  -8   2   88.29    5.40
  -2  -8   2   84.39    5.40
   2  -8  -2   77.99    4.80
   2  -8  -2   81.29    5.40
   2  -8  -2   89.69    5.60
  -2  -8   2   85.19    5.20
   2   8  -2   80.69    5.20
  -2   8   2   86.89    5.20
   2   8  -2   68.79    4.10
  -2   8   2   85.29    6.30
  -2   8   2   81.89    5.80
  -2   8   2   86.39    5.70
   2   8  -2   79.39    5.70
   2   8  -2   79.69    4.20
   2   8  -2   82.99    4.60
   2   8  -2   78.69    5.80
  -2   8   2   79.99    5.50
   1  -8  -2  444.76   21.10
   1  -8  -2  454.35   21.80
   1  -8  -2  461.25   20.70
   1  -8  -2  455.95   20.90
   1  -8  -2  475.05   22.20
   1  -8  -2  477.15   22.10
   1  -8  -2  489.75   21.80
  -1  -8   2  485.85   21.90
   1  -8  -2  453.15   21.40
  -1  -8   2  483.75   22.30
  -1  -8   2  478.45   21.40
  -1  -8   2  477.55   21.30
   1   8  -2  481.25   21.80
  -1   8   2  493.95   22.40
   1   8  -2  478.75   21.90
  -1   8   2  483.75   21.60
  -1   8   2  480.05   21.60
  -1   8   2  469.95   21.70
  -1   8   2  461.55   21.40
   1   8  -2  446.96   21.60
   1   8  -2  441.66   20.70
   1   8  -2  468.85   20.60
  -1   8   2  458.25   21.70
   1   8  -2  462.65   21.10
   0  -8  -2  341.37   15.90
   0  -8   2  334.67   15.40
   0  -8   2  325.67   15.50
   0  -8   2  330.07   14.90
   0  -8   2  300.27   14.60
   0  -8   2  320.97   16.00
   0  -8  -2  341.77   15.40
   0  -8  -2  318.87   14.40
   0  -8  -2  337.67   15.00
   0  -8  -2  327.17   15.60
   0  -8  -2  343.67   16.00
   0  -8  -2  324.47   15.50
   0  -8   2  312.27   14.80
   0   8  -2  308.67   14.60
   0   8  -2  314.97   14.60
   0   8  -2  314.57   14.70
   0   8  -2  307.07   15.10
   0   8   2  332.37   16.00
   0   8  -2  309.17   14.70
   0   8   2  332.67   15.40
   0   8  -2  315.87   14.70
   0   8   2  318.17   14.90
   0   8   2  336.07   15.60
   0   8  -2  336.97   15.80
   0   8  -2  328.57   15.20
   1  -8   2    6.50    2.40
   1  -8   2    2.90    1.50
  -1  -8  -2    3.70    2.00
   1  -8   2    5.20    1.30
  -1  -8  -2    5.70    1.80
  -1  -8  -2    6.10    2.50
   1  -8   2    2.50    1.70
   1  -8   2    2.60    1.40
  -1  -8  -2    2.30    1.70
   1  -8   2    3.80    1.10
  -1  -8  -2    1.40    1.90
  -1  -8  -2    0.80    1.20
   1  -8   2    1.50    1.60
   1  -8   2    3.80    1.20
  -1   8  -2    4.30    1.80
   1   8   2    4.50    2.00
   1   8   2    2.70    2.00
  -1   8  -2    4.20    2.00
  -1   8  -2    3.00    1.60
  -1   8  -2    4.10    1.20
  -1   8  -2    4.80    1.40
  -1   8  -2    4.20    1.60
  -1   8  -2    3.20    1.50
   1   8   2    4.60    1.40
   1   8   2    3.00    1.90
   1   8   2    3.50    2.00
   1   8   2    0.70    1.60
  -2  -8  -2  614.34   26.70
  -2  -8  -2  596.94   26.50
  -2  -8  -2  574.64   26.20
   2  -8   2  541.55   26.90
   2  -8   2  508.25   26.00
   2  -8   2  597.24   26.30
   2  -8   2  574.14   26.50
   2  -8   2  549.45   26.10
  -2  -8  -2  612.04   26.70
  -2  -8  -2  602.34   26.10
  -2  -8  -2  587.24   26.40
   2  -8   2  561.74   25.90
  -2   8  -2  591.74   27.40
   2   8   2  573.54   26.50
   2   8   2  608.34   26.60
  -2   8  -2  577.64   26.20
   2   8   2  578.54   26.30
   2   8   2  565.84   26.80
  -2   8  -2  558.44   26.40
  -2   8  -2  550.94   26.80
   2   8   2  595.64   26.60
  -2   8  -2  537.55   26.60
   3  -8   2  209.28   11.30
   3  -8   2  193.68   11.70
  -3  -8  -2  223.78   11.50
  -3  -8  -2  235.28   11.50
  -3  -8  -2  219.58   11.30
  -3  -8  -2  219.88   11.30
  -3  -8  -2  218.48   11.30
   3  -8   2  193.78   10.90
  -3  -8  -2  222.98   11.00
   3  -8   2  228.48   11.00
   3  -8   2  215.58   11.10
   3  -8   2  208.38   11.50
  -3   8  -2  207.88   11.80
   3   8   2  218.48   11.50
  -3   8  -2  200.28   11.30
  -3   8  -2  209.48   12.00
  -3   8  -2  207.68   11.50
  -3   8  -2  235.28   11.80
   3   8   2  229.68   11.40
   3   8   2  204.98   11.20
   3   8   2  227.88   11.30
   3   8   2  229.18   12.00
   4  -8   2    1.00    2.20
  -4  -8  -2    1.40    2.20
   4  -8   2    0.80    2.60
  -4  -8  -2    4.00    2.60
   4  -8   2    3.50    2.50
  -4  -8  -2   -0.50    2.00
   4  -8   2    0.70    2.50
   4  -8   2    1.30    2.00
   4  -8   2    3.90    2.40
  -4  -8  -2    0.50    1.80
  -4  -8  -2    2.40    2.70
  -4   8  -2    0.00    2.40
   4   8   2    0.20    2.10
  -4   8  -2    2.60    1.90
  -4   8  -2    4.00    2.80
  -4   8  -2   -3.70    2.20
  -4   8  -2   -2.00    2.50
  -4   8  -2    3.30    3.00
   4   8   2    0.30    1.70
   4   8   2    2.60    2.80
   4   8   2    0.40    2.10
   4   8   2   -1.90    2.10
   5  -8   2   97.49    7.60
  -5  -8  -2  103.39    8.00
   5  -8   2  101.89    7.60
  -5  -8  -2  103.59    7.90
   5  -8   2   99.69    8.10
  -5  -8  -2   96.79    7.00
  -5  -8  -2  100.09    7.40
   5  -8   2   86.39    7.40
  -5  -8  -2   99.09    6.70
  -5   8  -2  105.89    8.20
   5   8   2   98.99    7.20
  -5   8  -2  109.29    8.40
  -5   8  -2   92.29    7.80
  -5   8  -2   93.99    8.60
   5   8   2  105.59    7.40
   5   8   2  107.49    8.10
   5   8   2   93.09    7.60
   5   8   2   91.09    7.40
  -5   8  -2   96.59    7.80
  -6  -8  -2   59.99    6.80
  -6  -8  -2   61.69    7.30
   6  -8   2   39.30    5.80
   6  -8   2   55.29    6.90
   6  -8   2   58.29    6.70
  -6  -8  -2   66.29    6.30
  -6  -8  -2   56.29    5.90
   6  -8   2   69.59    7.40
  -6   8  -2   52.29    6.50
  -6   8  -2   68.99    8.10
  -6   8  -2   49.60    6.50
   6   8   2   51.79    6.00
   6   8   2   66.49    7.00
  -6   8  -2   59.09    7.00
   6   8   2   57.79    6.20
   6   8   2   58.59    6.80
   6   8   2   68.19    6.70
   7  -9  -2    4.30    4.10
  -7   9   2    5.20    4.10
   7   9  -2    4.20    2.90
  -6  -9   2   22.20    4.30
   6  -9  -2   24.80    5.00
   6  -9  -2   38.20    5.70
  -6  -9   2   17.50    4.30
   6  -9  -2   28.60    5.10
   6  -9  -2   23.90    5.00
   6  -9  -2   28.40    4.20
   6   9  -2   26.80    4.60
   6   9  -2   25.30    5.00
  -6   9   2   23.80    5.00
  -6   9   2   26.60    5.30
   6   9  -2   28.30    4.90
  -6   9   2   24.00    4.80
   6   9  -2   29.80    3.90
   5  -9  -2   23.80    4.20
  -5  -9   2   20.90    4.20
   5  -9  -2   23.10    3.40
  -5  -9   2   22.60    3.90
  -5  -9   2   16.30    3.50
   5  -9  -2   23.60    4.50
   5  -9  -2   27.40    4.50
   5  -9  -2   20.10    3.70
   5   9  -2   17.80    4.00
   5   9  -2   24.70    3.10
  -5   9   2   17.40    4.50
  -5   9   2   39.80    5.30
   5   9  -2   21.50    3.20
  -5   9   2   15.20    3.70
   5   9  -2   17.90    4.00
   5   9  -2   22.40    4.10
  -5   9   2   24.00    4.30
  -4  -9   2   -1.70    2.10
   4  -9  -2    1.70    2.30
   4  -9  -2    5.20    2.00
  -4  -9   2   -3.50    2.30
   4  -9  -2    3.90    1.80
   4  -9  -2    4.20    2.80
   4  -9  -2    5.00    2.70
  -4  -9   2    1.00    2.20
   4  -9  -2    2.60    2.50
  -4   9   2   -3.90    2.30
  -4   9   2    3.10    2.70
  -4   9   2    2.00    3.10
   4   9  -2   -5.50    2.10
   4   9  -2    2.50    1.60
   4   9  -2    4.60    2.80
   4   9  -2    0.10    1.70
   4   9  -2    3.10    2.40
  -4   9   2    1.20    2.70
   4   9  -2   -3.50    1.70
   3  -9  -2   67.59    6.20
   3  -9  -2   66.69    4.70
  -3  -9   2   77.29    5.40
  -3  -9   2   56.59    5.10
   3  -9  -2   62.19    5.40
   3  -9  -2   64.39    4.50
  -3  -9   2   73.89    5.30
   3  -9  -2   71.79    5.50
   3  -9  -2   65.49    5.50
  -3  -9   2   59.09    5.70
   3   9  -2   66.29    5.60
   3   9  -2   68.59    5.70
   3   9  -2   65.49    4.10
  -3   9   2   67.99    6.20
  -3   9   2   69.09    4.90
  -3   9   2   65.49    5.60
   3   9  -2   74.19    4.10
   3   9  -2   68.39    4.40
  -3   9   2   73.49    5.80
   3   9  -2   59.69    4.70
  -3   9   2   60.39    5.60
   2  -9  -2  164.98    9.80
   2  -9  -2  163.88    8.40
  -2  -9   2  161.58    8.80
   2  -9  -2  156.88    9.10
   2  -9  -2  176.38    8.70
  -2  -9   2  170.48    9.70
   2  -9  -2  160.48    9.00
  -2  -9   2  182.48    9.00
  -2  -9   2  166.78    8.70
   2   9  -2  159.08    7.70
  -2   9   2  161.28    9.20
   2   9  -2  162.88    8.00
  -2   9   2  171.28    8.80
   2   9  -2  155.38    8.00
  -2   9   2  155.28    9.60
   2   9  -2  171.18    8.90
   2   9  -2  164.78    7.80
  -2   9   2  163.08    9.20
   2   9  -2  176.38    9.40
   2   9  -2  146.49    9.30
  -2   9   2  164.68    9.10
   1  -9  -2    2.10    1.10
   1  -9  -2    1.30    2.20
  -1  -9   2    6.60    2.30
   1  -9  -2    4.60    2.30
  -1  -9   2    0.90    0.60
  -1  -9   2    2.80    1.50
   1  -9  -2    1.70    1.40
  -1  -9   2    2.70    2.20
  -1  -9   2    5.80    1.80
   1  -9  -2    1.90    1.80
   1  -9  -2    6.10    1.90
   1  -9  -2    4.90    2.30
   1   9  -2    3.20    1.80
   1   9  -2    0.40    1.80
   1   9  -2    2.50    1.00
  -1   9   2    4.80    2.00
   1   9  -2    3.70    2.00
   1   9  -2    2.40    1.40
  -1   9   2    0.70    2.20
   1   9  -2    5.20    1.30
  -1   9   2    0.00    1.80
   1   9  -2    3.20    1.10
  -1   9   2    3.50    1.90
  -1   9   2    5.20    2.10
   0  -9  -2  227.48   11.20
   0  -9  -2  219.48   10.90
   0  -9  -2  224.38   10.60
   0  -9  -2  220.98   11.60
   0  -9   2  224.68   11.20
   0  -9  -2  226.28   11.20
   0  -9   2  203.78   10.20
   0  -9   2  223.68   11.80
   0  -9  -2  213.88   11.60
   0  -9   2  206.18   10.50
   0  -9   2  221.78   11.00
   0  -9   2  218.98   10.40
   0   9  -2  220.78   10.70
   0   9   2  225.98   11.80
   0   9  -2  201.18   10.30
   0   9  -2  213.38   10.20
   0   9  -2  191.98   10.10
   0   9   2  228.58   11.10
   0   9  -2  214.78   10.20
   0   9  -2  222.08   10.20
   0   9  -2  224.08   11.40
   0   9  -2  231.98   11.60
   0   9   2  202.78   10.50
   0   9  -2  219.68   10.70
   0   9   2  227.18   11.20
   1  -9   2  133.79    7.40
   1  -9   2  137.29    7.10
   1  -9   2  146.99    8.10
   1  -9   2  135.49    6.90
   1  -9   2  145.89    8.70
  -1  -9  -2  143.29    7.90
  -1  -9  -2  149.99    7.00
  -1  -9  -2  149.59    8.10
   1  -9   2  147.69    8.00
  -1  -9  -2  147.09    8.20
  -1  -9  -2  162.58    8.30
   1  -9   2  128.79    7.20
  -1  -9  -2  154.68    8.80
   1  -9   2  126.89    8.50
  -1   9  -2  143.89    7.60
   1   9   2  139.09    8.40
  -1   9  -2  140.19    7.80
  -1   9  -2  145.39    8.60
   1   9   2  149.39    8.30
  -1   9  -2  141.39    7.40
  -1   9  -2  143.09    7.00
   1   9   2  154.18    7.30
   1   9   2  147.49    8.00
  -1   9  -2  150.68    7.60
   1   9   2  150.68    8.30
   1   9   2  163.08    8.80
  -1   9  -2  140.09    8.00
  -2  -9  -2    3.60    2.10
   2  -9   2    4.40    1.60
   2  -9   2    0.90    1.80
  -2  -9  -2    0.40    1.90
   2  -9   2    2.60    1.80
  -2  -9  -2    0.90    1.60
  -2  -9  -2    1.70    2.00
   2  -9   2    1.10    2.30
   2  -9   2    0.50    1.70
  -2  -9  -2    2.40    2.00
   2  -9   2    0.30    1.80
  -2  -9  -2    1.20    1.70
  -2   9  -2    0.00    1.70
  -2   9  -2    2.40    2.40
  -2   9  -2    0.90    2.00
   2   9   2    0.60    1.90
   2   9   2   -1.30    1.90
   2   9   2   -2.80    1.70
  -2   9  -2    0.00    1.10
   2   9   2   -0.50    1.70
   2   9   2    1.20    2.00
   2   9   2    1.50    2.30
  -2   9  -2    1.30    1.90
  -2   9  -2    1.70    2.10
   3  -9   2   38.30    5.10
  -3  -9  -2   63.59    5.10
  -3  -9  -2   60.29    5.30
  -3  -9  -2   61.19    4.50
   3  -9   2   56.49    4.90
   3  -9   2   60.49    4.80
  -3  -9  -2   53.39    5.00
  -3  -9  -2   56.49    4.80
  -3  -9  -2   64.89    4.90
   3  -9   2   50.89    4.70
   3  -9   2   62.99    5.40
   3  -9   2   51.59    5.40
   3  -9   2   50.89    4.60
   3   9   2   57.09    5.30
  -3   9  -2   52.19    5.40
   3   9   2   59.29    5.00
   3   9   2   65.99    5.10
  -3   9  -2   47.90    5.30
  -3   9  -2   60.09    5.50
   3   9   2   56.49    5.60
   3   9   2   58.09    5.20
  -3   9  -2   49.40    5.30
  -3   9  -2   63.49    5.40
  -4  -9  -2   83.59    5.50
  -4  -9  -2   84.99    6.10
   4  -9   2   69.59    6.10
  -4  -9  -2   86.59    6.70
   4  -9   2   79.59    5.70
   4  -9   2   84.29    6.50
  -4  -9  -2   87.69    6.20
   4  -9   2   84.49    6.20
   4  -9   2   75.29    7.00
   4  -9   2   73.89    6.00
  -4  -9  -2   83.69    6.40
   4   9   2   85.39    7.10
   4   9   2   83.49    5.70
   4   9   2   86.39    6.70
   4   9   2   76.79    6.10
  -4   9  -2   73.99    7.10
   4   9   2   88.49    6.20
  -4   9  -2   72.29    6.30
  -4   9  -2   59.39    4.90
  -4   9  -2   74.49    6.60
  -4   9  -2   77.89    7.00
  -4   9  -2   68.09    6.80
   5  -9   2    2.70    3.00
   5  -9   2    5.60    3.10
  -5  -9  -2    7.40    2.60
   5  -9   2    4.30    3.30
  -5  -9  -2   12.00    3.60
  -5  -9  -2    8.60    2.90
  -5  -9  -2   12.00    3.70
   5  -9   2    1.90    3.00
  -5   9  -2    3.90    3.20
  -5   9  -2    6.10    3.60
  -5   9  -2   10.10    3.80
  -5   9  -2    6.40    3.10
   5   9   2   11.80    3.60
  -5   9  -2    2.90    3.60
   5   9   2   10.60    3.20
   5   9   2    7.30    3.30
   5   9   2    8.90    3.20
  -6  -9  -2   14.30    4.20
  -6  -9  -2   18.30    4.60
   6  -9   2   26.50    4.80
   6  -9   2   20.50    4.50
   6  -9   2   15.10    4.50
  -6  -9  -2   17.60    3.60
   6  -9   2   21.70    4.70
   6   9   2   20.10    4.40
  -6   9  -2   15.40    4.40
   6   9   2   20.40    4.10
   6   9   2   21.20    4.20
  -6   9  -2   20.80    4.80
  -6   9  -2   18.70    5.00
   6   9   2   15.60    4.40
  -6   9  -2   21.10    5.00
   6   9   2   21.00    4.60
   6 -10  -2   33.20    5.50
  -6 -10   2   26.50    4.60
   6 -10  -2   28.80    5.20
   6 -10  -2   22.90    5.10
   6 -10  -2   28.00    5.10
   6 -10  -2   22.50    4.50
  -6 -10   2   29.60    5.30
   6  10  -2   33.30    5.60
  -6  10   2   33.10    6.00
   6  10  -2   30.60    4.80
   6  10  -2   29.60    3.80
  -6  10   2   31.30    5.50
  -6  10   2   32.50    5.50
   6  10  -2   23.70    4.70
  -5 -10   2  123.29    8.70
   5 -10  -2  119.19    8.60
   5 -10  -2  111.49    8.80
  -5 -10   2  110.29    8.10
  -5 -10   2  120.79    8.30
   5 -10  -2  137.99    9.70
   5 -10  -2  108.59    7.50
   5 -10  -2  109.59    8.60
   5  10  -2  121.89    7.00
  -5  10   2  140.19   10.00
   5  10  -2  116.29    9.00
   5  10  -2  119.99    8.80
   5  10  -2  106.99    8.50
  -5  10   2  113.19    8.90
  -5  10   2  124.89    9.20
  -5  10   2  118.79    8.90
   4 -10  -2  386.46   19.40
  -4 -10   2  391.76   19.50
  -4 -10   2  400.06   19.00
   4 -10  -2  376.66   18.60
   4 -10  -2  386.16   19.70
   4 -10  -2  393.06   19.60
   4 -10  -2  414.56   20.20
  -4 -10   2  388.46   19.40
   4  10  -2  385.36   19.60
  -4  10   2  385.06   18.80
   4  10  -2  378.36   19.80
  -4  10   2  417.36   20.00
  -4  10   2  380.56   20.00
  -4  10   2  381.56   19.60
   4  10  -2  399.96   18.10
   4  10  -2  381.06   18.30
  -4  10   2  394.16   19.60
   4  10  -2  402.56   20.10
  -3 -10   2  227.48   11.70
   3 -10  -2  212.18   11.80
  -3 -10   2  213.68   11.60
   3 -10  -2  217.68   11.10
   3 -10  -2  223.78   12.60
  -3 -10   2  237.78   11.50
  -3 -10   2  231.98   12.40
   3 -10  -2  208.78   10.90
   3 -10  -2  220.08   11.70
   3  10  -2  211.98   12.00
   3  10  -2  205.78   10.60
   3  10  -2  225.58   10.40
   3  10  -2  212.68   12.10
   3  10  -2  217.88   11.20
  -3  10   2  216.38   11.90
  -3  10   2  225.88   11.40
  -3  10   2  199.68   11.80
  -3  10   2  202.88   12.40
  -3  10   2  228.18   12.20
  -2 -10   2  175.38   10.70
  -2 -10   2  183.98    9.90
   2 -10  -2  179.98   10.10
   2 -10  -2  185.28   10.20
  -2 -10   2  197.18    9.80
   2 -10  -2  199.18    9.60
   2 -10  -2  184.78   10.80
   2 -10  -2  164.28    9.30
  -2 -10   2  212.48    9.90
   2 -10  -2  185.98    9.60
  -2  10   2  188.28   10.20
   2  10  -2  184.28    8.80
   2  10  -2  185.58    9.10
  -2  10   2  197.08   10.00
  -2  10   2  194.78   10.30
   2  10  -2  195.68    9.10
   2  10  -2  166.48   10.60
  -2  10   2  181.48   11.00
   2  10  -2  184.58   10.00
  -2  10   2  184.28   10.20
   2  10  -2  178.08    8.80
   2  10  -2  187.28   10.40
   1 -10  -2  943.01   44.00
   1 -10  -2 1020.80   43.20
   1 -10  -2 1000.50   43.60
  -1 -10   2 1023.60   43.10
   1 -10  -2  983.80   43.80
  -1 -10   2  951.90   44.20
  -1 -10   2  866.61   42.70
   1 -10  -2  948.51   42.90
  -1 -10   2  986.20   43.20
   1 -10  -2  928.31   42.30
   1 -10  -2  949.71   44.10
  -1 -10   2  950.80   43.60
   1  10  -2  981.40   43.10
   1  10  -2  983.00   43.20
   1  10  -2 1004.10   43.80
   1  10  -2  936.01   42.50
   1  10  -2 1002.80   42.90
  -1  10   2  950.90   43.60
  -1  10   2  959.30   43.40
  -1  10   2  989.20   43.20
   1  10  -2  964.90   43.80
   1  10  -2  989.30   42.40
  -1  10   2  939.21   44.10
   1  10  -2  956.40   42.60
  -1  10   2 1025.90   43.60
   0 -10  -2  576.94   25.40
   0 -10   2  567.94   25.30
   0 -10  -2  563.14   25.80
   0 -10  -2  545.35   26.30
   0 -10  -2  629.74   26.70
   0 -10  -2  575.54   25.70
   0 -10   2  557.04   26.60
   0 -10  -2  564.64   25.90
   0 -10   2  539.55   25.10
   0 -10   2  533.55   25.90
   0 -10   2  501.95   25.00
   0  10  -2  530.05   25.10
   0  10   2  578.84   26.50
   0  10  -2  574.14   25.10
   0  10  -2  516.85   24.90
   0  10  -2  545.05   25.20
   0  10  -2  570.34   26.40
   0  10  -2  543.55   26.10
   0  10  -2  543.25   24.90
   0  10  -2  584.44   25.50
   0  10   2  581.44   25.30
   0  10   2  587.94   25.80
   0  10   2  587.14   26.10
   0  10  -2  555.94   25.00
   1 -10   2  103.89    6.10
   1 -10   2  109.99    5.90
  -1 -10  -2  114.09    6.90
  -1 -10  -2  108.19    6.60
  -1 -10  -2  123.29    7.80
  -1 -10  -2  119.79    7.00
  -1 -10  -2  113.19    6.90
   1 -10   2  105.89    6.90
   1 -10   2  110.59    6.80
   1 -10   2  100.09    7.40
   1  10   2  117.09    7.40
   1  10   2  115.09    7.10
   1  10   2  113.49    7.00
   1  10   2  109.59    6.80
  -1  10  -2  124.79    7.00
  -1  10  -2  102.89    6.00
  -1  10  -2  101.09    5.50
  -1  10  -2  108.79    6.40
   1  10   2  111.59    7.60
  -1  10  -2  113.19    6.30
  -1  10  -2  108.69    6.30
  -1  10  -2  105.19    7.40
   2 -10   2  829.82   37.20
  -2 -10  -2  823.72   37.80
   2 -10   2  833.82   37.60
  -2 -10  -2  878.31   38.40
  -2 -10  -2  857.91   37.60
  -2 -10  -2  840.52   38.00
   2 -10   2  782.92   37.90
  -2 -10  -2  895.91   37.20
   2 -10   2  752.82   37.40
  -2 -10  -2  880.81   38.10
   2 -10   2  738.23   38.30
   2 -10   2  785.42   37.40
  -2 -10  -2  845.42   37.40
  -2  10  -2  833.92   38.50
   2  10   2  856.81   38.10
  -2  10  -2  800.72   37.50
   2  10   2  918.71   37.40
  -2  10  -2  793.22   36.60
  -2  10  -2  769.82   37.70
  -2  10  -2  839.52   37.90
   2  10   2  876.91   38.10
   2  10   2  885.01   38.20
  -2  10  -2  797.32   37.50
   2  10   2  885.41   38.50
   2  10   2  851.31   37.80
  -3 -10  -2  452.35   21.20
   3 -10   2  424.76   20.80
  -3 -10  -2  453.05   21.20
   3 -10   2  407.76   20.80
   3 -10   2  418.16   20.90
  -3 -10  -2  478.25   21.00
  -3 -10  -2  448.46   20.60
  -3 -10  -2  449.36   21.50
   3 -10   2  436.06   20.80
  -3 -10  -2  458.65   21.30
   3 -10   2  436.46   21.40
   3 -10   2  393.86   21.70
   3  10   2  457.95   22.00
  -3  10  -2  429.46   21.10
  -3  10  -2  433.16   21.90
   3  10   2  440.36   21.10
   3  10   2  464.35   21.30
  -3  10  -2  433.06   21.10
   3  10   2  457.25   21.50
  -3  10  -2  410.46   21.40
  -3  10  -2  452.55   21.50
   3  10   2  464.65   21.30
  -4 -10  -2   19.80    3.60
   4 -10   2   27.70    4.10
  -4 -10  -2   28.80    4.20
  -4 -10  -2   19.70    3.00
   4 -10   2   21.70    3.80
  -4 -10  -2   18.20    3.40
   4 -10   2   19.00    3.80
   4 -10   2   14.80    3.30
  -4 -10  -2   19.10    3.50
   4 -10   2   23.90    4.40
   4 -10   2   22.10    3.20
   4  10   2   12.50    3.90
   4  10   2   12.80    2.90
  -4  10  -2   17.10    3.70
   4  10   2   22.00    3.80
   4  10   2   17.50    3.40
  -4  10  -2   20.50    3.80
   4  10   2   17.30    3.50
  -4  10  -2   18.60    4.00
  -4  10  -2   25.10    4.50
  -4  10  -2   15.20    3.80
   5 -10   2  195.78   11.80
  -5 -10  -2  224.98   12.50
  -5 -10  -2  197.28   11.80
  -5 -10  -2  218.58   12.40
  -5 -10  -2  193.68   11.00
   5 -10   2  177.78   11.90
   5 -10   2  206.58   12.90
   5 -10   2  198.08   12.10
  -5  10  -2  211.68   13.10
  -5  10  -2  191.18   12.40
   5  10   2  217.38   12.00
   5  10   2  215.38   13.00
  -5  10  -2  214.48   12.70
   5  10   2  204.48   12.30
  -5  10  -2  199.78   12.70
   5  10   2  205.98   11.80
  -5  10  -2  211.08   12.60
   6 -10   2  127.39    9.60
   6 -10   2  118.29    9.50
  -6 -10  -2  135.99    9.10
   6 -10   2  128.79    9.80
  -6 -10  -2  128.69    9.80
  -6  10  -2  123.29   10.80
   6  10   2  125.99   10.20
   6  10   2  127.09    9.50
   6  10   2  128.79    9.80
   6  10   2  127.59    9.10
  -6  10  -2  127.29   10.70
  -6  10  -2  134.39   11.20
   6  10   2  141.59   10.10
  -6 -11   2   81.29    7.60
   6 -11  -2   98.49    9.30
   6 -11  -2   75.59    8.10
   6 -11  -2   70.19    8.40
  -6 -11   2   84.59    8.30
   6 -11  -2   80.19    8.20
  -6  11   2   70.39    8.00
   6  11  -2   78.69    8.50
  -6  11   2   73.69    8.30
   6  11  -2   80.69    6.10
   6  11  -2   71.39    7.50
   6  11  -2   70.09    8.50
  -6  11   2  103.99    9.40
   5 -11  -2   66.79    7.00
   5 -11  -2   62.49    6.80
   5 -11  -2   75.19    7.60
   5 -11  -2   79.59    7.30
   5 -11  -2   67.39    6.00
  -5 -11   2   65.29    6.70
  -5 -11   2   53.69    6.10
  -5  11   2   74.59    7.40
   5  11  -2   63.79    5.10
   5  11  -2   66.19    7.10
   5  11  -2   72.29    7.00
  -5  11   2   75.59    7.70
  -5  11   2   77.99    7.60
   5  11  -2   77.19    7.50
  -5  11   2   87.99    8.30
  -4 -11   2    5.30    3.20
   4 -11  -2    2.80    2.90
   4 -11  -2    3.70    3.10
  -4 -11   2    1.10    2.70
   4 -11  -2    6.90    2.40
   4 -11  -2    2.30    3.30
   4 -11  -2    7.80    3.20
  -4 -11   2    1.20    2.40
  -4 -11   2    6.80    2.80
   4  11  -2    2.50    3.10
   4  11  -2    3.70    1.80
   4  11  -2    2.50    2.80
  -4  11   2    5.40    3.10
  -4  11   2    4.00    3.00
   4  11  -2    4.80    2.20
   4  11  -2    3.90    3.00
  -4  11   2    4.90    3.60
  -4  11   2    4.20    3.20
  -4  11   2    6.20    2.60
  -3 -11   2  302.67   14.40
   3 -11  -2  278.87   14.00
  -3 -11   2  261.07   14.50
   3 -11  -2  281.07   13.80
   3 -11  -2  295.77   14.90
   3 -11  -2  312.37   15.90
  -3 -11   2  281.07   14.50
  -3 -11   2  278.57   15.40
   3 -11  -2  275.07   14.70
   3  11  -2  299.37   15.50
   3  11  -2  281.27   13.70
  -3  11   2  297.57   15.20
  -3  11   2  270.27   14.80
   3  11  -2  275.17   13.20
   3  11  -2  279.47   15.00
  -3  11   2  284.57   15.60
  -3  11   2  297.67   14.40
  -3  11   2  279.67   15.00
   3  11  -2  280.87   14.20
   2 -11  -2  407.36   21.30
   2 -11  -2  441.96   20.60
   2 -11  -2  422.96   19.90
  -2 -11   2  419.86   21.30
  -2 -11   2  421.56   20.70
   2 -11  -2  460.15   21.50
   2 -11  -2  406.76   20.50
  -2 -11   2  433.36   20.10
   2 -11  -2  416.26   19.80
  -2 -11   2  417.36   20.30
  -2  11   2  427.66   21.40
   2  11  -2  443.56   20.30
  -2  11   2  417.86   20.50
  -2  11   2  448.06   20.40
  -2  11   2  433.36   20.50
   2  11  -2  408.46   19.10
   2  11  -2  432.46   20.80
   2  11  -2  396.46   21.10
   2  11  -2  430.76   20.50
  -2  11   2  424.36   20.70
   2  11  -2  419.46   19.50
   2  11  -2  444.56   19.40
  -1 -11   2   14.80    2.60
   1 -11  -2   19.80    2.60
   1 -11  -2   10.80    3.10
   1 -11  -2   19.20    3.10
  -1 -11   2   22.40    3.80
  -1 -11   2   19.80    2.60
   1 -11  -2   15.60    2.60
   1 -11  -2   19.60    3.50
  -1 -11   2   15.30    2.40
  -1 -11   2   13.90    3.00
   1 -11  -2   16.90    3.50
   1  11  -2   20.70    2.20
   1  11  -2   17.50    3.10
   1  11  -2   19.20    3.30
   1  11  -2   19.00    2.00
   1  11  -2   18.70    2.40
  -1  11   2   16.70    3.50
   1  11  -2   18.70    2.50
  -1  11   2   18.30    3.10
  -1  11   2   21.10    3.20
  -1  11   2   16.50    2.90
   1  11  -2   23.90    2.40
  -1  11   2   16.20    3.10
   0 -11  -2  426.36   21.10
   0 -11   2  412.76   20.60
   0 -11   2  438.76   19.90
   0 -11   2  422.06   21.30
   0 -11   2  398.36   19.60
   0 -11  -2  433.46   20.00
   0 -11  -2  449.06   20.60
   0 -11  -2  425.26   19.40
   0 -11  -2  447.16   21.30
   0 -11  -2  441.66   20.30
   0 -11  -2  422.06   20.40
   0  11  -2  457.75   21.20
   0  11  -2  410.36   19.80
   0  11  -2  399.26   19.60
   0  11   2  432.26   19.80
   0  11   2  470.85   21.40
   0  11  -2  446.46   19.70
   0  11  -2  424.06   19.50
   0  11  -2  438.26   19.70
   0  11   2  451.75   20.90
   0  11  -2  408.36   20.80
   0  11  -2  453.65   20.10
   0  11  -2  414.26   19.50
   0  11   2  442.56   20.50
   1 -11   2  436.76   20.90
  -1 -11  -2  497.25   21.20
   1 -11   2  466.45   21.70
   1 -11   2  436.16   21.80
  -1 -11  -2  488.25   21.80
   1 -11   2  433.76   21.10
   1 -11   2  429.86   22.40
  -1 -11  -2  411.76   22.30
  -1 -11  -2  472.55   21.80
  -1 -11  -2  462.75   21.50
  -1 -11  -2  477.35   22.00
  -1  11  -2  454.85   21.20
   1  11   2  467.95   22.10
   1  11   2  461.65   21.70
   1  11   2  488.85   22.20
  -1  11  -2  463.15   22.50
  -1  11  -2  473.25   21.60
  -1  11  -2  432.76   20.40
   1  11   2  494.55   22.50
  -1  11  -2  456.75   21.20
  -1  11  -2  447.36   21.00
   1  11   2  486.95   22.40
  -1  11  -2  448.66   21.20
  -2 -11  -2   38.30    3.30
   2 -11   2   33.00    4.80
   2 -11   2   36.90    3.90
  -2 -11  -2   52.79    4.00
  -2 -11  -2   38.00    4.30
   2 -11   2   39.00    3.70
  -2 -11  -2   44.10    4.20
   2 -11   2   41.20    4.40
  -2 -11  -2   49.70    5.30
  -2 -11  -2   50.09    4.60
   2 -11   2   39.10    4.20
  -2 -11  -2   47.40    4.80
   2  11   2   43.60    4.70
  -2  11  -2   41.30    4.30
   2  11   2   46.80    4.80
  -2  11  -2   37.30    4.50
  -2  11  -2   35.20    4.70
  -2  11  -2   45.40    4.40
   2  11   2   49.00    5.50
   2  11   2   37.10    4.30
   2  11   2   37.00    4.30
  -2  11  -2   43.30    4.20
   3 -11   2  103.19    8.40
   3 -11   2  110.69    7.30
  -3 -11  -2  117.09    7.50
  -3 -11  -2  111.79    6.60
  -3 -11  -2  131.89    8.20
  -3 -11  -2  111.99    7.40
  -3 -11  -2  110.19    7.50
  -3 -11  -2  126.29    7.00
   3 -11   2  110.49    7.30
   3 -11   2  101.29    7.00
   3 -11   2  109.89    7.70
   3 -11   2  109.49    7.30
  -3  11  -2   98.49    7.70
   3  11   2  109.79    7.70
   3  11   2  105.39    7.40
  -3  11  -2  111.79    7.50
  -3  11  -2  114.69    8.30
   3  11   2  119.19    7.60
  -3  11  -2  119.39    8.60
  -3  11  -2  110.49    7.60
   3  11   2  114.49    8.70
   3  11   2  129.19    8.20
   4 -11   2  225.68   13.20
  -4 -11  -2  243.88   12.70
   4 -11   2  222.08   12.60
  -4 -11  -2  197.28   12.00
  -4 -11  -2  235.48   12.80
   4 -11   2  217.48   12.00
  -4 -11  -2  218.48   11.40
  -4 -11  -2  233.78   12.80
   4 -11   2  224.68   11.80
   4 -11   2  194.68   12.20
   4 -11   2  200.08   13.10
  -4  11  -2  223.58   13.10
   4  11   2  226.68   12.30
   4  11   2  237.38   12.50
  -4  11  -2  223.08   12.60
   4  11   2  219.48   12.80
  -4  11  -2  223.68   13.20
   4  11   2  223.58   12.10
   4  11   2  231.48   13.30
  -4  11  -2  209.18   12.50
  -4  11  -2  212.88   13.00
   5 -11   2   67.69    7.10
   5 -11   2   48.70    6.10
  -5 -11  -2   77.39    7.10
  -5 -11  -2   73.29    6.70
   5 -11   2   70.59    6.60
   5 -11   2   59.49    7.10
  -5  11  -2   54.29    6.70
  -5  11  -2   65.79    7.40
  -5  11  -2   65.99    7.10
   5  11   2   72.99    7.60
   5  11   2   73.19    7.30
  -5  11  -2   78.59    7.50
   5  11   2   76.39    6.60
   5  11   2   75.19    6.80
  -5  11  -2   62.19    6.80
  -6 -11  -2   18.70    4.10
   6 -11   2   28.30    6.40
   6 -11   2   27.40    5.50
   6 -11   2   31.50    5.20
   6  11   2   23.70    5.00
  -6  11  -2   27.90    5.80
   6  11   2   20.80    8.10
   6  11   2   25.90    4.60
   6 -12  -2    0.70    4.10
   6 -12  -2   -1.40    3.60
  -6  12   2    1.50    3.90
   6  12  -2    2.60    2.30
   6  12  -2    2.00    3.50
   5 -12  -2    6.10    2.70
   5 -12  -2   -0.60    3.50
   5 -12  -2   -2.70    3.20
   5 -12  -2    1.60    3.20
  -5 -12   2    2.60    2.80
  -5 -12   2   -1.90    2.90
   5 -12  -2   -0.10    3.10
  -5  12   2    4.80    3.40
   5  12  -2    2.30    2.90
  -5  12   2    8.40    3.70
  -5  12   2   -6.90    3.10
   5  12  -2   -1.60    3.00
   5  12  -2    0.10    3.30
  -5  12   2   -0.20    3.90
   5  12  -2    2.20    2.00
  -4 -12   2   -0.70    2.70
   4 -12  -2   -1.60    2.80
  -4 -12   2    4.50    2.70
   4 -12  -2    0.10    2.80
   4 -12  -2    2.60    2.20
  -4 -12   2   -1.90    2.80
   4 -12  -2    1.30    3.50
   4  12  -2    3.60    1.70
  -4  12   2   -0.20    3.30
  -4  12   2    2.60    3.60
  -4  12   2    3.50    3.10
  -4  12   2   -0.90    2.90
  -4  12   2    1.80    2.60
   4  12  -2    1.40    3.00
   4  12  -2    0.60    2.90
   3 -12  -2    6.70    3.40
   3 -12  -2    2.00    2.10
  -3 -12   2    1.50    3.10
  -3 -12   2    3.90    2.50
  -3 -12   2   -0.10    2.30
   3 -12  -2    4.10    2.90
   3 -12  -2    5.20    2.90
  -3 -12   2   -2.00    2.10
  -3  12   2    3.50    3.30
   3  12  -2    4.50    2.30
  -3  12   2    0.80    3.10
   3  12  -2    1.00    1.90
  -3  12   2    2.90    2.70
  -3  12   2    1.10    2.90
  -3  12   2    2.90    2.40
   3  12  -2    0.60    2.40
   3  12  -2    2.10    3.00
   3  12  -2    3.30    1.50
  -2 -12   2   -0.90    2.00
   2 -12  -2    1.40    2.80
  -2 -12   2   -1.60    2.60
   2 -12  -2    1.90    2.50
  -2 -12   2    2.60    2.20
   2 -12  -2    1.60    3.00
   2 -12  -2    2.40    2.00
   2 -12  -2    2.20    2.70
   2 -12  -2   -1.60    1.70
   2  12  -2   -1.00    1.40
  -2  12   2    2.10    2.40
   2  12  -2    1.10    2.00
   2  12  -2    1.60    1.70
  -2  12   2    1.80    2.40
  -2  12   2    0.60    2.80
   2  12  -2   -2.70    2.40
   2  12  -2    0.60    2.40
   2  12  -2   -1.60    1.80
  -2  12   2    1.90    2.20
  -2  12   2   -2.00    2.90
  -1 -12   2   -0.50    1.90
   1 -12  -2    5.90    2.90
   1 -12  -2    1.20    2.20
  -1 -12   2    0.90    2.60
   1 -12  -2   -2.10    1.60
  -1 -12   2   -1.30    1.70
   1 -12  -2    1.00    1.80
   1 -12  -2    3.10    2.40
  -1 -12   2    1.80    2.20
   1 -12  -2    3.80    2.80
  -1  12   2   -2.40    2.50
   1  12  -2    0.10    1.50
  -1  12   2   -2.10    2.00
   1  12  -2    0.30    2.10
  -1  12   2   -0.50    2.10
  -1  12   2    2.00    2.40
   1  12  -2    2.20    2.30
  -1  12   2    0.30    2.10
   1  12  -2    0.80    1.40
   1  12  -2   -0.30    1.50
   1  12  -2    0.70    1.70
   0 -12  -2   -1.00    1.90
   0 -12  -2   -1.10    2.10
   0 -12   2   -0.70    1.60
   0 -12   2    2.20    2.20
   0 -12  -2    2.10    2.10
   0 -12   2   -0.50    2.60
   0 -12  -2    2.20    2.60
   0 -12  -2    1.40    1.40
   0 -12   2    0.00    1.80
   0 -12  -2   -2.90    2.10
   0 -12  -2    0.30    1.60
   0  12   2   -1.10    2.10
   0  12   2    1.00    2.30
   0  12   2    0.90    2.30
   0  12  -2    2.50    1.80
   0  12  -2   -0.40    2.00
   0  12  -2    1.90    1.70
   0  12  -2   -0.40    2.10
   0  12   2   -1.30    2.50
   0  12   2    1.00    2.00
   0  12  -2   -2.80    2.10
   0  12  -2   -1.50    1.20
  -1 -12  -2    1.90    2.20
  -1 -12  -2   -0.40    2.10
  -1 -12  -2    1.10    2.80
   1 -12   2   -0.50    1.70
   1 -12   2   -1.80    2.10
   1 -12   2    0.10    1.60
  -1 -12  -2   -1.20    1.70
   1 -12   2   -0.20    2.60
  -1 -12  -2   -2.60    1.60
  -1 -12  -2   -3.20    2.00
  -1  12  -2   -3.30    2.20
  -1  12  -2   -0.20    1.90
   1  12   2   -2.90    2.10
   1  12   2    0.50    2.20
   1  12   2   -1.60    2.40
   1  12   2   -3.00    2.00
  -1  12  -2    0.80    2.20
  -1  12  -2    3.70    1.90
   1  12   2   -0.40    2.20
  -1  12  -2   -0.70    2.30
  -1  12  -2    1.20    1.90
  -2 -12  -2    4.60    2.70
   2 -12   2    3.20    2.40
  -2 -12  -2    9.70    2.80
  -2 -12  -2    6.80    2.30
   2 -12   2    8.70    3.30
  -2 -12  -2    7.40    3.20
   2 -12   2    4.10    2.50
   2 -12   2    6.40    2.40
  -2 -12  -2    4.30    1.90
  -2 -12  -2    0.50    2.40
   2 -12   2    8.40    2.30
   2  12   2    7.10    2.90
  -2  12  -2    1.70    2.70
   2  12   2    1.50    2.60
  -2  12  -2    9.20    2.70
  -2  12  -2    4.40    2.30
   2  12   2    5.10    2.90
   2  12   2    3.30    2.90
  -2  12  -2    2.40    2.30
   2  12   2    7.90    2.60
  -2  12  -2    6.20    3.20
   3 -12   2    1.20    3.00
  -3 -12  -2   -0.60    2.30
   3 -12   2    1.90    2.20
  -3 -12  -2   -0.50    2.20
  -3 -12  -2    1.70    2.30
   3 -12   2   -0.70    2.20
  -3 -12  -2    5.00    1.90
   3 -12   2    2.70    2.60
   3 -12   2    3.30    2.20
  -3 -12  -2    0.40    2.70
   3 -12   2   -1.30    2.20
  -3  12  -2    2.30    2.60
   3  12   2    1.00    2.60
   3  12   2   -1.30    2.30
   3  12   2   -0.70    3.00
  -3  12  -2    3.20    3.20
  -3  12  -2    2.10    2.70
   3  12   2   -2.50    2.20
  -3  12  -2    3.30    2.60
  -3  12  -2    2.30    3.00
   3  12   2    1.00    2.50
   4 -12   2    1.50    2.50
   4 -12   2    5.60    2.60
  -4 -12  -2    0.30    2.60
   4 -12   2    3.00    2.90
   4 -12   2    3.70    2.90
  -4 -12  -2   -0.20    2.90
  -4 -12  -2    4.40    2.90
  -4 -12  -2    6.60    2.50
   4 -12   2    2.80    3.40
  -4  12  -2    1.90    3.50
   4  12   2    4.30    2.80
   4  12   2    4.00    2.60
   4  12   2    3.70    3.00
  -4  12  -2    3.10    3.10
   4  12   2    0.70    3.30
  -4  12  -2    2.30    2.80
   4  12   2   10.80    3.30
  -4  12  -2    6.10    3.40
  -4  12  -2    3.10    3.20
   5 -12   2    4.20    3.30
  -5 -12  -2    1.90    2.90
   5 -12   2    4.10    3.80
   5 -12   2    1.30    3.00
  -5 -12  -2    3.80    3.10
   5 -12   2   -0.40    3.30
   5 -12   2    0.80    3.50
  -5  12  -2    0.10    3.40
   5  12   2    4.10    3.00
  -5  12  -2    4.80    3.50
  -5  12  -2    1.00    4.00
   5  12   2   -3.90    3.10
  -5  12  -2   -1.90    3.20
   5  12   2    3.00    3.00
   5  12   2   -1.00    2.90
  -5  12  -2    2.90    3.60
   6 -12   2   -0.10    4.30
   6  12   2   -2.50    3.90
  -6  12  -2    2.90    4.10
   6 -13  -2   57.89    7.70
   6  13  -2   54.79    7.00
   5 -13  -2   49.60    6.20
   5 -13  -2   45.20    6.80
  -5 -13   2   61.09    6.60
  -5 -13   2   50.09    6.00
   5 -13  -2   49.90    6.30
   5  13  -2   48.90    4.20
   5  13  -2   47.60    6.50
   5  13  -2   37.90    5.90
  -5  13   2   79.19    8.00
   5  13  -2   41.90    6.20
  -5  13   2   62.19    7.50
  -5  13   2   47.30    6.30
  -5  13   2   48.60    6.80
   4 -13  -2    2.40    3.10
  -4 -13   2    0.10    2.80
  -4 -13   2   -2.10    3.10
   4 -13  -2    0.10    2.10
   4 -13  -2    0.10    3.00
   4 -13  -2   -6.10    2.80
  -4 -13   2   -1.30    2.40
  -4  13   2    0.70    3.60
  -4  13   2    1.40    3.00
  -4  13   2    1.40    4.00
   4  13  -2   -3.00    2.80
   4  13  -2   -2.70    1.50
  -4  13   2   -2.30    3.20
   4  13  -2    3.00    3.40
   3 -13  -2  178.68   10.90
   3 -13  -2  180.28    9.90
  -3 -13   2  171.28   10.50
   3 -13  -2  177.18   11.80
  -3 -13   2  184.58   11.80
  -3 -13   2  183.38   10.30
   3 -13  -2  191.18   12.30
   3 -13  -2  175.18   10.70
  -3  13   2  167.98   10.40
  -3  13   2  180.68   11.40
  -3  13   2  199.58   12.20
   3  13  -2  171.88   11.50
   3  13  -2  177.38   10.40
  -3  13   2  188.98   11.30
  -3  13   2  176.88   11.00
   3  13  -2  189.18   11.10
   3  13  -2  170.18    8.80
   2 -13  -2  223.88   12.90
   2 -13  -2  216.38   12.20
   2 -13  -2  212.08   11.80
   2 -13  -2  216.98   10.90
   2 -13  -2  204.48   12.70
  -2 -13   2  225.78   11.20
   2 -13  -2  211.98   11.00
  -2 -13   2  209.08   12.60
  -2 -13   2  215.28   11.60
   2  13  -2  205.58   10.20
  -2  13   2  214.88   13.10
  -2  13   2  211.48   11.80
  -2  13   2  226.78   12.00
   2  13  -2  203.48   10.60
   2  13  -2  205.78   12.20
  -2  13   2  209.18   12.10
   2  13  -2  201.48   11.70
  -2  13   2  218.68   12.00
   2  13  -2  175.18   12.30
  -1 -13   2   13.80    3.20
   1 -13  -2   12.20    3.60
   1 -13  -2   16.70    2.70
  -1 -13   2   15.30    2.90
   1 -13  -2   17.90    2.80
  -1 -13   2   17.20    2.70
   1 -13  -2   16.30    3.80
  -1 -13   2   17.30    3.90
   1 -13  -2   20.20    3.30
   1 -13  -2   12.20    3.20
   1  13  -2   19.50    2.60
   1  13  -2   17.70    2.70
   1  13  -2   18.90    3.80
  -1  13   2   22.10    3.50
   1  13  -2   19.20    2.50
  -1  13   2   12.70    3.20
  -1  13   2   12.10    3.30
  -1  13   2   13.10    3.70
   1  13  -2   19.10    3.50
  -1  13   2   13.60    3.30
   0 -13  -2  248.98   12.50
   0 -13  -2  241.48   12.30
   0 -13  -2  262.77   13.00
   0 -13  -2  253.37   12.50
   0 -13   2  231.78   12.90
   0 -13  -2  228.38   12.40
   0 -13  -2  257.07   12.90
   0 -13   2  247.18   12.30
   0 -13   2  233.08   13.70
   0 -13  -2  240.38   13.60
   0  13  -2  241.78   12.50
   0  13  -2  235.18   12.10
   0  13  -2  249.48   12.10
   0  13   2  234.58   12.10
   0  13   2  234.28   12.70
   0  13   2  253.07   13.30
   0  13   2  260.47   14.10
   0  13   2  256.57   13.20
   0  13  -2  220.08   13.30
   0  13  -2  240.48   13.80
   1 -13   2  265.67   14.50
  -1 -13  -2  275.47   14.30
   1 -13   2  276.67   15.40
  -1 -13  -2  286.57   13.50
  -1 -13  -2  284.57   14.50
   1 -13   2  273.57   13.50
  -1 -13  -2  296.87   14.70
  -1 -13  -2  264.77   13.80
  -1 -13  -2  293.27   15.50
  -1  13  -2  276.57   14.40
  -1  13  -2  303.87   14.10
  -1  13  -2  277.97   13.90
   1  13   2  294.17   15.20
   1  13   2  277.07   14.70
  -1  13  -2  262.37   13.50
  -1  13  -2  269.67   15.30
   1  13   2  291.57   15.00
   1  13   2  279.37   14.40
  -1  13  -2  277.87   15.10
   1  13   2  293.47   15.40
  -2 -13  -2   40.10    3.90
   2 -13   2   40.50    5.50
  -2 -13  -2   48.50    4.90
   2 -13   2   34.80    4.50
  -2 -13  -2   42.00    4.60
  -2 -13  -2   44.20    5.10
  -2 -13  -2   45.60    4.30
   2 -13   2   34.10    4.00
  -2 -13  -2   40.50    5.50
  -2  13  -2   40.50    4.90
   2  13   2   45.90    4.90
  -2  13  -2   45.70    5.70
   2  13   2   39.10    5.10
  -2  13  -2   40.50    4.10
  -2  13  -2   41.70    4.60
  -2  13  -2   49.90    4.80
   2  13   2   42.90    5.30
   2  13   2   37.90    4.80
   2  13   2   47.10    5.50
   3 -13   2  137.19    9.70
  -3 -13  -2  129.19    8.50
   3 -13   2  126.19    8.80
  -3 -13  -2  125.69    7.40
  -3 -13  -2  119.99    8.20
  -3 -13  -2  141.69    9.80
   3 -13   2  112.39    8.10
   3 -13   2  132.59    8.10
  -3  13  -2  129.59    9.90
   3  13   2  151.48   10.20
  -3  13  -2  121.29    9.40
   3  13   2  145.49    9.00
  -3  13  -2  128.19    8.50
   3  13   2  140.09    9.20
   3  13   2  137.19    8.70
  -3  13  -2  126.89    8.70
   3  13   2  146.29    9.20
  -3  13  -2  122.59    8.50
   4 -13   2  141.69   11.00
  -4 -13  -2  166.08   10.00
  -4 -13  -2  159.38    9.90
  -4 -13  -2  175.68   10.70
   4 -13   2  162.38    9.80
   4 -13   2  163.38   10.40
   4  13   2  169.68   10.10
   4  13   2  180.38   11.50
  -4  13  -2  135.39   10.10
  -4  13  -2  158.08   11.10
   4  13   2  148.69    9.90
  -4  13  -2  159.88   10.20
  -4  13  -2  151.78   10.30
   4  13   2  159.68   10.70
  -4  13  -2  145.39   11.10
  -5 -13  -2   12.40    3.70
   5 -13   2   13.70    4.10
   5 -13   2   19.10    5.10
   5 -13   2   14.00    3.80
  -5 -13  -2   20.30    4.40
  -5  13  -2   16.90    4.40
  -5  13  -2   15.60    5.40
  -5  13  -2   11.50    4.40
  -5  13  -2   32.20    5.60
   5  13   2   16.10    4.10
   5  13   2   17.60    4.50
   5  13   2   22.90    4.30
   5  13   2   14.30    4.80
   5 -14  -2   49.99    6.90
   5 -14  -2   41.60    6.10
   5 -14  -2   43.00    5.90
  -5 -14   2   43.80    6.40
  -5 -14   2   43.20    5.80
   5  14  -2   34.80    6.50
  -5  14   2   33.00    6.20
   5  14  -2   43.30    6.50
   5  14  -2   46.20    8.80
  -5  14   2   44.70    7.30
  -5  14   2   49.30    6.60
  -5  14   2   36.00    6.90
   4 -14  -2  144.69    9.40
   4 -14  -2  164.98   10.60
  -4 -14   2  142.79   11.20
   4 -14  -2  163.38   10.70
  -4 -14   2  157.78   10.30
  -4 -14   2  172.38   10.20
   4 -14  -2  159.98   11.50
   4  14  -2  152.28   11.30
  -4  14   2  175.88   11.80
   4  14  -2  154.28    8.30
   4  14  -2  161.58   11.00
  -4  14   2  148.29   10.80
  -4  14   2  169.48   10.90
  -4  14   2  174.78   12.20
   3 -14  -2   77.19    5.90
   3 -14  -2   65.99    7.50
   3 -14  -2   79.79    8.30
   3 -14  -2   82.69    7.50
  -3 -14   2   79.19    6.60
  -3 -14   2   77.39    7.90
   3 -14  -2   81.19    6.90
  -3 -14   2   75.19    6.30
  -3  14   2   88.99    7.00
  -3  14   2   68.79    7.60
  -3  14   2   85.69    7.60
  -3  14   2   92.19    8.10
   3  14  -2   67.39    6.50
  -3  14   2   84.29    7.40
   3  14  -2   68.99    7.10
   3  14  -2   62.79    4.60
   3  14  -2   82.29    8.40
  -2 -14   2   81.99    8.00
   2 -14  -2   87.39    7.70
  -2 -14   2   81.89    6.10
   2 -14  -2   83.99    6.00
   2 -14  -2   84.79    6.90
   2 -14  -2   78.29    8.00
  -2 -14   2   88.39    6.60
   2 -14  -2   93.89    8.10
  -2  14   2   79.49    6.90
  -2  14   2   99.59    8.70
   2  14  -2   86.49    7.20
   2  14  -2   79.19    7.00
  -2  14   2   82.39    7.20
  -2  14   2   88.49    7.20
  -2  14   2   88.79    7.10
   2  14  -2   78.19    5.10
   2  14  -2   70.89    7.70
  -1 -14   2  274.57   15.10
   1 -14  -2  251.57   13.30
  -1 -14   2  251.07   13.50
  -1 -14   2  264.77   14.10
   1 -14  -2  246.78   13.10
   1 -14  -2  262.17   14.90
   1 -14  -2  276.17   14.20
   1 -14  -2  276.57   15.00
   1 -14  -2  246.88   13.60
  -1 -14   2  261.37   13.10
   1  14  -2  291.27   14.80
   1  14  -2  256.97   12.90
   1  14  -2  261.77   13.00
  -1  14   2  283.77   14.50
  -1  14   2  255.37   13.70
   1  14  -2  252.57   14.60
  -1  14   2  283.27   15.40
  -1  14   2  269.37   14.00
   1  14  -2  274.87   13.20
  -1  14   2  268.27   14.30
   0 -14  -2  209.68   11.70
   0 -14   2  199.38   11.70
   0 -14  -2  208.38   11.10
   0 -14  -2  203.58   11.60
   0 -14   2  214.08   12.70
   0 -14  -2  220.88   12.70
   0 -14  -2  197.48   11.00
   0 -14   2  208.08   11.00
   0 -14  -2  213.58   11.20
   0  14   2  221.58   13.10
   0  14  -2  210.18   12.70
   0  14   2  214.58   11.00
   0  14  -2  200.28   10.80
   0  14  -2  214.78   11.00
   0  14   2  204.48   11.60
   0  14  -2  207.28   11.30
   0  14  -2  210.48   12.30
   0  14   2  239.18   12.50
   0  14   2  223.88   12.10
  -1 -14  -2   22.40    4.50
  -1 -14  -2   13.20    3.10
  -1 -14  -2   17.70    2.60
  -1 -14  -2   23.10    3.80
  -1 -14  -2   18.90    3.30
   1 -14   2   25.00    3.10
   1 -14   2   23.90    4.60
   1 -14   2   24.60    4.10
  -1 -14  -2   17.90    2.90
   1  14   2   16.70    3.40
   1  14   2   22.70    4.00
  -1  14  -2   20.10    3.30
   1  14   2   15.50    3.70
   1  14   2   20.40    4.10
   1  14   2   16.70    4.00
  -1  14  -2   21.30    4.20
  -1  14  -2   19.40    3.70
  -1  14  -2   19.30    4.00
  -1  14  -2   19.90    3.40
  -2 -14  -2  338.17   15.80
  -2 -14  -2  316.07   16.40
   2 -14   2  299.07   17.40
  -2 -14  -2  301.37   17.50
  -2 -14  -2  296.67   15.30
   2 -14   2  286.47   16.40
   2  14   2  302.97   16.50
  -2  14  -2  333.37   17.80
   2  14   2  334.47   17.20
  -2  14  -2  347.37   16.30
  -2  14  -2  313.57   17.10
   2  14   2  337.47   17.30
  -2  14  -2  315.27   16.10
  -2  14  -2  318.07   16.60
   2  14   2  343.27   17.30
   2  14   2  309.47   16.20
   3 -14   2  140.59   10.50
  -3 -14  -2  161.88    9.60
   3 -14   2  151.38   11.00
  -3 -14  -2  177.48   10.10
  -3 -14  -2  162.78   11.10
   3 -14   2  158.08   10.10
  -3  14  -2  143.39    9.80
   3  14   2  156.78    9.90
   3  14   2  175.28   10.50
  -3  14  -2  163.08   10.20
   3  14   2  165.78   10.60
   3  14   2  148.59    9.80
  -3  14  -2  163.58   10.90
   3  14   2  168.28   11.30
  -3  14  -2  148.59   11.30
   4 -14   2    1.90    2.70
  -4 -14  -2    7.40    3.10
  -4 -14  -2    2.20    3.30
   4 -14   2    5.00    4.00
  -4 -14  -2    6.70    3.10
   4 -14   2    5.80    3.40
  -4  14  -2    2.20    3.50
  -4  14  -2   -2.30    3.60
   4  14   2    7.10    4.00
   4  14   2   -1.00    2.80
  -4  14  -2    0.60    3.00
  -4  14  -2    5.30    3.70
   4  14   2    7.30    3.20
   4  14   2    5.00    3.40
   5 -14   2   66.39    8.20
   5 -14   2   78.79    7.40
   5 -14   2   63.79    7.40
  -5 -14  -2   72.99    7.30
  -5  14  -2   83.39    8.60
   5  14   2   72.09    8.70
   5  14   2   80.39    7.60
  -5 -15   2    3.10    3.40
   5 -15  -2   -2.30    3.70
   5 -15  -2    0.70    3.70
   5  15  -2    4.50    3.80
  -5  15   2    1.60    4.50
  -4 -15   2    0.40    2.90
   4 -15  -2   -5.20    3.30
   4 -15  -2    2.70    3.40
   4 -15  -2   -0.10    4.30
   4 -15  -2   -1.00    3.00
  -4 -15   2   -1.90    3.20
  -4 -15   2   -3.60    2.40
  -4  15   2    1.50    3.60
  -4  15   2   -0.90    3.40
  -4  15   2   -7.80    3.40
   4  15  -2    4.60    3.70
  -4  15   2   -3.10    4.00
   4  15  -2    1.20    3.50
  -3 -15   2   21.00    3.80
   3 -15  -2   19.90    4.60
   3 -15  -2    9.80    4.20
   3 -15  -2   19.90    4.10
   3 -15  -2   17.00    3.20
  -3 -15   2   24.00    3.90
  -3 -15   2   13.50    4.70
   3 -15  -2   17.50    5.30
  -3  15   2   18.60    4.20
  -3  15   2   16.70    4.50
  -3  15   2   19.80    5.00
   3  15  -2   17.40    4.80
  -3  15   2   24.40    4.20
   3  15  -2   21.60    4.00
   3  15  -2   14.40    4.20
  -3  15   2   12.40    4.40
   3  15  -2   14.10    2.30
  -2 -15   2   38.50    4.20
   2 -15  -2   37.80    5.50
  -2 -15   2   38.00    5.80
   2 -15  -2   29.20    5.60
  -2 -15   2   34.80    4.60
   2 -15  -2   40.40    5.20
   2 -15  -2   32.70    4.10
   2  15  -2   23.80    4.90
   2  15  -2   28.20    4.80
  -2  15   2   41.70    5.40
  -2  15   2   41.80    5.40
  -2  15   2   28.60    5.70
   2  15  -2   38.20    3.40
  -2  15   2   27.30    4.80
   2  15  -2   24.70    4.50
  -2  15   2   33.30    5.00
  -1 -15   2   -1.10    2.20
   1 -15  -2    1.00    2.70
   1 -15  -2   -1.30    2.00
   1 -15  -2   -1.90    2.80
  -1 -15   2    1.00    3.20
   1 -15  -2    2.30    2.30
  -1 -15   2    2.20    2.70
   1 -15  -2   -1.40    2.60
   1 -15  -2    1.80    3.40
   1  15  -2   -0.80    2.00
  -1  15   2    1.90    3.50
   1  15  -2   -2.50    2.50
  -1  15   2    2.50    3.00
  -1  15   2   -1.10    2.60
   1  15  -2   -0.80    2.20
   1  15  -2    5.90    3.30
  -1  15   2   -3.30    2.80
  -1  15   2   -2.50    2.50
   1  15  -2    2.40    2.00
   0 -15  -2   25.20    3.60
   0 -15   2   31.20    3.80
   0 -15  -2   26.40    4.20
   0 -15  -2   19.00    3.60
   0 -15   2   23.60    3.90
   0 -15   2   27.90    4.80
   0 -15  -2   25.90    4.70
   0 -15  -2   24.50    3.50
   0 -15  -2   26.40    3.50
   0  15   2   33.20    4.60
   0  15  -2   29.30    3.90
   0  15   2   29.30    4.60
   0  15   2   31.80    4.40
   0  15   2   20.60    4.60
   0  15  -2   23.90    4.50
   0  15   2   22.10    3.50
   0  15  -2   26.40    4.70
   0  15  -2   26.00    3.50
   1 -15   2   29.80    5.00
  -1 -15  -2   26.80    4.80
  -1 -15  -2   28.00    4.20
   1 -15   2   23.80    3.10
  -1 -15  -2   23.50    3.20
   1 -15   2   29.10    4.40
  -1 -15  -2   26.60    3.70
  -1  15  -2   18.60    3.90
  -1  15  -2   27.70    3.80
   1  15   2   21.40    4.50
   1  15   2   29.20    4.20
  -1  15  -2   23.80    4.50
  -1  15  -2   16.20    3.40
  -1  15  -2   20.80    4.50
   1  15   2   32.20    4.80
   1  15   2   25.80    4.70
   1  15   2   23.90    4.40
  -2 -15  -2    4.10    2.30
  -2 -15  -2    5.50    3.00
   2 -15   2    5.60    3.20
  -2 -15  -2    7.30    3.90
   2 -15   2    5.60    3.80
   2  15   2    1.50    3.00
  -2  15  -2   -1.70    3.20
  -2  15  -2    2.50    2.80
   2  15   2    1.00    3.20
   2  15   2    0.70    2.70
  -2  15  -2   -2.80    3.30
  -2  15  -2    3.60    2.90
   2  15   2    7.40    3.30
  -2  15  -2    3.10    3.20
   2  15   2    0.10    3.20
   3 -15   2    5.70    3.20
  -3 -15  -2    6.00    2.70
  -3 -15  -2    3.00    2.70
   3 -15   2    4.40    3.80
  -3 -15  -2    2.80    4.00
   3  15   2   -1.00    2.80
  -3  15  -2   -1.80    3.00
   3  15   2    4.30    3.80
  -3  15  -2    3.10    3.60
   3  15   2    5.70    3.20
  -3  15  -2    2.50    2.80
  -3  15  -2   -1.40    3.50
   3  15   2    4.70    3.40
   3  15   2    0.30    3.10
  -4 -15  -2    7.10    3.40
  -4 -15  -2   17.00    4.70
   4 -15   2   13.50    3.70
  -4 -15  -2   15.00    3.80
   4 -15   2   14.90    4.80
  -4  15  -2    6.30    3.70
   4  15   2   15.60    4.00
   4  15   2    4.50    4.30
   4  15   2    9.10    3.80
   4  15   2   16.40    3.90
  -4  15  -2   12.50    4.90
  -4  15  -2   13.40    4.70
  -4  15  -2   17.00    4.40
  -5 -15  -2   10.40    4.10
   5  15   2   10.20    3.90
  -5  15  -2    5.50    4.10
   4 -16  -2   36.30    5.70
   4 -16  -2   34.40    5.90
   4 -16  -2   47.20    7.90
  -4 -16   2   41.30    5.30
  -4 -16   2   35.80    5.20
   4 -16  -2   36.30    6.40
  -4 -16   2   39.10    6.60
   4  16  -2   39.80    7.20
  -4  16   2   40.70    6.50
   4  16  -2   27.00    5.40
  -4  16   2   37.40    6.60
  -4  16   2   52.19    7.00
  -4  16   2   41.30    6.60
  -3 -16   2   13.60    3.40
   3 -16  -2    8.60    4.50
   3 -16  -2   16.10    4.20
  -3 -16   2    2.30    4.10
   3 -16  -2    9.80    4.30
  -3 -16   2   15.80    3.80
   3 -16  -2    9.40    4.80
   3 -16  -2    8.30    3.00
  -3  16   2    7.10    3.50
   3  16  -2    5.20    4.10
   3  16  -2    7.80    3.60
  -3  16   2    7.60    4.10
  -3  16   2    9.00    4.10
  -3  16   2    6.70    4.30
   3  16  -2    2.00    3.40
  -3  16   2   12.10    4.60
   2 -16  -2    4.60    3.70
   2 -16  -2    4.30    3.10
   2 -16  -2    4.00    4.00
  -2 -16   2    6.40    3.10
  -2 -16   2    9.70    3.90
   2 -16  -2   10.90    3.60
   2 -16  -2    8.10    2.70
  -2  16   2    7.50    4.20
   2  16  -2    5.80    3.40
  -2  16   2   11.30    3.70
   2  16  -2    8.20    3.80
  -2  16   2    1.60    3.40
  -2  16   2    6.80    3.40
  -2  16   2    3.60    3.80
   2  16  -2    7.80    4.00
   2  16  -2    7.30    2.10
   1 -16  -2   56.19    5.40
  -1 -16   2   54.79    5.30
   1 -16  -2   47.00    4.90
   1 -16  -2   48.80    6.50
   1 -16  -2   49.40    5.90
  -1 -16   2   46.80    6.50
  -1 -16   2   40.10    5.40
   1 -16  -2   45.90    4.90
   1  16  -2   42.40    5.90
   1  16  -2   44.30    6.40
  -1  16   2   49.60    6.80
   1  16  -2   42.40    4.20
  -1  16   2   44.60    5.40
   1  16  -2   42.50    5.70
  -1  16   2   50.19    5.90
  -1  16   2   51.29    5.40
  -1  16   2   46.50    5.90
   0 -16   2   31.10    4.00
   0 -16   2   34.80    5.40
   0 -16   2   33.10    4.80
   0 -16  -2   43.20    4.90
   0 -16  -2   44.40    4.40
   0 -16  -2   36.60    4.20
   0  16   2   31.80    3.90
   0  16  -2   42.00    4.30
   0  16  -2   33.00    5.20
   0  16   2   35.80    5.20
   0  16   2   36.40    5.10
   0  16   2   33.40    5.50
   0  16  -2   36.60    4.50
   0  16   2   32.70    4.70
   0  16  -2   34.60    5.40
   0  16  -2   35.60    4.10
  -1 -16  -2    0.30    2.30
  -1 -16  -2    0.60    3.30
   1 -16   2    3.80    3.50
   1 -16   2    1.20    2.80
  -1 -16  -2   -1.00    2.60
  -1  16  -2   -1.40    2.40
  -1  16  -2    1.90    3.20
  -1  16  -2    5.30    2.80
   1  16   2   -3.90    2.80
   1  16   2   -1.10    2.60
   1  16   2    0.00    2.80
   1  16   2    0.00    3.20
  -1  16  -2    2.90    3.20
   1  16   2   -2.90    3.20
  -1  16  -2   -3.80    2.90
   2 -16   2   94.29    8.50
  -2 -16  -2   82.29    8.90
   2 -16   2   86.19    7.50
  -2 -16  -2   86.49    7.20
  -2  16  -2   81.69    7.20
  -2  16  -2   92.99    8.50
   2  16   2   87.09    8.00
  -2  16  -2   86.79    8.60
   2  16   2   97.09    9.00
  -2  16  -2   78.09    7.60
   2  16   2   97.59    8.60
   2  16   2   89.49    7.60
  -2  16  -2   95.59    7.40
  -3 -16  -2   32.30    6.00
  -3 -16  -2   17.70    3.80
   3 -16   2   30.60    5.70
   3 -16   2   22.40    4.40
  -3  16  -2   19.50    5.00
  -3  16  -2   37.00    5.10
  -3  16  -2   27.50    4.60
   3  16   2   24.70    4.80
   3  16   2   30.20    5.00
  -3  16  -2   21.40    5.10
   3  16   2   31.90    4.90
  -3  16  -2   17.30    4.70
   3  16   2   32.30    5.90
   3  16   2   22.70    4.20
  -4 -16  -2    7.90    3.30
   4 -16   2    2.70    3.30
   4 -16   2    4.90    4.20
  -4 -16  -2   -5.00    3.70
   4  16   2    4.90    3.60
   4  16   2    3.20    3.60
   4  16   2    2.00    3.20
  -4  16  -2   -2.70    3.60
  -4  16  -2    0.30    3.60
   4 -17  -2   -1.90    3.50
   4 -17  -2    1.50    4.20
  -4  17   2   -3.70    4.30
   3 -17  -2  112.49    9.20
   3 -17  -2  101.79   10.20
  -3 -17   2   80.29    7.80
   3 -17  -2  109.39    9.60
  -3 -17   2   97.39    9.90
  -3  17   2   92.89    8.60
  -3  17   2   89.29    8.60
  -3  17   2   90.09    9.70
  -3  17   2   83.59    8.40
   3  17  -2   86.79    8.80
   3  17  -2   89.29    8.50
   3  17  -2   80.39    9.40
  -3  17   2  101.79    9.40
   2 -17  -2  101.89    7.80
   2 -17  -2   96.89    9.00
   2 -17  -2   83.89    6.90
   2 -17  -2   84.69    7.30
   2 -17  -2   97.49    9.70
  -2 -17   2   90.99    7.40
  -2 -17   2   90.69    9.20
  -2  17   2   87.89    8.30
   2  17  -2   93.09    8.60
  -2  17   2  103.29    8.40
   2  17  -2  101.59    8.60
   2  17  -2   85.59    9.00
  -2  17   2   99.99    9.90
  -2  17   2   94.99    8.70
  -2  17   2  110.09    8.50
   2  17  -2   88.19    6.90
  -1 -17   2   12.90    4.40
   1 -17  -2   10.50    3.10
   1 -17  -2   14.80    3.60
   1 -17  -2   11.30    3.10
  -1 -17   2   15.50    3.40
   1 -17  -2   18.30    4.80
  -1 -17   2    7.30    3.40
   1  17  -2   16.40    4.30
  -1  17   2   18.40    4.20
   1  17  -2   13.60    4.10
   1  17  -2   13.30    2.80
  -1  17   2   13.00    4.90
  -1  17   2   17.70    4.00
  -1  17   2   16.20    4.30
   0 -17  -2  104.79    8.90
   0 -17  -2   86.39    7.30
   0 -17   2   85.89    7.60
   0 -17   2   85.19    8.80
   0 -17   2   96.19    6.90
   0  17  -2   89.59    8.80
   0  17  -2   91.69    7.40
   0  17  -2   87.29    6.60
   0  17   2  100.29    7.90
   0  17   2  109.09    9.80
   0  17  -2   95.19    9.00
   0  17   2   98.69    7.80
   0  17   2   99.49    8.70
  -1 -17  -2  146.89   11.00
   1 -17   2  138.99   10.10
   1 -17   2  155.68   11.30
  -1 -17  -2  151.38   10.00
   1  17   2  163.88   10.50
  -1  17  -2  163.68    9.80
  -1  17  -2  135.49    9.50
   1  17   2  169.58   11.80
   1  17   2  172.18   10.80
   1  17   2  161.48   10.10
   1  17   2  181.48   11.60
  -1  17  -2  161.68   10.50
  -1  17  -2  157.38   11.30
  -1  17  -2  148.99   11.50
   2 -17   2   25.20    5.50
  -2 -17  -2   36.70    4.80
   2 -17   2   33.60    5.00
  -2 -17  -2   36.00    6.10
   2  17   2   23.40    5.30
   2  17   2   32.70    4.90
  -2  17  -2   44.30    5.50
   2  17   2   35.40    5.60
  -2  17  -2   30.30    5.50
  -2  17  -2   32.60    5.40
   2  17   2   26.00    4.80
   2  17   2   36.60    5.80
  -2  17  -2   33.50    4.90
  -2  17  -2   31.70    5.60
  -3 -17  -2   55.39    6.00
  -3 -17  -2   52.99    7.70
   3 -17   2   44.40    6.10
   3 -17   2   61.99    8.10
   3  17   2   58.69    6.80
  -3  17  -2   60.69    7.70
  -3  17  -2   68.49    7.80
   3  17   2   60.39    6.50
  -3  17  -2   60.59    6.90
  -3  17  -2   63.59    7.60
   3  17   2   61.19    7.70
   3  17   2   63.69    6.70
   3  17   2   67.99    7.20
  -3  17  -2   44.40    6.00
  -4 -17  -2   73.39    8.50
   4  17   2   71.79    7.50
   3 -18  -2   14.90    4.60
  -3 -18   2   18.70    4.60
   3 -18  -2   14.00    4.80
   3  18  -2    3.10    7.60
  -3  18   2   14.60    5.00
   2 -18  -2   10.40    4.30
  -2 -18   2   14.40    3.60
  -2 -18   2    3.90    3.80
   2 -18  -2    5.30    3.20
   2 -18  -2    8.10    3.30
   2 -18  -2   10.50    4.20
   2 -18  -2   12.20    5.10
   2  18  -2    6.90    4.40
  -2  18   2    9.50    4.10
  -2  18   2    6.10    4.00
  -2  18   2   14.90    4.40
  -2  18   2    1.20    4.70
   2  18  -2    8.50    3.90
   2  18  -2   10.90    4.40
  -2  18   2    5.40    3.70
   1 -18  -2   48.00    6.70
  -1 -18   2   44.10    5.40
   1 -18  -2   38.00    5.10
  -1 -18   2   37.20    6.00
   1 -18  -2   39.50    4.70
  -1 -18   2   30.10    5.10
   1  18  -2   45.80    4.40
  -1  18   2   45.40    5.50
  -1  18   2   40.50    6.10
  -1  18   2   40.40    5.60
  -1  18   2   46.10    7.00
   1  18  -2   41.40    6.10
   1  18  -2   35.30    5.90
   0 -18  -2   51.39    7.00
   0 -18   2   45.30    5.00
   0 -18  -2   45.60    5.50
   0 -18   2   40.20    5.60
   0 -18   2   44.60    6.50
   0  18  -2   36.20    4.40
   0  18  -2   36.50    5.90
   0  18  -2   32.90    5.90
   0  18   2   32.10    6.20
   0  18   2   43.10    6.40
   0  18   2   42.70    5.80
   0  18   2   40.10    5.50
   0  18  -2   35.70    6.10
  -1 -18  -2    0.20    3.60
   1 -18   2    1.50    3.30
  -1 -18  -2    3.00    3.00
   1 -18   2   -0.80    3.00
   1  18   2   -4.40    3.80
   1  18   2   -1.10    3.00
   1  18   2   -3.00    3.50
  -1  18  -2   -0.40    3.20
  -1  18  -2    0.10    3.70
   1  18   2   -1.50    2.80
   1  18   2   -0.70    3.00
  -1  18  -2   -4.00    3.20
  -1  18  -2    3.50    3.80
  -1  18  -2    1.60    2.90
   2 -18   2   59.79    6.50
  -2 -18  -2   45.70    5.80
  -2 -18  -2   47.40    7.10
  -2  18  -2   54.99    7.20
   2  18   2   60.79    7.20
  -2  18  -2   41.20    6.30
   2  18   2   57.59    6.70
   2  18   2   59.89    7.00
   2  18   2   54.49    6.10
  -2  18  -2   62.99    6.60
  -2  18  -2   59.29    7.70
   2  18   2   49.20    7.10
  -2  18  -2   52.69    6.10
  -3 -18  -2   30.30    6.40
   3 -18   2   29.00    7.20
   3  18   2   32.50    5.60
   3  18   2   25.60    4.80
  -3  18  -2   27.10    5.40
  -2 -19   2   -0.30    2.90
  -2  19   2    1.50    3.90
  -2  19   2   -0.80    3.60
   2  19  -2   -5.90    3.60
  -2  19   2    1.70    3.80
  -1 -19   2    1.80    4.40
  -1 -19   2    0.40    3.20
  -1 -19   2   -2.10    2.60
   1 -19  -2    1.30    2.90
   1 -19  -2   -0.20    3.70
   1 -19  -2    2.90    3.00
   1  19  -2   -1.40    3.70
  -1  19   2    2.50    3.70
  -1  19   2    1.80    3.40
   1  19  -2   -2.60    6.20
  -1  19   2   -2.10    3.40
  -1  19   2   -1.00    5.10
   0 -19   2    1.60    3.70
   0 -19  -2    1.70    3.10
   0 -19   2   -0.20    3.10
   0 -19  -2    0.70    3.50
   0  19  -2    0.10    3.90
   0  19   2   -2.30    4.00
   0  19   2    8.70    3.70
   0  19   2    3.20    3.20
   0  19   2    0.90    4.00
   0  19  -2    0.80    3.50
   0  19  -2    0.10    2.40
   1 -19   2    1.60    3.50
   1 -19   2    2.90    4.80
  -1 -19  -2    1.90    3.80
  -1 -19  -2   -2.10    2.80
  -1  19  -2    9.20    5.30
   1  19   2    3.10    3.30
   1  19   2   -0.30    4.30
   1  19   2    1.00    4.00
   1  19   2   -0.60    3.30
  -1  19  -2   -0.90    3.00
   1  19   2    4.30    3.60
  -1  19  -2   -3.30    3.60
  -2 -19  -2   -3.20    3.70
  -2  19  -2   -5.10    3.20
  -2  19  -2    3.90    3.30
  -2  19  -2    0.30    4.40
   2  19   2   -2.10    3.80
   2  19   2   -3.80    2.90
  -1 -20   2   30.30    4.70
   1 -20  -2   33.40    5.20
  -1  20   2   32.40    6.50
  -1  20   2   41.20    9.80
   0 -20  -2   18.70    4.40
   0  20   2   14.50    4.20
   0  20  -2   19.80    3.60
   1  20   2    2.10    3.40
   7   0  -3    2.70    3.50
  -7   0   3    4.60    4.10
   7   0  -3   -2.00    2.70
  -7   0   3   -1.00    2.90
   7   0  -3   -1.50    2.70
   7   0  -3   -2.40    3.30
   7   0  -3    3.30    3.00
   6   0  -3    4.70    2.90
   6   0  -3   -1.70    2.30
  -6   0   3   -1.30    2.00
   6   0  -3   -1.10    2.80
  -6   0   3   -1.20    3.10
   6   0  -3    0.60    2.60
   6   0  -3   -4.20    2.80
  -6   0   3    0.10    2.40
   5   0  -3    1.90    2.10
   5   0  -3    1.10    2.40
   5   0  -3    3.50    2.30
   5   0  -3    1.00    1.50
  -5   0   3   -1.30    2.00
  -5   0   3    0.20    1.80
   5   0  -3   -2.90    2.50
   5   0  -3   -2.10    2.30
  -5   0   3    5.30    2.40
  -5   0   3    0.50    2.20
  -5   0   3    1.80    2.90
   4   0  -3    2.00    1.80
  -4   0   3    6.10    2.10
   4   0  -3    1.60    2.00
  -4   0   3    3.00    1.60
   4   0  -3   -2.10    2.10
   4   0  -3   -0.70    1.40
  -4   0   3    5.20    2.10
   4   0  -3    1.90    1.70
   4   0  -3    5.60    2.10
  -4   0   3    0.90    2.30
  -4   0   3    1.50    1.70
  -3   0   3   -1.50    1.30
  -3   0   3   -0.70    1.20
   3   0  -3    1.50    1.60
   3   0  -3    0.40    1.20
   3   0  -3    0.40    1.70
  -3   0   3    1.00    1.30
  -3   0   3    0.70    1.00
   3   0  -3    2.40    1.30
   3   0  -3   -0.70    1.00
  -3   0   3    2.00    2.00
   3   0  -3    0.60    1.20
   3   0  -3    0.80    1.50
   2   0  -3   -1.70    1.50
   2   0  -3    1.10    1.00
   2   0  -3    0.20    1.20
  -2   0   3    0.80    0.80
  -2   0   3    0.70    1.00
   2   0  -3   -1.80    1.10
   2   0  -3    1.30    1.20
  -2   0   3   -1.30    0.80
   2   0  -3    0.50    0.90
  -2   0   3   -0.40    1.30
   2   0  -3   -0.20    1.00
   2   0  -3    0.50    1.10
  -2   0   3   -0.20    1.00
  -2   0   3    0.80    1.70
   2   0  -3    3.90    1.60
  -2   0   3   -0.30    1.00
  -1   0   3   -1.20    1.20
   1   0  -3   -0.60    1.00
  -1   0   3   -2.70    1.10
   1   0  -3    2.20    1.30
  -1   0   3    0.10    0.90
  -1   0   3    1.10    1.30
   1   0  -3    0.90    1.20
   1   0  -3   -2.00    1.20
   1   0  -3   -1.30    0.80
  -1   0   3    0.80    1.60
   1   0  -3   -2.30    0.70
   1   0  -3    4.00    1.10
  -1   0   3   -1.00    1.10
  -1   0   3   -0.20    0.70
  -1   0   3    0.30    0.70
  -1   0   3   -0.40    1.00
   1   0  -3    0.10    1.50
   1   0  -3    2.00    1.20
   1   0  -3    1.40    1.30
   1   0  -3   -2.00    1.10
   0   0   3    0.80    1.20
   0   0   3    3.20    2.30
   0   0   3    1.20    1.20
   0   0   3    1.00    1.30
   0   0  -3    1.50    0.80
   0   0   3    1.40    1.60
   0   0  -3    2.70    1.40
   0   0   3    1.40    1.30
   0   0  -3   -0.50    1.10
   0   0   3   -0.20    1.00
   0   0  -3    0.40    1.30
   0   0   3   -0.50    1.10
   0   0  -3    0.70    1.20
   0   0   3   -0.90    0.90
   0   0  -3    1.20    0.90
   0   0  -3    1.90    1.10
   0   0   3    1.10    1.00
   0   0  -3   -0.90    1.20
   0   0  -3   -0.80    1.80
   0   0  -3    1.80    1.50
   0   0  -3   -2.20    1.40
  -1   0  -3    2.20    1.30
  -1   0  -3   -0.40    1.00
  -1   0  -3    2.10    1.50
   1   0   3   -1.10    1.20
  -1   0  -3   -0.20    1.20
  -1   0  -3    0.00    1.70
  -1   0  -3    1.30    1.40
   1   0   3    0.90    1.60
  -1   0  -3   -0.40    1.20
   1   0   3    1.40    1.40
   1   0   3    0.60    1.30
   1   0   3   -0.90    1.00
   1   0   3    0.60    1.20
   1   0   3    1.60    1.40
   2   0   3    2.10    1.50
  -2   0  -3    0.00    1.30
   2   0   3   -1.00    1.70
  -2   0  -3    2.20    1.70
  -2   0  -3    0.40    1.30
  -2   0  -3    0.80    1.60
   2   0   3    0.70    1.40
   2   0   3    0.60    1.40
  -2   0  -3    2.40    2.00
   2   0   3    1.70    1.50
  -3   0  -3    2.30    1.60
   3   0   3    2.50    1.70
  -3   0  -3    0.60    1.80
   3   0   3   -1.00    2.00
   3   0   3    1.30    1.10
  -3   0  -3   -0.80    2.20
  -3   0  -3    0.70    1.70
   3   0   3    2.00    1.70
  -3   0  -3   -1.80    1.70
  -3   0  -3    1.50    1.10
   3   0   3   -1.10    1.70
   3   0   3   -1.80    1.40
  -4   0  -3    1.40    1.80
  -4   0  -3    3.40    1.30
  -4   0  -3    0.60    2.10
   4   0   3   -1.00    1.40
   4   0   3    2.50    2.20
   4   0   3   -2.20    1.60
   4   0   3   -1.30    2.20
   4   0   3   -2.70    2.00
  -4   0  -3    0.00    2.60
  -4   0  -3    1.90    2.00
   4   0   3    0.60    2.10
   5   0   3    1.50    2.80
  -5   0  -3   -3.80    3.10
  -5   0  -3    3.20    2.20
   5   0   3    1.10    2.10
   5   0   3    2.00    2.70
  -5   0  -3    2.00    2.60
  -5   0  -3   -0.60    2.30
   5   0   3    0.10    1.90
   5   0   3    5.00    2.60
   5   0   3    1.50    2.60
   6   0   3   -6.10    2.80
  -6   0  -3   -1.90    3.70
   6   0   3   -4.80    2.70
  -6   0  -3   -2.80    2.90
   6   0   3    0.50    2.60
  -6   0  -3    6.10    3.30
   6   0   3   -0.50    2.90
  -6   0  -3   -0.90    2.90
   7   0   3   -1.60    3.20
  -7   0  -3    1.40    3.40
  -7   0  -3    0.00    3.10
   7  -1  -3   84.19    7.70
   7  -1  -3   84.49    7.60
   7  -1  -3   81.09    8.30
   7  -1  -3   83.29    7.60
   7  -1  -3   82.49    8.20
  -7  -1   3   88.29    8.30
  -7  -1   3   82.19    8.80
   7   1  -3   79.79    7.60
   7   1  -3   84.49    7.50
  -7   1   3   90.69    9.30
   7   1  -3   78.79    8.30
   7   1  -3   87.59    8.20
  -7   1   3   88.49    7.50
  -7   1   3   85.29    7.60
   7   1  -3   93.19    8.50
   6  -1  -3    1.80    2.80
   6  -1  -3    6.20    2.80
  -6  -1   3    2.60    2.70
   6  -1  -3    3.80    3.20
  -6  -1   3    2.40    3.40
   6  -1  -3   -3.90    2.70
   6  -1  -3    3.50    2.70
  -6   1   3    0.30    3.40
  -6   1   3   -0.70    2.50
  -6   1   3   -4.90    2.40
   6   1  -3    0.40    2.50
   6   1  -3    2.10    2.60
   6   1  -3   -0.50    2.80
  -6   1   3    2.00    2.50
   6   1  -3    0.40    3.20
   6   1  -3    3.90    3.10
  -5  -1   3  372.86   17.90
   5  -1  -3  354.26   18.40
  -5  -1   3  377.66   17.40
   5  -1  -3  372.76   18.40
   5  -1  -3  367.56   18.10
   5  -1  -3  374.26   18.90
  -5  -1   3  355.86   18.90
   5  -1  -3  376.16   18.10
  -5  -1   3  368.36   18.40
  -5   1   3  400.86   18.20
   5   1  -3  367.06   18.80
   5   1  -3  365.16   18.40
  -5   1   3  362.16   18.20
   5   1  -3  370.46   17.90
  -5   1   3  373.06   18.10
   5   1  -3  341.07   17.00
  -5   1   3  368.36   19.00
  -5   1   3  387.16   17.80
   5   1  -3  380.56   17.90
  -4  -1   3  695.03   32.60
   4  -1  -3  741.33   33.70
  -4  -1   3  724.63   32.80
   4  -1  -3  756.62   33.40
   4  -1  -3  732.73   34.00
   4  -1  -3  744.93   33.40
  -4  -1   3  780.92   33.30
  -4  -1   3  726.43   34.10
   4  -1  -3  705.33   33.60
  -4  -1   3  711.63   33.60
   4   1  -3  732.83   33.90
  -4   1   3  754.12   33.50
   4   1  -3  750.32   33.70
  -4   1   3  743.73   33.60
  -4   1   3  780.02   33.50
  -4   1   3  758.52   33.10
   4   1  -3  772.82   33.20
   4   1  -3  733.53   33.00
   4   1  -3  737.53   33.20
  -4   1   3  725.23   34.20
   4   1  -3  706.53   32.60
   4   1  -3  729.03   34.00
   3  -1  -3    1.70    1.70
  -3  -1   3    0.50    1.50
  -3  -1   3    3.90    1.20
   3  -1  -3    2.30    1.60
  -3  -1   3    1.80    1.30
   3  -1  -3    4.00    1.50
  -3  -1   3    2.80    0.90
   3  -1  -3   -0.40    1.20
   3  -1  -3    3.70    1.50
   3  -1  -3    3.10    1.40
  -3  -1   3    3.80    1.10
  -3  -1   3    2.30    2.00
   3  -1  -3    1.10    1.80
   3   1  -3    4.60    1.30
   3   1  -3    0.20    1.00
  -3   1   3    1.60    1.20
   3   1  -3    0.50    1.20
  -3   1   3    1.10    2.10
   3   1  -3    3.00    1.70
  -3   1   3    5.50    2.00
   3   1  -3   -1.90    1.40
  -3   1   3    1.90    1.50
  -3   1   3    1.30    1.50
   3   1  -3    1.60    1.10
  -3   1   3    6.70    1.60
   3   1  -3    1.10    1.30
   3   1  -3   -0.80    1.80
   2  -1  -3 1380.76   58.79
   2  -1  -3 1418.06   59.19
  -2  -1   3 1289.27   58.59
  -2  -1   3 1425.96   59.19
   2  -1  -3 1358.66   58.79
  -2  -1   3 1256.07   58.79
   2  -1  -3 1377.46   59.19
   2  -1  -3 1398.26   58.89
  -2  -1   3 1327.97   58.49
  -2  -1   3 1353.46   59.29
   2  -1  -3 1249.28   58.89
   2  -1  -3 1371.66   58.79
  -2   1   3 1359.36   58.79
   2   1  -3 1324.77   58.49
   2   1  -3 1317.27   58.79
  -2   1   3 1258.07   58.79
  -2   1   3 1335.27   58.39
   2   1  -3 1317.07   58.59
   2   1  -3 1388.46   58.69
  -2   1   3 1414.36   59.09
  -2   1   3 1342.47   59.29
   2   1  -3 1386.56   59.19
  -2   1   3 1289.17   58.69
   2   1  -3 1382.86   59.19
  -2   1   3 1333.87   58.69
   2   1  -3 1405.16   58.59
  -2   1   3 1320.57   58.59
   2   1  -3 1303.07   58.59
   2   1  -3 1361.56   58.49
   2   1  -3 1303.37   58.79
   1  -1  -3 1275.97   56.79
   1  -1  -3 1270.27   56.69
   1  -1  -3 1395.36   57.09
  -1  -1   3 1186.78   56.59
   1  -1  -3 1343.67   56.99
   1  -1  -3 1358.76   57.19
  -1  -1   3 1383.26   56.69
  -1  -1   3 1370.46   57.29
  -1  -1   3 1303.47   57.19
   1  -1  -3 1355.66   57.09
  -1  -1   3 1379.66   57.09
   1  -1  -3 1311.27   56.49
  -1  -1   3 1352.76   56.89
   1  -1  -3 1310.47   56.79
   1  -1  -3 1314.07   56.39
  -1  -1   3 1245.18   56.59
   1  -1  -3 1242.78   56.79
   1  -1  -3 1275.87   57.09
  -1  -1   3 1240.98   56.59
  -1   1   3 1336.57   56.69
  -1   1   3 1189.98   56.39
   1   1  -3 1274.97   56.49
   1   1  -3 1264.17   56.49
   1   1  -3 1288.67   56.99
  -1   1   3 1242.58   56.99
  -1   1   3 1384.66   56.39
   1   1  -3 1327.57   56.89
   1   1  -3 1324.47   56.99
  -1   1   3 1303.37   56.59
   1   1  -3 1201.98   56.59
   1   1  -3 1305.57   56.69
  -1   1   3 1329.57   57.09
  -1   1   3 1263.07   56.89
  -1   1   3 1235.68   56.59
  -1   1   3 1369.86   56.99
   1   1  -3 1255.47   56.49
  -1   1   3 1289.27   56.89
   1   1  -3 1367.96   56.59
   1   1  -3 1252.27   56.49
   1   1  -3 1273.67   56.89
   1   1  -3 1344.67   56.89
   0  -1  -3  292.27   13.30
   0  -1   3  278.57   12.80
   0  -1  -3  301.37   14.10
   0  -1   3  264.07   12.90
   0  -1   3  289.67   13.50
   0  -1   3  262.87   14.20
   0  -1  -3  289.47   13.20
   0  -1  -3  274.17   13.00
   0  -1   3  280.97   12.80
   0  -1  -3  270.27   12.90
   0  -1   3  288.47   12.70
   0  -1  -3  311.47   13.10
   0  -1  -3  294.87   13.50
   0  -1  -3  310.77   13.10
   0  -1   3  278.37   13.00
   0  -1   3  283.47   12.70
   0  -1  -3  296.17   13.40
   0  -1   3  259.57   12.80
   0  -1   3  297.17   13.10
   0   1  -3  271.37   13.00
   0   1   3  293.57   13.40
   0   1   3  288.97   13.30
   0   1  -3  248.28   12.60
   0   1   3  298.27   14.20
   0   1   3  264.87   13.10
   0   1  -3  279.57   13.40
   0   1   3  294.27   13.40
   0   1   3  290.87   13.00
   0   1   3  297.67   13.40
   0   1  -3  285.67   13.10
   0   1  -3  297.77   12.60
   0   1  -3  291.67   12.80
   0   1   3  275.37   13.10
   0   1  -3  256.57   12.90
   0   1  -3  264.37   13.00
   0   1   3  300.27   13.10
   0   1   3  300.37   13.00
   0   1  -3  269.47   12.70
   0   1  -3  288.97   13.00
   0   1  -3  271.57   12.80
   1  -1   3 1138.89   48.90
   1  -1   3 1157.28   48.80
  -1  -1  -3 1091.89   49.00
  -1  -1  -3 1133.29   49.10
  -1  -1  -3 1126.49   49.70
   1  -1   3 1088.39   48.40
   1  -1   3 1132.49   49.20
   1  -1   3 1106.89   48.90
  -1  -1  -3 1086.49   49.20
   1  -1   3 1130.19   49.00
  -1  -1  -3 1118.79   49.10
  -1  -1  -3 1080.49   48.80
  -1  -1  -3 1195.68   48.70
  -1  -1  -3 1171.68   49.10
   1  -1   3 1067.59   49.00
   1  -1   3 1085.49   48.80
   1   1   3 1173.08   49.20
   1   1   3 1212.28   49.50
  -1   1  -3 1100.89   48.90
   1   1   3 1171.28   48.70
  -1   1  -3 1083.09   49.10
  -1   1  -3 1051.09   48.90
  -1   1  -3  946.81   48.90
   1   1   3 1157.78   48.70
  -1   1  -3 1091.99   48.90
  -1   1  -3 1058.99   49.70
  -1   1  -3 1107.19   48.90
   1   1   3 1111.39   49.10
  -1   1  -3 1139.69   48.70
   1   1   3 1142.99   49.00
   2  -1   3 1559.04   70.29
  -2  -1  -3 1598.94   70.59
  -2  -1  -3 1612.34   70.49
   2  -1   3 1612.74   70.39
  -2  -1  -3 1579.94   70.09
   2  -1   3 1587.14   70.69
   2  -1   3 1597.04   70.49
  -2  -1  -3 1549.24   71.09
   2  -1   3 1653.73   70.39
  -2  -1  -3 1667.43   70.59
  -2   1  -3 1604.74   70.49
  -2   1  -3 1584.74   71.19
  -2   1  -3 1441.06   70.29
   2   1   3 1632.64   70.49
  -2   1  -3 1592.84   70.29
  -2   1  -3 1588.24   70.49
   2   1   3 1627.24   70.59
   2   1   3 1682.23   70.39
   2   1   3 1720.23   69.89
   2   1   3 1658.53   70.79
  -3  -1  -3  231.78   11.10
   3  -1   3  232.68   11.80
  -3  -1  -3  251.67   12.00
   3  -1   3  235.28   12.20
  -3  -1  -3  230.18   11.90
   3  -1   3  235.78   11.00
  -3  -1  -3  236.98   12.70
  -3  -1  -3  234.78   11.30
   3  -1   3  242.28   11.50
   3  -1   3  230.38   11.70
   3  -1   3  243.98   11.90
  -3  -1  -3  245.78   11.90
   3   1   3  231.38   11.80
   3   1   3  230.08   11.70
   3   1   3  232.98   11.20
  -3   1  -3  218.68   11.80
   3   1   3  244.18   11.90
   3   1   3  251.37   12.30
   3   1   3  230.78   11.20
  -3   1  -3  246.68   11.60
  -3   1  -3  230.78   12.80
  -3   1  -3  228.38   11.60
  -3   1  -3  223.18   11.80
   4  -1   3  224.88   12.00
  -4  -1  -3  229.48   12.70
   4  -1   3  214.78   10.70
   4  -1   3  214.98   11.60
   4  -1   3  208.98   11.50
   4  -1   3  209.28   11.40
  -4  -1  -3  219.58   10.60
  -4  -1  -3  234.68   11.70
  -4  -1  -3  219.98   10.90
  -4  -1  -3  211.68   11.60
   4  -1   3  216.68   11.00
  -4   1  -3  222.38   11.20
  -4   1  -3  209.98   11.60
   4   1   3  213.78   10.90
   4   1   3  230.58   12.00
   4   1   3  213.48   11.50
   4   1   3  219.48   11.50
  -4   1  -3  219.08   11.60
  -4   1  -3  198.48   12.40
   4   1   3  219.28   11.60
   4   1   3  218.28   11.10
   5  -1   3  417.66   21.50
  -5  -1  -3  443.56   21.70
  -5  -1  -3  447.66   20.60
  -5  -1  -3  428.26   20.20
   5  -1   3  427.26   20.60
  -5  -1  -3  456.95   21.50
   5  -1   3  465.05   21.50
   5  -1   3  423.96   21.20
  -5  -1  -3  436.96   22.80
   5  -1   3  468.25   21.90
   5  -1   3  471.15   21.70
  -5   1  -3  451.35   21.60
   5   1   3  435.56   20.70
   5   1   3  441.36   21.60
   5   1   3  437.56   21.30
  -5   1  -3  450.75   21.80
  -5   1  -3  414.26   20.80
   5   1   3  427.16   20.70
  -5   1  -3  435.26   22.90
   5   1   3  396.16   21.50
  -5   1  -3  434.56   21.70
   5   1   3  451.25   21.60
   6  -1   3   71.79    7.10
  -6  -1  -3   76.89    7.40
   6  -1   3   60.89    6.90
   6  -1   3   69.39    6.70
  -6  -1  -3   65.39    8.00
   6  -1   3   75.99    7.40
  -6  -1  -3   68.89    6.80
  -6  -1  -3   65.59    6.70
   6   1   3   69.39    6.80
  -6   1  -3   67.59    6.50
   6   1   3   83.89    6.80
  -6   1  -3   78.49    8.70
  -6   1  -3   77.69    7.40
   6   1   3   70.99    7.20
  -6   1  -3   55.29    6.60
   6   1   3   59.89    6.60
  -6   1  -3   68.29    6.90
  -7  -1  -3    9.40    4.00
   7  -1   3   15.80    4.40
  -7  -1  -3   12.50    4.40
  -7   1  -3   10.30    3.80
  -7   1  -3    8.10    3.90
   7   1   3   12.70    4.20
   7  -2  -3   53.39    6.60
  -7  -2   3   73.69    7.60
   7  -2  -3   86.19    7.80
   7  -2  -3   72.49    7.20
  -7  -2   3   65.99    7.70
   7  -2  -3   69.99    7.70
   7  -2  -3   72.79    7.10
  -7   2   3   67.39    6.90
   7   2  -3   68.49    7.90
  -7   2   3   69.19    8.40
   7   2  -3   68.69    6.50
   7   2  -3   71.99    7.70
   7   2  -3   69.59    7.50
  -7   2   3   77.59    7.10
   7   2  -3   80.09    7.20
   6  -2  -3  551.34   25.70
   6  -2  -3  511.25   25.00
   6  -2  -3  519.05   25.20
  -6  -2   3  502.65   25.80
   6  -2  -3  536.85   25.90
   6  -2  -3  520.45   25.00
  -6  -2   3  497.35   25.40
   6   2  -3  524.25   24.80
  -6   2   3  501.95   25.10
   6   2  -3  513.85   25.80
   6   2  -3  513.55   25.50
   6   2  -3  512.75   24.60
  -6   2   3  555.74   24.80
  -6   2   3  503.95   26.10
  -6   2   3  512.15   25.00
   5  -2  -3   66.19    5.60
  -5  -2   3   66.29    5.80
   5  -2  -3   61.99    5.40
   5  -2  -3   77.19    5.60
   5  -2  -3   56.89    5.90
  -5  -2   3   60.29    4.40
  -5  -2   3   69.19    6.40
   5  -2  -3   68.59    6.10
   5   2  -3   60.39    5.90
   5   2  -3   59.59    5.00
  -5   2   3   63.49    5.40
   5   2  -3   58.39    5.00
  -5   2   3   69.19    5.50
  -5   2   3   55.39    6.10
   5   2  -3   59.29    6.00
   5   2  -3   61.49    4.50
  -5   2   3   64.19    5.80
  -5   2   3   66.19    5.30
  -4  -2   3  137.19    7.50
  -4  -2   3  136.69    8.20
   4  -2  -3  142.39    8.60
   4  -2  -3  149.29    8.00
   4  -2  -3  148.09    8.30
  -4  -2   3  151.28    8.80
   4  -2  -3  142.29    7.90
   4  -2  -3  140.99    8.40
  -4  -2   3  123.69    7.10
   4  -2  -3  127.99    7.10
  -4  -2   3  140.39    7.10
  -4   2   3  145.79    8.00
   4   2  -3  145.89    7.30
   4   2  -3  147.09    8.30
  -4   2   3  148.69    8.10
  -4   2   3  121.69    7.10
  -4   2   3  152.98    7.90
   4   2  -3  149.49    7.60
  -4   2   3  144.29    8.30
   4   2  -3  143.39    7.60
  -4   2   3  151.18    9.00
   4   2  -3  143.09    8.70
   4   2  -3  142.89    7.40
   3  -2  -3 1914.61   80.49
  -3  -2   3 1896.31   80.39
   3  -2  -3 1827.62   80.19
   3  -2  -3 1853.81   80.69
   3  -2  -3 1700.53   79.89
   3  -2  -3 1794.62   80.09
  -3  -2   3 1848.81   80.49
  -3  -2   3 1806.42   80.59
  -3  -2   3 1764.62   79.59
   3  -2  -3 1872.31   80.29
  -3  -2   3 1888.81   79.89
   3  -2  -3 1846.72   80.19
  -3   2   3 1904.81   80.29
  -3   2   3 1847.32   80.79
   3   2  -3 1854.01   79.49
   3   2  -3 1808.42   80.39
  -3   2   3 1859.01   80.09
   3   2  -3 1724.63   79.59
   3   2  -3 1883.81   80.69
   3   2  -3 1819.12   79.79
  -3   2   3 1874.91   80.29
   3   2  -3 1840.92   80.59
   3   2  -3 1844.92   79.79
  -3   2   3 1715.93   79.89
   3   2  -3 1748.72   79.69
  -3   2   3 1827.42   80.29
   3   2  -3 1906.91   79.89
   2  -2  -3  779.92   34.70
   2  -2  -3  771.02   34.60
  -2  -2   3  805.32   34.40
  -2  -2   3  804.92   35.00
   2  -2  -3  727.03   34.80
   2  -2  -3  845.52   35.10
  -2  -2   3  802.92   34.30
  -2  -2   3  757.42   35.10
   2  -2  -3  834.52   34.80
   2  -2  -3  811.12   35.10
  -2  -2   3  725.43   34.70
   2  -2  -3  794.12   34.70
  -2   2   3  780.12   34.90
   2   2  -3  807.32   35.10
  -2   2   3  819.32   34.80
  -2   2   3  735.63   34.80
   2   2  -3  744.03   34.30
   2   2  -3  752.52   34.60
  -2   2   3  824.92   34.80
   2   2  -3  797.42   34.40
   2   2  -3  823.52   34.70
  -2   2   3  757.52   34.60
   2   2  -3  708.13   34.40
  -2   2   3  774.02   34.70
  -2   2   3  807.12   35.20
   2   2  -3  762.82   34.30
  -2   2   3  764.72   34.20
  -2   2   3  772.12   34.50
   2   2  -3  825.92   35.10
   2   2  -3  764.12   34.70
   2   2  -3  833.42   34.30
   2   2  -3  770.32   34.20
  -1  -2   3   59.29    4.40
   1  -2  -3   63.99    4.10
  -1  -2   3   62.69    3.80
   1  -2  -3   66.49    3.90
   1  -2  -3   56.59    3.20
   1  -2  -3   64.99    4.20
   1  -2  -3   63.19    3.20
  -1  -2   3   54.49    3.20
   1  -2  -3   62.79    4.20
  -1  -2   3   60.09    3.60
  -1  -2   3   66.09    3.90
   1  -2  -3   64.39    3.90
   1  -2  -3   61.19    3.90
  -1  -2   3   73.89    4.20
   1  -2  -3   61.99    4.00
   1  -2  -3   64.49    3.90
   1  -2  -3   61.49    3.90
  -1   2   3   57.29    4.00
   1   2  -3   53.29    3.40
   1   2  -3   60.39    3.10
   1   2  -3   63.79    3.60
  -1   2   3   59.09    4.10
   1   2  -3   55.69    3.20
  -1   2   3   56.89    3.20
   1   2  -3   69.99    3.60
   1   2  -3   68.19    4.10
   1   2  -3   65.29    3.90
   1   2  -3   58.09    3.80
  -1   2   3   60.89    4.00
   1   2  -3   61.29    3.80
   1   2  -3   52.99    4.40
  -1   2   3   58.19    3.20
  -1   2   3   57.69    3.80
  -1   2   3   60.89    3.60
  -1   2   3   64.89    4.20
   0  -2   3 4187.88  190.28
   0  -2  -3 4634.54  191.18
   0  -2  -3 4531.45  190.58
   0  -2   3 4505.85  190.58
   0  -2  -3 4363.56  190.68
   0  -2   3 4013.00  191.28
   0  -2   3 4155.68  190.18
   0  -2   3 4468.75  190.28
   0  -2   3 4319.07  190.68
   0  -2  -3 4594.64  190.28
   0  -2  -3 4405.46  190.68
   0  -2  -3 4514.35  190.38
   0  -2  -3 4377.66  190.38
   0  -2  -3 4605.24  190.38
   0  -2  -3 4624.94  190.58
   0  -2   3 4138.39  189.98
   0  -2   3 4463.35  189.98
   0  -2   3 4478.55  190.28
   0   2   3 4415.56  190.58
   0   2  -3 4425.06  190.08
   0   2  -3 4169.58  189.88
   0   2   3 4389.56  190.28
   0   2   3 4931.41  191.38
   0   2  -3 4400.16  190.28
   0   2  -3 4217.88  190.28
   0   2  -3 4624.04  190.18
   0   2   3 4754.42  190.78
   0   2  -3 4251.67  190.28
   0   2   3 4304.37  190.38
   0   2  -3 4161.38  189.88
   0   2  -3 4281.27  190.28
   0   2  -3 4177.08  189.98
   0   2   3 4501.45  190.48
   0   2  -3 4351.16  190.08
   0   2   3 4604.34  190.28
   0   2   3 4585.54  190.28
   0   2  -3 3985.70  191.18
   0   2  -3 4367.46  190.18
   0   2  -3 4166.38  190.28
  -1  -2  -3 1164.18   51.79
   1  -2   3 1195.08   51.59
   1  -2   3 1111.99   51.59
   1  -2   3 1180.28   51.79
   1  -2   3 1150.08   51.39
  -1  -2  -3 1233.68   51.79
  -1  -2  -3 1239.58   51.99
   1  -2   3 1148.39   51.59
   1  -2   3 1180.18   51.49
   1  -2   3 1093.39   51.59
  -1  -2  -3 1222.08   51.99
  -1  -2  -3 1312.97   51.49
  -1  -2  -3 1171.08   52.09
  -1  -2  -3 1209.98   52.39
   1  -2   3 1234.28   51.79
  -1   2  -3 1160.88   51.79
  -1   2  -3 1170.88   51.49
   1   2   3 1245.38   52.09
   1   2   3 1208.08   51.39
   1   2   3 1190.28   51.89
  -1   2  -3 1096.79   51.59
  -1   2  -3 1109.09   51.59
   1   2   3 1187.58   51.79
  -1   2  -3 1090.69   51.69
   1   2   3 1235.78   51.99
  -1   2  -3 1088.39   51.59
  -1   2  -3 1155.08   51.59
   1   2   3 1246.38   51.69
   2  -2   3   50.99    3.80
   2  -2   3   47.00    3.90
   2  -2   3   54.79    3.80
  -2  -2  -3   60.09    3.70
  -2  -2  -3   57.99    3.80
  -2  -2  -3   65.09    4.90
  -2  -2  -3   55.29    4.10
  -2  -2  -3   58.89    4.50
   2  -2   3   47.90    4.00
   2  -2   3   55.29    4.40
   2  -2   3   55.99    4.00
  -2  -2  -3   54.69    4.10
  -2   2  -3   58.39    4.20
   2   2   3   59.39    4.50
   2   2   3   58.19    4.10
  -2   2  -3   57.99    5.00
   2   2   3   58.09    4.20
  -2   2  -3   54.69    4.00
   2   2   3   58.99    3.30
  -2   2  -3   57.39    4.10
   2   2   3   65.99    3.90
   2   2   3   61.09    3.90
  -2   2  -3   57.59    4.10
  -3  -2  -3 1569.34   65.69
   3  -2   3 1393.56   64.59
   3  -2   3 1494.35   65.39
   3  -2   3 1544.85   65.59
   3  -2   3 1491.55   65.79
  -3  -2  -3 1480.15   65.49
  -3  -2  -3 1448.96   66.19
  -3  -2  -3 1484.25   65.49
   3  -2   3 1480.55   65.49
   3  -2   3 1499.65   65.19
  -3  -2  -3 1479.45   64.89
  -3  -2  -3 1467.15   64.99
  -3   2  -3 1356.26   65.09
  -3   2  -3 1454.65   65.49
   3   2   3 1496.25   65.59
  -3   2  -3 1470.95   65.29
  -3   2  -3 1495.35   65.59
   3   2   3 1528.05   65.49
   3   2   3 1508.05   65.89
   3   2   3 1573.44   65.09
   3   2   3 1484.25   65.49
  -3   2  -3 1438.76   66.39
  -4  -2  -3  430.16   20.10
  -4  -2  -3  432.86   19.20
   4  -2   3  426.96   19.40
  -4  -2  -3  420.86   19.20
   4  -2   3  411.16   19.10
  -4  -2  -3  386.56   20.80
  -4  -2  -3  437.86   20.10
   4  -2   3  409.26   20.10
   4  -2   3  401.26   19.90
   4  -2   3  425.96   20.30
   4  -2   3  392.66   19.90
   4   2   3  424.36   19.50
  -4   2  -3  427.76   20.10
   4   2   3  406.56   20.00
  -4   2  -3  397.66   20.00
   4   2   3  402.86   20.20
  -4   2  -3  398.66   21.10
   4   2   3  430.66   20.10
  -4   2  -3  420.06   19.70
   4   2   3  423.26   19.90
  -5  -2  -3   64.99    5.80
  -5  -2  -3   53.09    4.40
  -5  -2  -3   61.79    6.10
   5  -2   3   66.19    6.10
   5  -2   3   60.59    6.00
  -5  -2  -3   55.29    4.80
  -5  -2  -3   67.59    7.30
   5  -2   3   58.89    6.00
   5  -2   3   58.69    6.00
   5  -2   3   56.29    5.00
   5   2   3   55.09    4.90
  -5   2  -3   59.29    5.40
   5   2   3   65.09    5.70
  -5   2  -3   52.29    5.20
   5   2   3   60.49    5.00
   5   2   3   48.50    5.80
  -5   2  -3   75.59    7.90
   5   2   3   70.89    6.30
  -5   2  -3   61.39    6.40
  -5   2  -3   59.09    5.90
   5   2   3   63.09    6.00
   6  -2   3  246.98   15.30
   6  -2   3  283.57   15.40
  -6  -2  -3  275.67   16.50
  -6  -2  -3  264.87   15.40
  -6  -2  -3  310.27   15.50
   6  -2   3  265.37   15.20
  -6  -2  -3  283.87   15.10
   6  -2   3  273.97   15.00
  -6   2  -3  273.17   15.30
  -6   2  -3  258.97   15.00
  -6   2  -3  311.57   17.50
  -6   2  -3  298.07   15.40
   6   2   3  256.37   15.20
  -6   2  -3  252.57   14.50
   6   2   3  295.77   15.10
   6   2   3  256.77   15.10
   6   2   3  265.67   15.00
  -7  -2  -3  175.38   11.20
  -7  -2  -3  184.48   11.60
  -7   2  -3  138.69   10.80
  -7   2  -3  147.29   11.30
   7   2   3  174.38   11.30
   7  -3  -3   25.80    4.60
   7  -3  -3   20.30    4.50
  -7  -3   3   13.40    4.00
   7  -3  -3   17.70    4.70
   7  -3  -3   19.30    4.90
  -7  -3   3   20.60    5.00
   7  -3  -3   18.90    4.50
  -7   3   3   20.00    4.10
   7   3  -3   20.70    3.90
  -7   3   3   17.60    5.00
   7   3  -3   18.30    4.10
  -7   3   3   16.70    4.10
   7   3  -3   17.40    4.70
  -7   3   3   21.60    4.50
   7   3  -3   24.50    5.00
  -6  -3   3    5.10    3.30
   6  -3  -3    3.50    2.90
  -6  -3   3    2.50    3.00
   6  -3  -3    3.30    2.70
   6  -3  -3    4.80    3.20
   6  -3  -3    2.30    2.80
   6  -3  -3   -0.40    3.00
   6   3  -3   -0.60    2.70
   6   3  -3    2.80    2.60
   6   3  -3    4.20    3.10
  -6   3   3    5.40    2.70
  -6   3   3   -1.20    2.90
   6   3  -3    3.50    3.30
  -6   3   3   -2.00    3.20
  -6   3   3    1.70    2.80
  -6   3   3    4.20    2.80
   5  -3  -3   73.49    6.50
   5  -3  -3   62.19    5.60
  -5  -3   3   67.89    5.60
  -5  -3   3   62.29    6.30
   5  -3  -3   65.49    5.60
   5  -3  -3   60.89    5.90
  -5  -3   3   59.79    6.00
   5  -3  -3   67.29    5.70
   5   3  -3   63.39    6.40
  -5   3   3   71.49    5.60
   5   3  -3   64.19    5.10
  -5   3   3   61.59    6.60
   5   3  -3   69.49    5.30
  -5   3   3   69.19    6.00
  -5   3   3   68.79    5.70
   5   3  -3   69.49    6.00
   5   3  -3   63.59    4.70
  -5   3   3   59.19    5.50
   4  -3  -3  121.29    6.90
   4  -3  -3  104.69    7.30
   4  -3  -3  108.09    6.70
  -4  -3   3  111.59    6.90
  -4  -3   3  107.59    7.30
   4  -3  -3  110.79    6.90
   4  -3  -3  122.69    6.90
   4  -3  -3   91.99    6.60
  -4  -3   3  102.59    6.10
  -4  -3   3  102.79    6.70
  -4   3   3  107.29    7.20
  -4   3   3  117.69    6.90
   4   3  -3  112.29    6.00
   4   3  -3  116.99    6.20
  -4   3   3  100.09    6.50
   4   3  -3  112.29    6.20
   4   3  -3  108.29    6.00
  -4   3   3   95.59    6.00
   4   3  -3  109.29    7.00
   4   3  -3   99.79    7.10
  -4   3   3   99.09    6.40
  -4   3   3  105.19    7.60
   3  -3  -3    4.60    1.70
   3  -3  -3    5.60    1.70
   3  -3  -3    1.10    1.80
  -3  -3   3    2.60    1.90
  -3  -3   3    3.60    1.80
   3  -3  -3    3.40    1.70
   3  -3  -3    0.30    1.60
  -3  -3   3    6.20    2.20
  -3  -3   3    3.50    1.30
  -3  -3   3    4.10    1.30
  -3   3   3    2.10    2.10
   3   3  -3    3.30    1.30
  -3   3   3    5.00    1.60
  -3   3   3    3.50    1.70
   3   3  -3    2.50    1.30
   3   3  -3    0.10    1.80
  -3   3   3    7.70    2.00
   3   3  -3    3.30    1.70
   3   3  -3    3.90    1.40
   3   3  -3    3.40    1.20
   3   3  -3    1.90    1.10
  -3   3   3    3.20    1.50
  -3   3   3    5.40    2.30
   2  -3  -3   50.79    3.50
  -2  -3   3   59.69    3.90
   2  -3  -3   58.09    4.20
   2  -3  -3   51.29    3.50
  -2  -3   3   54.49    3.90
  -2  -3   3   50.59    4.30
  -2  -3   3   55.99    3.40
   2  -3  -3   53.29    3.70
  -2  -3   3   49.20    2.80
   2  -3  -3   54.29    3.80
   2  -3  -3   50.69    3.80
   2   3  -3   60.09    4.00
   2   3  -3   48.00    3.60
   2   3  -3   51.59    4.00
   2   3  -3   54.79    2.90
  -2   3   3   47.80    3.90
  -2   3   3   49.99    4.20
  -2   3   3   49.40    3.70
   2   3  -3   55.89    3.30
  -2   3   3   40.00    3.70
   2   3  -3   53.89    2.80
  -2   3   3   48.50    3.70
   2   3  -3   49.80    3.40
  -2   3   3   47.10    3.40
  -2   3   3   53.89    3.60
   1  -3  -3  659.73   29.10
  -1  -3   3  657.93   29.40
  -1  -3   3  659.23   29.10
   1  -3  -3  663.83   29.20
  -1  -3   3  669.53   28.80
   1  -3  -3  709.93   29.10
  -1  -3   3  639.84   29.00
   1  -3  -3  685.83   29.20
   1  -3  -3  675.03   28.50
   1  -3  -3  673.93   29.10
  -1  -3   3  675.33   28.90
  -1  -3   3  608.44   29.00
   1  -3  -3  641.44   29.10
   1  -3  -3  675.73   29.10
   1  -3  -3  630.54   28.60
  -1   3   3  652.53   29.10
  -1   3   3  596.64   28.50
   1   3  -3  663.73   29.00
  -1   3   3  634.24   28.90
   1   3  -3  624.34   29.00
  -1   3   3  678.23   29.20
   1   3  -3  591.84   28.80
  -1   3   3  615.54   29.20
   1   3  -3  632.74   28.80
   1   3  -3  583.14   29.50
   1   3  -3  688.23   28.90
   1   3  -3  645.84   28.90
  -1   3   3  639.24   28.90
  -1   3   3  689.23   28.60
   0  -3  -3   40.00    3.60
   0  -3   3   29.70    2.50
   0  -3  -3   41.30    3.30
   0  -3  -3   38.10    2.90
   0  -3  -3   35.10    2.80
   0  -3  -3   36.50    3.10
   0  -3  -3   32.70    3.30
   0  -3   3   34.20    2.50
   0  -3  -3   32.80    2.90
   0  -3   3   28.30    2.20
   0  -3   3   28.90    2.10
   0  -3  -3   33.50    3.10
   0  -3   3   36.70    2.90
   0  -3   3   30.60    2.70
   0   3   3   35.30    2.80
   0   3  -3   29.30    2.30
   0   3  -3   29.40    2.20
   0   3  -3   27.60    2.00
   0   3  -3   32.90    2.30
   0   3  -3   36.40    2.50
   0   3   3   37.70    3.70
   0   3  -3   29.40    2.50
   0   3   3   33.40    2.80
   0   3  -3   30.60    2.60
   0   3  -3   30.90    2.20
   0   3  -3   30.90    2.70
   0   3   3   30.20    2.70
   0   3  -3   36.70    2.80
   0   3   3   35.00    3.10
   0   3   3   31.30    2.00
   0   3   3   41.50    4.20
   0   3  -3   30.50    3.50
   0   3   3   30.80    2.90
   0   3  -3   30.10    2.50
   0   3   3   26.20    2.80
  -1  -3  -3  244.68   11.30
  -1  -3  -3  223.08   10.10
  -1  -3  -3  259.27   10.50
   1  -3   3  218.18   10.40
  -1  -3  -3  248.28   11.10
  -1  -3  -3  236.98   10.60
   1  -3   3  226.98   10.70
   1  -3   3  207.68   10.50
   1  -3   3  226.68   10.70
   1  -3   3  206.08   10.50
   1  -3   3  204.78   10.30
   1  -3   3  209.08   10.40
  -1  -3  -3  212.68   10.70
  -1  -3  -3  231.08   11.20
   1  -3   3  219.78   10.20
  -1   3  -3  199.28   10.30
  -1   3  -3  211.28   10.40
  -1   3  -3  219.98   10.70
  -1   3  -3  224.88   11.50
   1   3   3  227.78   11.00
   1   3   3  226.78   10.80
   1   3   3  233.38   10.80
  -1   3  -3  211.88   10.40
   1   3   3  250.07   10.30
  -1   3  -3  215.08   10.50
   1   3   3  227.58   10.90
   1   3   3  239.18   10.80
  -1   3  -3  220.38   10.50
  -1   3  -3  180.88   10.40
   1   3   3  226.48   10.30
  -2  -3  -3  169.68    8.40
   2  -3   3  145.09    7.90
  -2  -3  -3  156.28    8.30
   2  -3   3  145.19    8.20
  -2  -3  -3  161.08    8.60
  -2  -3  -3  164.48    7.70
  -2  -3  -3  163.48    8.10
   2  -3   3  152.48    8.00
   2  -3   3  154.78    8.10
   2  -3   3  155.58    8.10
  -2  -3  -3  171.88    8.90
  -2   3  -3  134.09    7.80
   2   3   3  158.68    8.60
  -2   3  -3  145.69    8.10
   2   3   3  181.48    7.70
  -2   3  -3  159.78    8.30
   2   3   3  168.38    8.30
  -2   3  -3  153.98    9.00
   2   3   3  172.68    8.30
   2   3   3  166.08    8.00
   2   3   3  163.08    8.40
   2   3   3  168.48    8.40
  -2   3  -3  147.49    8.20
  -2   3  -3  144.69    8.10
  -3  -3  -3   52.49    4.20
   3  -3   3   46.60    4.10
  -3  -3  -3   53.89    4.50
  -3  -3  -3   50.09    3.70
   3  -3   3   46.10    4.50
   3  -3   3   44.00    4.20
  -3  -3  -3   57.69    4.50
   3  -3   3   45.50    3.90
  -3  -3  -3   49.30    3.30
  -3  -3  -3   51.89    5.00
   3  -3   3   46.80    4.10
   3   3   3   44.10    4.40
  -3   3  -3   46.20    4.20
  -3   3  -3   40.40    3.50
   3   3   3   48.90    4.20
  -3   3  -3   42.20    3.90
  -3   3  -3   39.30    4.00
  -3   3  -3   50.19    5.20
   3   3   3   46.70    4.10
   3   3   3   50.79    4.20
   4  -3   3   11.00    2.30
   4  -3   3   12.20    3.00
   4  -3   3   12.20    2.10
  -4  -3  -3   12.00    3.50
   4  -3   3    7.60    2.60
  -4  -3  -3   13.70    2.60
  -4  -3  -3   13.10    2.90
   4  -3   3    7.70    2.90
  -4  -3  -3   11.20    2.10
   4  -3   3   10.10    2.80
   4   3   3   13.70    2.40
  -4   3  -3   10.90    3.00
   4   3   3    9.70    2.70
  -4   3  -3    9.00    2.40
   4   3   3   10.80    2.70
  -4   3  -3   13.70    3.10
   4   3   3   12.20    2.70
  -4   3  -3    8.50    3.50
  -4   3  -3    7.00    2.50
   4   3   3   11.30    3.10
   5  -3   3  104.99    7.20
  -5  -3  -3   97.29    7.00
   5  -3   3   84.69    6.10
  -5  -3  -3   84.69    7.80
   5  -3   3   85.79    7.30
  -5  -3  -3   99.69    6.00
  -5  -3  -3  104.29    7.30
   5  -3   3   88.09    7.20
   5   3   3  104.09    7.20
  -5   3  -3   83.89    6.40
   5   3   3   92.09    7.10
  -5   3  -3   86.39    7.30
  -5   3  -3  102.09    7.70
  -5   3  -3   90.39    8.40
   5   3   3   99.09    6.50
   5   3   3   82.19    7.20
  -5   3  -3   95.69    7.10
   5   3   3  104.79    7.20
  -6  -3  -3   21.20    4.30
  -6  -3  -3   22.10    5.20
   6  -3   3   17.70    4.40
   6  -3   3   14.90    4.20
  -6  -3  -3   14.40    4.30
   6  -3   3   18.50    4.30
  -6  -3  -3    9.30    3.50
  -6   3  -3   17.00    4.20
   6   3   3   24.80    4.40
   6   3   3   15.60    4.00
  -6   3  -3   21.40    5.70
  -6   3  -3   15.60    3.90
   6   3   3   15.40    3.70
  -6   3  -3   15.70    3.90
  -6   3  -3   17.20    4.40
   6   3   3   14.70    4.00
  -7  -3  -3    4.80    3.80
  -7  -3  -3    3.70    3.40
  -7   3  -3    1.00    3.60
   7   3   3   -1.00    3.10
  -7   3  -3    6.30    3.30
  -7  -4   3   22.00    4.70
   7  -4  -3   27.10    5.60
  -7  -4   3   22.10    4.90
   7  -4  -3   22.00    5.00
   7  -4  -3   26.70    5.10
   7  -4  -3   23.50    4.50
   7  -4  -3   26.70    5.00
   7   4  -3   19.30    3.90
   7   4  -3   14.90    3.90
  -7   4   3   28.30    4.60
  -7   4   3   28.50    5.20
  -7   4   3   13.90    5.00
   7   4  -3   28.80    5.60
  -7   4   3   24.90    4.70
   7   4  -3   19.90    4.50
  -6  -4   3  128.29    9.10
   6  -4  -3  107.99    8.80
  -6  -4   3  105.49    8.10
   6  -4  -3  139.49    9.50
   6  -4  -3  121.29    8.60
   6  -4  -3  119.49    8.30
  -6  -4   3  124.69    9.30
   6  -4  -3  129.89    8.90
  -6   4   3  109.99    8.50
  -6   4   3  114.09    9.60
  -6   4   3  120.69    8.10
  -6   4   3  120.79    9.00
   6   4  -3  114.39    8.00
   6   4  -3  122.29    9.40
   6   4  -3  126.69    7.90
  -6   4   3  127.19    8.50
   6   4  -3  125.19    9.00
   5  -4  -3   66.59    6.00
  -5  -4   3   54.89    5.80
   5  -4  -3   68.09    5.60
  -5  -4   3   78.69    6.40
   5  -4  -3   67.79    5.80
   5  -4  -3   76.19    6.10
  -5  -4   3   78.69    6.60
   5  -4  -3   73.99    6.60
  -5   4   3   72.99    6.30
   5   4  -3   60.99    6.10
  -5   4   3   56.79    6.40
   5   4  -3   66.89    5.20
   5   4  -3   73.19    6.60
  -5   4   3   71.09    6.20
  -5   4   3   56.49    5.20
   5   4  -3   57.49    4.90
  -5   4   3   68.29    5.90
   5   4  -3   54.69    4.80
   4  -4  -3  143.19    8.60
   4  -4  -3  139.19    7.90
  -4  -4   3  121.89    7.90
  -4  -4   3  135.09    7.30
   4  -4  -3  140.39    8.00
  -4  -4   3  137.79    8.40
  -4  -4   3  141.09    8.30
   4  -4  -3  133.69    8.10
   4  -4  -3  133.39    7.90
   4   4  -3  136.79    7.30
   4   4  -3  134.99    8.20
  -4   4   3  124.69    7.50
  -4   4   3  121.39    8.70
   4   4  -3  131.69    8.50
   4   4  -3  140.49    7.30
   4   4  -3  147.19    7.40
   4   4  -3  130.09    7.40
  -4   4   3  138.49    8.50
  -4   4   3  157.18    8.30
  -4   4   3  137.39    8.00
  -4   4   3  132.79    7.60
  -3  -4   3  506.05   23.40
   3  -4  -3  520.45   23.20
   3  -4  -3  511.25   23.20
  -3  -4   3  521.05   22.50
   3  -4  -3  529.45   23.30
  -3  -4   3  506.95   23.30
   3  -4  -3  499.35   23.20
  -3  -4   3  519.95   23.60
   3  -4  -3  502.45   23.60
   3   4  -3  520.55   23.70
   3   4  -3  514.75   22.40
   3   4  -3  499.65   22.50
   3   4  -3  461.55   22.80
   3   4  -3  545.45   22.50
  -3   4   3  449.56   23.00
  -3   4   3  527.65   23.30
   3   4  -3  514.75   22.50
   3   4  -3  499.15   23.30
  -3   4   3  498.85   23.00
   3   4  -3  427.36   22.60
  -3   4   3  520.25   23.20
  -3   4   3  504.85   23.70
   2  -4  -3  214.48   10.30
   2  -4  -3  209.28   10.20
   2  -4  -3  219.48   10.00
   2  -4  -3  206.98   10.40
  -2  -4   3  207.88   10.30
  -2  -4   3  205.28    9.90
  -2  -4   3  213.38   10.20
  -2  -4   3  211.88   10.60
  -2  -4   3  206.78    9.20
  -2  -4   3  200.78    9.20
   2  -4  -3  213.48   10.30
  -2   4   3  186.78   10.30
  -2   4   3  205.58   10.30
   2   4  -3  209.98   10.40
   2   4  -3  200.08   10.30
  -2   4   3  196.58    9.90
   2   4  -3  194.28   10.10
  -2   4   3  208.78   10.50
  -2   4   3  205.68    9.90
   2   4  -3  195.28   10.00
  -2   4   3  201.18   10.20
  -2   4   3  220.38   10.30
   1  -4  -3  256.67   11.90
  -1  -4   3  247.88   12.40
   1  -4  -3  265.17   12.60
   1  -4  -3  260.27   12.30
   1  -4  -3  281.17   12.50
  -1  -4   3  258.17   12.60
  -1  -4   3  262.67   12.40
   1  -4  -3  251.87   12.40
   1  -4  -3  278.87   12.20
  -1  -4   3  268.57   12.20
   1  -4  -3  254.37   12.40
  -1  -4   3  252.77   12.40
   1  -4  -3  266.87   12.50
  -1  -4   3  264.87   12.20
  -1   4   3  253.97   12.30
  -1   4   3  275.37   11.90
   1   4  -3  267.17   12.20
   1   4  -3  236.28   12.80
   1   4  -3  253.07   12.20
  -1   4   3  250.17   12.60
  -1   4   3  265.57   12.50
  -1   4   3  255.07   12.30
   1   4  -3  249.48   12.20
  -1   4   3  243.88   11.90
   0  -4  -3 1032.00   43.40
   0  -4  -3 1019.70   43.30
   0  -4   3 1003.50   42.80
   0  -4  -3 1064.79   43.60
   0  -4   3  994.30   43.10
   0  -4   3  970.90   42.70
   0  -4   3  876.51   42.50
   0  -4  -3  968.60   43.30
   0  -4  -3  978.30   43.50
   0  -4   3  938.21   43.00
   0  -4   3  973.30   42.50
   0  -4  -3 1033.30   42.80
   0  -4  -3  997.50   42.80
   0  -4   3  987.00   43.00
   0  -4  -3 1024.90   43.10
   0  -4  -3 1008.70   42.90
   0   4  -3  948.61   43.00
   0   4  -3  992.20   43.20
   0   4   3  964.30   43.10
   0   4   3 1052.29   43.40
   0   4  -3  905.91   43.70
   0   4  -3  889.21   42.60
   0   4   3  977.10   43.00
   0   4   3  900.01   42.80
   0   4  -3 1007.20   42.70
   0   4  -3  978.00   42.50
   0   4  -3  910.01   42.50
   0   4  -3  941.01   42.80
  -1  -4  -3  546.25   23.30
   1  -4   3  488.05   22.80
  -1  -4  -3  543.95   23.30
   1  -4   3  488.65   22.60
   1  -4   3  481.75   22.40
  -1  -4  -3  523.75   23.30
  -1  -4  -3  530.75   23.10
   1  -4   3  485.45   22.80
   1  -4   3  482.75   22.40
  -1  -4  -3  532.85   22.60
   1  -4   3  494.75   22.40
   1  -4   3  502.65   22.90
   1   4   3  537.65   22.60
  -1   4  -3  478.05   22.60
  -1   4  -3  468.55   22.70
   1   4   3  515.85   23.00
   1   4   3  578.64   22.70
   1   4   3  535.85   23.20
  -1   4  -3  479.15   22.90
   1   4   3  516.15   23.20
  -1   4  -3  490.15   22.60
  -1   4  -3  498.65   23.60
   1   4   3  528.85   23.10
  -1   4  -3  480.25   22.60
  -1   4  -3  450.25   22.60
  -2  -4  -3   56.09    4.60
  -2  -4  -3   57.39    3.50
  -2  -4  -3   56.79    4.20
   2  -4   3   44.60    3.40
   2  -4   3   51.09    3.70
  -2  -4  -3   59.19    4.00
   2  -4   3   50.89    4.30
   2  -4   3   60.69    4.10
  -2  -4  -3   53.49    4.40
   2  -4   3   54.79    4.20
   2  -4   3   51.29    3.90
  -2  -4  -3   52.09    4.10
  -2   4  -3   56.69    5.00
   2   4   3   55.49    4.20
  -2   4  -3   55.79    4.40
   2   4   3   51.89    4.40
  -2   4  -3   48.60    4.00
  -2   4  -3   49.20    3.90
  -2   4  -3   46.40    3.40
   2   4   3   56.59    4.30
   2   4   3   54.09    3.80
   2   4   3   58.89    4.20
  -2   4  -3   46.90    3.90
   2   4   3   69.39    3.70
  -3  -4  -3  362.36   17.80
  -3  -4  -3  373.86   17.50
   3  -4   3  317.17   17.50
  -3  -4  -3  405.56   18.60
  -3  -4  -3  392.86   18.00
   3  -4   3  356.46   18.00
   3  -4   3  384.56   17.70
  -3  -4  -3  379.56   18.10
   3  -4   3  383.86   17.80
   3  -4   3  370.76   17.50
   3   4   3  381.06   17.90
  -3   4  -3  355.26   17.80
   3   4   3  377.66   18.20
  -3   4  -3  357.16   17.80
  -3   4  -3  370.86   18.80
   3   4   3  372.26   17.80
   3   4   3  403.76   17.90
  -3   4  -3  374.26   18.00
  -3   4  -3  387.96   17.90
   4  -4   3  230.28   13.00
   4  -4   3  248.28   12.80
   4  -4   3  231.68   11.80
   4  -4   3  249.48   12.30
   4  -4   3  248.88   13.00
  -4  -4  -3  252.67   13.70
  -4  -4  -3  257.57   12.30
  -4  -4  -3  263.87   12.90
  -4  -4  -3  250.17   13.00
   4   4   3  267.27   13.00
  -4   4  -3  253.57   13.00
  -4   4  -3  249.38   13.00
  -4   4  -3  230.98   13.00
   4   4   3  252.37   12.90
  -4   4  -3  254.87   13.00
   4   4   3  245.38   12.50
   4   4   3  254.97   12.90
   4   4   3  230.38   13.20
  -4   4  -3  234.28   13.90
   5  -4   3    0.60    2.70
  -5  -4  -3    5.50    2.70
   5  -4   3    2.60    2.10
   5  -4   3    0.80    2.80
  -5  -4  -3   10.40    3.10
  -5  -4  -3    3.50    3.00
  -5  -4  -3    3.90    3.30
  -5  -4  -3    5.30    2.20
   5  -4   3    6.80    3.20
   5   4   3    5.40    3.00
  -5   4  -3    6.00    3.90
  -5   4  -3    0.80    2.70
   5   4   3    7.30    2.60
   5   4   3    3.50    2.70
  -5   4  -3    3.50    2.80
  -5   4  -3   -0.10    2.20
  -5   4  -3    1.00    2.80
   5   4   3    0.10    2.80
   5   4   3    8.50    2.90
  -6  -4  -3   89.39    7.30
   6  -4   3   88.89    8.30
  -6  -4  -3  101.39    8.00
  -6  -4  -3   91.79    9.40
   6  -4   3   85.49    8.20
   6  -4   3   84.89    7.50
  -6  -4  -3   84.09    8.20
   6   4   3   89.59    7.70
   6   4   3   89.39    7.30
  -6   4  -3   69.59    7.00
  -6   4  -3   84.89    7.90
  -6   4  -3   94.39    7.50
  -6   4  -3   88.79    9.40
   6   4   3   71.19    7.30
   6   4   3   86.79    7.90
  -7  -4  -3   31.70    5.40
  -7   4  -3   48.60    6.00
   7   4   3   42.60    6.70
   7  -5  -3   93.29    8.90
   7  -5  -3  101.19    9.40
  -7  -5   3  109.79    9.70
  -7  -5   3  107.69    8.90
   7  -5  -3   97.09    8.80
   7   5  -3  102.19    8.00
  -7   5   3  105.99    8.60
  -7   5   3  107.29    9.00
   7   5  -3  109.19   10.10
   7   5  -3   95.59    7.50
   7   5  -3   99.69    8.80
   6  -5  -3    6.40    3.20
  -6  -5   3    0.30    2.60
  -6  -5   3    9.30    3.50
   6  -5  -3    1.00    2.70
   6  -5  -3    9.20    2.90
   6  -5  -3    0.10    3.00
  -6  -5   3   -4.10    2.50
   6  -5  -3    1.20    3.10
   6   5  -3    1.40    2.50
  -6   5   3   -0.50    2.30
  -6   5   3   -1.40    3.20
  -6   5   3   -0.70    2.60
   6   5  -3   -1.40    2.20
  -6   5   3    4.50    3.10
   6   5  -3    1.30    3.10
  -6   5   3    0.40    3.50
   6   5  -3    4.40    2.90
   5  -5  -3  502.35   24.40
  -5  -5   3  487.75   24.30
  -5  -5   3  514.25   24.70
   5  -5  -3  497.25   24.10
   5  -5  -3  528.65   24.40
  -5  -5   3  500.15   24.70
   5  -5  -3  512.15   24.50
   5  -5  -3  518.45   24.90
  -5   5   3  531.25   24.60
  -5   5   3  504.55   24.50
   5   5  -3  508.85   23.60
  -5   5   3  492.55   25.20
   5   5  -3  509.65   24.90
   5   5  -3  516.05   23.50
   5   5  -3  482.85   23.70
  -5   5   3  542.45   24.40
   5   5  -3  506.75   24.70
  -5   5   3  499.15   23.90
  -4  -5   3 1011.00   47.10
   4  -5  -3 1102.19   47.50
   4  -5  -3 1032.10   46.90
  -4  -5   3 1008.20   46.90
  -4  -5   3 1020.50   47.10
   4  -5  -3 1040.60   46.90
   4  -5  -3 1047.80   46.90
   4  -5  -3 1106.69   46.80
   4   5  -3 1102.69   46.10
   4   5  -3 1047.60   46.10
  -4   5   3  965.20   46.50
  -4   5   3 1008.30   47.40
  -4   5   3 1058.19   47.00
  -4   5   3 1077.89   46.80
   4   5  -3 1061.79   47.10
   4   5  -3 1017.00   46.50
   4   5  -3 1040.90   47.30
  -4   5   3 1037.50   46.50
  -4   5   3 1025.50   46.90
   3  -5  -3    5.20    2.10
   3  -5  -3    4.90    1.80
  -3  -5   3    4.00    1.90
   3  -5  -3    4.20    1.80
  -3  -5   3    0.10    1.90
  -3  -5   3    3.70    1.10
   3  -5  -3    4.40    1.80
   3  -5  -3    3.50    1.80
  -3  -5   3    4.00    2.00
   3   5  -3    2.10    1.20
   3   5  -3    4.90    1.20
   3   5  -3    1.80    1.10
   3   5  -3    2.30    1.20
   3   5  -3    2.10    2.00
  -3   5   3    4.70    2.30
  -3   5   3    6.10    2.10
  -3   5   3    4.40    1.50
  -3   5   3    3.30    2.40
  -3   5   3    4.80    2.10
   3   5  -3    3.30    1.70
   3   5  -3    2.20    1.90
  -3   5   3    3.60    1.90
   2  -5  -3 2351.86  104.79
  -2  -5   3 2330.87  105.59
  -2  -5   3 2452.85  105.39
  -2  -5   3 2412.96  105.49
   2  -5  -3 2586.64  105.09
   2  -5  -3 2489.15  105.29
  -2  -5   3 2440.46  104.99
  -2  -5   3 2533.95  105.29
   2  -5  -3 2404.76  105.29
   2  -5  -3 2475.95  105.39
   2  -5  -3 2526.75  105.69
   2   5  -3 2505.25  105.09
   2   5  -3 2418.16  105.39
   2   5  -3 2312.27  105.19
  -2   5   3 2373.36  105.29
  -2   5   3 2340.57  105.49
   2   5  -3 2291.87  105.29
  -2   5   3 2411.76  105.29
  -2   5   3 2410.86  105.29
  -2   5   3 2181.58  104.49
  -2   5   3 2413.46  105.39
  -1  -5   3 1261.67   58.79
   1  -5  -3 1329.37   58.69
  -1  -5   3 1394.86   58.79
  -1  -5   3 1289.27   58.79
   1  -5  -3 1378.56   58.99
  -1  -5   3 1382.16   58.49
   1  -5  -3 1413.06   58.49
  -1  -5   3 1383.56   58.49
   1  -5  -3 1394.96   58.29
  -1  -5   3 1302.77   58.49
   1  -5  -3 1360.46   58.69
   1  -5  -3 1325.87   58.79
   1   5  -3 1274.27   58.49
  -1   5   3 1302.77   58.39
  -1   5   3 1385.36   58.19
  -1   5   3 1304.87   58.49
  -1   5   3 1326.37   58.59
   1   5  -3 1197.38   59.09
  -1   5   3 1303.37   58.89
  -1   5   3 1372.86   58.79
   1   5  -3 1326.37   58.39
  -1   5   3 1316.47   58.19
   1   5  -3 1322.67   58.39
   0  -5  -3  261.97   12.50
   0  -5   3  222.08   11.10
   0  -5  -3  279.37   12.20
   0  -5   3  251.87   11.50
   0  -5  -3  248.98   12.10
   0  -5   3  240.38   11.80
   0  -5   3  245.58   12.00
   0  -5  -3  261.87   11.90
   0  -5  -3  248.28   12.30
   0  -5  -3  255.57   12.20
   0  -5  -3  240.18   11.60
   0  -5   3  231.98   11.90
   0   5   3  259.17   12.30
   0   5  -3  242.18   11.10
   0   5  -3  222.28   11.10
   0   5   3  253.17   12.40
   0   5  -3  239.78   11.40
   0   5   3  258.67   11.30
   0   5  -3  238.68   11.50
   0   5   3  242.38   11.90
   0   5  -3  248.78   11.90
   0   5  -3  238.28   12.50
   0   5   3  246.28   11.90
   0   5   3  296.97   12.40
   0   5  -3  257.87   12.70
  -1  -5  -3 1405.06   60.19
  -1  -5  -3 1451.75   59.99
   1  -5   3 1315.97   59.09
   1  -5   3 1283.17   59.09
  -1  -5  -3 1406.46   59.29
  -1  -5  -3 1405.56   60.19
  -1  -5  -3 1409.26   60.09
   1  -5   3 1241.18   59.09
   1  -5   3 1280.97   59.79
  -1  -5  -3 1422.16   59.59
   1  -5   3 1289.27   59.79
   1  -5   3 1309.77   59.39
   1  -5   3 1330.67   59.69
   1   5   3 1434.96   60.09
  -1   5  -3 1357.46   59.79
   1   5   3 1537.65   60.29
  -1   5  -3 1259.07   59.39
  -1   5  -3 1306.47   60.29
   1   5   3 1336.27   59.79
   1   5   3 1353.16   60.09
  -1   5  -3 1347.17   59.49
   1   5   3 1394.16   59.49
   1   5   3 1348.07   59.99
  -1   5  -3 1234.68   59.39
   1   5   3 1554.44   59.69
  -2  -5  -3 2274.87   92.69
   2  -5   3 2105.49   93.09
  -2  -5  -3 2286.87   93.39
   2  -5   3 2083.39   92.79
  -2  -5  -3 2218.78   93.19
   2  -5   3 2105.89   92.79
   2  -5   3 1955.50   92.89
  -2  -5  -3 2174.98   93.09
   2  -5   3 2045.50   92.59
  -2  -5  -3 2162.28   92.99
   2  -5   3 2169.68   93.19
  -2  -5  -3 2215.08   93.39
   2  -5   3 1967.60   92.19
   2   5   3 2187.18   92.89
   2   5   3 2225.68   93.19
  -2   5  -3 2067.99   92.99
  -2   5  -3 1904.91   92.19
  -2   5  -3 1992.40   93.59
  -2   5  -3 2179.08   93.39
  -2   5  -3 2122.99   92.89
   2   5   3 2225.78   93.39
  -2   5  -3 2063.79   92.79
  -2   5  -3 2043.30   92.79
   2   5   3 2149.98   92.99
   2   5   3 2218.08   93.19
   3  -5   3  343.27   17.10
  -3  -5  -3  358.66   17.00
  -3  -5  -3  363.36   16.70
  -3  -5  -3  390.16   17.80
   3  -5   3  339.97   17.10
  -3  -5  -3  336.37   16.90
   3  -5   3  363.86   16.60
  -3  -5  -3  352.66   17.30
   3  -5   3  368.86   17.00
   3  -5   3  318.37   16.10
   3  -5   3  353.46   16.70
  -3   5  -3  312.37   16.80
   3   5   3  335.27   16.90
   3   5   3  371.96   16.90
  -3   5  -3  371.46   17.30
   3   5   3  361.36   17.40
  -3   5  -3  346.87   17.80
   3   5   3  365.96   16.90
   3   5   3  347.27   16.90
  -3   5  -3  344.27   16.90
  -3   5  -3  340.77   17.00
   4  -5   3  397.66   19.00
  -4  -5  -3  389.96   19.00
   4  -5   3  346.97   17.90
   4  -5   3  403.16   18.50
  -4  -5  -3  406.96   19.00
  -4  -5  -3  395.96   18.50
   4  -5   3  368.76   19.10
   4  -5   3  379.56   19.30
  -4  -5  -3  408.26   19.90
  -4   5  -3  392.86   19.20
   4   5   3  387.96   19.10
  -4   5  -3  396.06   19.10
   4   5   3  405.26   19.60
  -4   5  -3  391.56   19.10
   4   5   3  408.26   19.10
   4   5   3  401.26   19.00
  -4   5  -3  386.56   20.20
  -4   5  -3  367.86   19.10
  -5  -5  -3  573.84   28.20
   5  -5   3  581.74   26.20
  -5  -5  -3  579.04   27.40
   5  -5   3  588.64   27.00
   5  -5   3  535.55   27.00
   5  -5   3  567.14   27.50
  -5  -5  -3  545.85   26.90
  -5  -5  -3  591.94   26.90
  -5  -5  -3  551.64   26.30
   5   5   3  552.44   26.90
   5   5   3  564.44   27.00
  -5   5  -3  571.74   27.20
   5   5   3  541.35   26.60
  -5   5  -3  521.45   27.00
  -5   5  -3  565.04   27.00
   5   5   3  611.34   27.40
   5   5   3  590.64   27.60
  -5   5  -3  578.34   26.90
  -5   5  -3  529.85   28.20
  -6  -5  -3  108.89    9.40
   6  -5   3   97.59    8.10
   6  -5   3   91.59    8.40
   6  -5   3  102.99    8.30
  -6  -5  -3  111.99    8.30
  -6  -5  -3   90.39    8.90
  -6  -5  -3   97.99    8.30
  -6  -5  -3  102.59    7.70
   6   5   3   97.29    8.30
   6   5   3   87.59    8.00
   6   5   3  100.89    7.90
  -6   5  -3   86.59    8.50
   6   5   3  104.69    7.90
  -6   5  -3   84.89    7.90
  -6   5  -3   88.59    7.70
   6   5   3  110.69    8.40
  -6   5  -3  112.29   10.70
  -7  -5  -3   19.80    4.30
  -7   5  -3   13.70    4.80
   7  -6  -3   33.80    5.60
  -7  -6   3   28.40    5.00
   7  -6  -3   28.80    5.80
   7   6  -3   35.80    8.70
  -7   6   3   39.90    5.80
   7   6  -3   28.70    4.30
  -7   6   3   35.00    5.50
  -6  -6   3  193.88   11.70
   6  -6  -3  212.48   12.20
   6  -6  -3  207.08   12.80
   6  -6  -3  195.38   11.30
  -6  -6   3  203.88   12.20
   6  -6  -3  195.08   11.90
   6  -6  -3  194.98   12.10
  -6  -6   3  197.48   12.30
   6   6  -3  194.08   10.70
   6   6  -3  191.58   11.00
   6   6  -3  192.08   12.10
  -6   6   3  200.98   11.90
  -6   6   3  200.78   13.10
  -6   6   3  199.08   12.30
  -6   6   3  190.38   11.00
  -6   6   3  182.88   12.00
   6   6  -3  193.88   12.40
   5  -6  -3   41.00    5.40
  -5  -6   3   52.89    5.60
   5  -6  -3   45.40    5.20
   5  -6  -3   47.70    5.10
  -5  -6   3   39.30    4.60
   5  -6  -3   41.50    4.50
  -5  -6   3   48.20    5.40
   5  -6  -3   61.29    5.80
   5   6  -3   37.70    3.90
  -5   6   3   47.10    5.20
   5   6  -3   44.00    5.40
   5   6  -3   49.99    5.50
  -5   6   3   54.99    5.70
   5   6  -3   41.80    4.20
   5   6  -3   47.30    4.50
  -5   6   3   39.50    4.10
  -5   6   3   58.09    6.60
  -5   6   3   31.90    4.80
   4  -6  -3  115.59    6.90
  -4  -6   3  101.29    6.90
   4  -6  -3   90.49    7.30
   4  -6  -3   96.39    6.70
   4  -6  -3   95.59    6.80
  -4  -6   3  103.09    6.70
  -4  -6   3   96.09    7.00
   4  -6  -3  110.39    6.50
  -4   6   3   89.29    6.60
  -4   6   3  106.09    7.00
  -4   6   3   94.39    6.70
  -4   6   3  103.89    7.50
   4   6  -3   95.89    6.40
  -4   6   3   97.19    6.00
   4   6  -3   95.69    7.20
  -4   6   3  101.49    5.40
   4   6  -3   97.09    6.80
   4   6  -3   96.99    5.60
   4   6  -3  100.49    5.70
  -4   6   3   89.29    7.50
  -3  -6   3  575.14   27.60
   3  -6  -3  612.24   26.80
  -3  -6   3  627.24   27.90
   3  -6  -3  598.34   27.70
   3  -6  -3  643.94   27.70
   3  -6  -3  584.24   28.10
  -3  -6   3  580.44   27.70
   3  -6  -3  628.74   27.50
   3  -6  -3  600.84   27.70
   3   6  -3  595.24   26.60
   3   6  -3  597.84   26.60
   3   6  -3  601.24   26.60
   3   6  -3  572.34   27.50
  -3   6   3  602.24   27.70
  -3   6   3  590.54   27.10
  -3   6   3  612.64   28.00
  -3   6   3  573.84   26.70
   3   6  -3  611.64   27.00
   3   6  -3  615.84   26.50
   3   6  -3  598.44   27.80
  -3   6   3  629.64   27.90
  -3   6   3  572.94   27.80
   3   6  -3  604.84   28.00
  -3   6   3  637.34   27.90
  -2  -6   3  626.24   27.90
   2  -6  -3  625.04   28.20
  -2  -6   3  591.14   28.10
  -2  -6   3  613.44   27.70
  -2  -6   3  612.84   27.80
   2  -6  -3  607.64   27.80
  -2  -6   3  632.44   28.00
  -2  -6   3  609.04   27.50
   2  -6  -3  604.34   27.10
   2  -6  -3  652.33   27.60
   2  -6  -3  620.24   27.90
   2  -6  -3  631.04   27.70
   2   6  -3  613.34   27.90
   2   6  -3  567.84   27.70
  -2   6   3  587.84   27.70
   2   6  -3  595.44   27.70
  -2   6   3  587.74   27.10
  -2   6   3  625.34   27.80
  -2   6   3  566.14   28.00
   2   6  -3  623.64   27.60
  -2   6   3  600.64   27.70
  -2   6   3  635.14   27.90
   1  -6  -3  192.08   10.10
   1  -6  -3  197.68    9.80
   1  -6  -3  190.58    9.90
  -1  -6   3  201.68    9.60
   1  -6  -3  205.78    9.80
  -1  -6   3  179.98    9.80
   1  -6  -3  207.08    9.40
  -1  -6   3  194.48    9.90
   1  -6  -3  196.28    9.30
  -1  -6   3  190.78    9.50
  -1  -6   3  185.58    9.40
   1  -6  -3  195.58    9.60
  -1  -6   3  188.48    9.90
  -1   6   3  181.38    9.70
  -1   6   3  199.58   10.20
  -1   6   3  192.88    9.40
   1   6  -3  185.58    9.30
  -1   6   3  187.38    9.40
   1   6  -3  185.08    9.70
  -1   6   3  185.98    9.30
   1   6  -3  201.28    9.40
   1   6  -3  180.08    9.50
   1   6  -3  156.58    9.90
  -1   6   3  185.28    9.50
  -1   6   3  194.68    9.90
   0  -6  -3 1695.03   75.29
   0  -6  -3 1758.12   75.49
   0  -6   3 1704.23   74.69
   0  -6   3 1726.53   75.09
   0  -6  -3 1822.12   75.19
   0  -6  -3 1775.12   75.19
   0  -6   3 1785.72   75.29
   0  -6   3 1584.54   75.19
   0  -6  -3 1734.23   75.29
   0  -6  -3 1772.12   75.59
   0   6   3 1729.23   75.59
   0   6   3 1715.43   75.19
   0   6   3 1723.63   75.09
   0   6  -3 1668.13   74.29
   0   6   3 1806.62   74.59
   0   6  -3 1699.13   74.99
   0   6  -3 1692.43   74.29
   0   6  -3 1627.74   74.59
   0   6   3 1788.22   75.49
   0   6  -3 1678.43   75.39
   0   6  -3 1570.44   74.59
   0   6  -3 1663.33   75.59
  -1  -6  -3  567.34   25.70
   1  -6   3  520.55   24.50
   1  -6   3  508.65   25.40
   1  -6   3  536.05   24.90
   1  -6   3  543.25   25.40
  -1  -6  -3  565.74   25.60
  -1  -6  -3  590.74   25.40
  -1  -6  -3  564.64   24.70
  -1  -6  -3  579.74   25.80
   1  -6   3  534.95   25.20
  -1  -6  -3  596.14   25.40
   1   6   3  648.44   25.80
   1   6   3  561.34   25.40
   1   6   3  634.04   25.50
   1   6   3  556.04   25.60
   1   6   3  561.74   25.70
  -1   6  -3  527.05   25.80
  -1   6  -3  547.85   24.90
   1   6   3  530.85   25.50
  -1   6  -3  553.04   25.40
  -1   6  -3  515.95   24.90
   1   6   3  580.54   25.20
  -1   6  -3  529.25   24.90
  -1   6  -3  540.15   25.70
   2  -6   3   45.00    4.00
   2  -6   3   42.40    3.40
   2  -6   3   41.10    4.10
  -2  -6  -3   46.70    3.90
  -2  -6  -3   46.70    4.30
   2  -6   3   44.80    4.30
  -2  -6  -3   45.30    4.10
  -2  -6  -3   58.89    4.60
  -2  -6  -3   56.49    4.60
  -2  -6  -3   48.40    3.50
   2  -6   3   40.80    3.60
   2  -6   3   44.50    3.90
   2   6   3   44.50    4.00
   2   6   3   54.39    4.20
  -2   6  -3   36.10    3.60
   2   6   3   42.00    4.10
  -2   6  -3   38.10    3.60
  -2   6  -3   37.50    4.30
  -2   6  -3   38.00    4.10
   2   6   3   50.39    3.80
  -2   6  -3   47.30    3.90
   2   6   3   43.20    4.20
  -2   6  -3   42.20    3.90
   3  -6   3  456.25   22.50
   3  -6   3  450.85   22.60
  -3  -6  -3  570.34   24.20
  -3  -6  -3  507.45   23.50
   3  -6   3  485.95   23.60
  -3  -6  -3  526.95   23.40
   3  -6   3  492.95   23.80
  -3  -6  -3  522.45   23.60
   3  -6   3  479.85   23.10
   3  -6   3  494.25   23.20
   3  -6   3  488.15   23.40
  -3  -6  -3  527.55   23.90
  -3   6  -3  500.25   23.50
   3   6   3  494.95   23.40
   3   6   3  512.85   23.90
   3   6   3  525.25   23.60
  -3   6  -3  486.75   24.40
   3   6   3  518.65   23.40
   3   6   3  556.34   23.60
  -3   6  -3  496.95   23.80
  -3   6  -3  490.95   23.50
  -3   6  -3  488.55   23.40
   4  -6   3  277.07   14.20
  -4  -6  -3  283.37   13.80
   4  -6   3  278.77   14.40
  -4  -6  -3  265.47   14.10
   4  -6   3  280.57   13.60
   4  -6   3  280.17   14.00
   4  -6   3  271.97   14.50
  -4  -6  -3  275.27   14.00
  -4  -6  -3  283.37   14.90
  -4   6  -3  259.07   15.20
  -4   6  -3  247.08   14.20
  -4   6  -3  276.57   14.40
   4   6   3  257.97   14.50
   4   6   3  282.87   14.20
   4   6   3  267.57   14.10
   4   6   3  273.17   14.20
  -4   6  -3  284.07   14.50
  -4   6  -3  278.07   14.30
   5  -6   3    3.30    2.30
  -5  -6  -3    5.70    3.40
  -5  -6  -3   14.00    2.90
  -5  -6  -3   14.70    3.40
   5  -6   3   12.30    3.60
  -5  -6  -3    4.00    3.60
  -5  -6  -3   16.60    3.50
   5  -6   3   13.90    3.80
   5  -6   3   16.50    3.80
  -5   6  -3   10.70    3.30
   5   6   3    9.70    3.50
  -5   6  -3   13.30    4.30
  -5   6  -3   10.30    3.20
  -5   6  -3    7.90    3.30
   5   6   3   10.00    3.30
   5   6   3   10.30    2.80
   5   6   3   17.90    3.70
   5   6   3    9.30    3.10
  -6  -6  -3  102.89    7.50
  -6  -6  -3  118.69    9.70
  -6  -6  -3  117.19    8.20
  -6  -6  -3  128.69    8.80
  -6  -6  -3  107.89    8.80
   6  -6   3  117.69    8.70
   6  -6   3   97.79    8.80
   6  -6   3  102.79    8.80
   6   6   3  114.89    8.80
  -6   6  -3  109.49   10.50
   6   6   3  115.59    8.40
  -6   6  -3  108.09    9.50
   6   6   3  130.99    8.60
  -6   6  -3  110.09    8.20
  -6   6  -3  107.19    9.20
   6   6   3  116.39    8.20
  -6   6  -3  101.29    9.30
   6   6   3  112.29    9.00
   7  -7  -3   -0.90    3.50
  -7  -7   3   -0.20    3.20
   7  -7  -3   -0.20    5.90
  -7  -7   3    1.90    3.90
  -7   7   3    3.10    4.60
  -7   7   3    2.00    3.50
   7   7  -3    4.20    2.80
  -6  -7   3    2.40    3.00
   6  -7  -3    7.10    3.50
   6  -7  -3    6.90    3.40
  -6  -7   3    3.30    3.30
   6  -7  -3   -0.80    3.00
   6  -7  -3    0.80    3.10
  -6  -7   3    2.20    3.10
   6  -7  -3    2.80    3.20
   6   7  -3    6.20    3.60
  -6   7   3    6.70    3.50
  -6   7   3    8.70    3.90
  -6   7   3   -0.60    2.90
  -6   7   3   -1.80    3.70
   6   7  -3    3.30    2.30
   6   7  -3    1.20    3.10
   5  -7  -3    8.80    2.50
   5  -7  -3    5.10    3.10
   5  -7  -3   11.70    3.30
   5  -7  -3    8.90    3.20
   5  -7  -3    4.00    2.20
  -5  -7   3    5.40    2.90
  -5  -7   3   10.10    3.20
  -5  -7   3    8.50    3.30
   5  -7  -3    4.20    2.80
  -5   7   3    5.40    3.50
  -5   7   3    3.60    3.20
   5   7  -3    8.50    2.20
  -5   7   3    4.10    3.00
   5   7  -3    7.70    2.90
  -5   7   3    5.80    2.20
  -5   7   3    4.70    3.10
   5   7  -3    6.10    2.20
   5   7  -3    3.40    3.00
   5   7  -3    7.50    2.60
  -4  -7   3   14.50    3.20
   4  -7  -3   14.40    3.60
  -4  -7   3   17.20    3.30
  -4  -7   3   19.30    3.20
   4  -7  -3   20.30    2.90
   4  -7  -3   19.10    3.30
   4  -7  -3   16.50    2.40
   4  -7  -3   18.30    3.20
   4  -7  -3   18.10    3.40
   4   7  -3   20.30    3.80
  -4   7   3   26.00    3.70
   4   7  -3   16.20    2.30
  -4   7   3   15.50    3.00
  -4   7   3   16.30    3.70
   4   7  -3   12.30    1.80
  -4   7   3   15.20    3.30
  -4   7   3   12.80    3.70
  -4   7   3   15.20    2.30
  -4   7   3   25.50    3.50
   4   7  -3   15.70    2.90
   4   7  -3   19.20    2.20
   4   7  -3   16.90    3.30
   3  -7  -3    2.20    1.40
  -3  -7   3    0.80    1.80
   3  -7  -3   -2.00    2.20
  -3  -7   3    2.00    2.10
   3  -7  -3    1.60    2.00
  -3  -7   3    1.50    2.10
   3  -7  -3    2.60    1.90
  -3  -7   3    1.60    1.90
   3  -7  -3    3.10    2.00
  -3  -7   3    2.00    1.00
  -3   7   3   -1.90    1.20
  -3   7   3   -1.00    1.30
   3   7  -3    1.10    2.00
  -3   7   3    0.20    1.30
   3   7  -3   -0.20    1.40
   3   7  -3    0.30    1.10
  -3   7   3    0.40    2.00
   3   7  -3    0.10    1.60
  -3   7   3    1.20    2.10
  -3   7   3   -1.00    2.30
   3   7  -3    0.10    1.00
   3   7  -3   -0.70    2.00
  -3   7   3    3.40    2.10
  -3   7   3    2.70    2.50
   2  -7  -3   76.69    5.40
   2  -7  -3   80.09    4.50
   2  -7  -3   82.09    5.30
   2  -7  -3   90.29    6.20
  -2  -7   3   68.19    5.40
  -2  -7   3   86.59    5.70
  -2  -7   3   80.79    5.20
   2  -7  -3   93.59    5.70
   2  -7  -3   80.09    4.40
  -2  -7   3   75.69    5.20
  -2  -7   3   75.09    5.60
  -2   7   3   78.49    5.50
   2   7  -3   76.39    5.50
  -2   7   3   72.19    5.90
  -2   7   3   82.39    5.70
   2   7  -3   87.59    5.20
   2   7  -3   79.49    5.50
   2   7  -3   86.49    4.90
  -2   7   3   80.09    4.80
   2   7  -3   87.19    5.50
  -2   7   3   83.29    5.80
  -2   7   3   77.49    5.50
  -1  -7   3   12.40    2.50
   1  -7  -3   14.10    2.00
  -1  -7   3   13.00    2.20
   1  -7  -3   10.90    2.30
   1  -7  -3   11.60    2.00
   1  -7  -3   13.30    1.50
  -1  -7   3   10.40    2.00
   1  -7  -3   13.50    2.70
  -1  -7   3    9.10    2.00
   1  -7  -3    8.90    2.50
  -1  -7   3   15.00    2.60
   1  -7  -3   10.90    2.30
  -1  -7   3   11.00    2.40
  -1   7   3   10.90    2.00
  -1   7   3   13.10    1.70
   1   7  -3   14.80    2.70
  -1   7   3    9.80    2.40
   1   7  -3    7.20    1.70
  -1   7   3   11.80    2.10
  -1   7   3    9.50    2.40
  -1   7   3    8.70    2.10
   1   7  -3   14.70    2.40
  -1   7   3   12.10    2.30
   1   7  -3    8.70    2.00
   1   7  -3   10.70    1.90
   0  -7   3    0.40    1.60
   0  -7  -3    2.10    2.10
   0  -7   3   -0.10    0.50
   0  -7   3    0.80    1.80
   0  -7   3    2.70    1.60
   0  -7  -3   -0.30    1.60
   0  -7  -3    1.90    1.80
   0  -7   3   -1.10    1.10
   0  -7  -3   -0.60    1.80
   0  -7  -3    0.50    1.70
   0  -7  -3   -0.90    1.20
   0   7   3   -1.50    1.70
   0   7  -3    0.50    0.90
   0   7   3    1.00    1.90
   0   7   3    1.50    1.30
   0   7  -3    0.50    1.00
   0   7  -3   -2.90    1.50
   0   7  -3   -0.60    0.90
   0   7  -3    0.90    1.50
   0   7   3    2.10    1.80
   0   7   3    0.70    1.70
   0   7  -3    0.10    1.60
  -1  -7  -3    2.00    1.90
  -1  -7  -3    0.30    1.30
  -1  -7  -3    0.40    1.90
   1  -7   3    2.50    1.80
   1  -7   3    2.90    1.30
  -1  -7  -3   -0.80    1.80
   1  -7   3    0.90    1.50
  -1  -7  -3    0.90    1.90
   1  -7   3    1.60    1.80
   1   7   3    0.80    1.60
  -1   7  -3   -0.40    1.30
   1   7   3   -0.30    1.70
   1   7   3    0.80    1.70
  -1   7  -3    0.40    1.70
  -1   7  -3    2.00    1.80
  -1   7  -3    0.90    1.30
   1   7   3    2.00    1.50
  -1   7  -3   -1.60    1.20
   1   7   3   -1.10    1.80
  -1   7  -3   -2.40    1.50
   1   7   3    2.20    1.90
  -1   7  -3    0.40    1.60
   2  -7   3   44.60    4.20
  -2  -7  -3   52.49    4.30
  -2  -7  -3   51.09    4.30
  -2  -7  -3   46.10    4.50
   2  -7   3   46.90    3.80
   2  -7   3   47.40    3.60
  -2  -7  -3   52.49    3.90
  -2  -7  -3   54.09    4.30
   2  -7   3   47.70    4.10
   2  -7   3   40.20    4.30
  -2  -7  -3   51.99    4.30
   2   7   3   51.89    4.40
  -2   7  -3   45.10    4.00
  -2   7  -3   41.80    3.00
   2   7   3   53.89    4.50
   2   7   3   53.09    4.40
  -2   7  -3   39.60    3.60
   2   7   3   50.69    4.00
  -2   7  -3   40.80    4.10
  -2   7  -3   47.80    4.60
   2   7   3   53.29    4.60
  -2   7  -3   48.30    4.10
  -2   7  -3   49.60    4.80
   3  -7   3    3.00    2.40
  -3  -7  -3    1.40    1.90
   3  -7   3    0.80    1.40
   3  -7   3   -2.40    1.90
  -3  -7  -3    2.10    1.90
   3  -7   3   -2.10    1.70
  -3  -7  -3    3.00    2.10
   3  -7   3    4.40    2.30
  -3  -7  -3    0.10    2.20
   3  -7   3   -1.20    1.80
  -3  -7  -3    3.70    1.90
  -3  -7  -3    0.90    2.20
  -3   7  -3    6.40    2.80
  -3   7  -3    3.00    2.70
   3   7   3    0.60    1.90
  -3   7  -3    1.60    2.20
  -3   7  -3    1.50    1.40
  -3   7  -3    0.80    2.20
   3   7   3    0.90    1.80
   3   7   3    1.00    2.00
   3   7   3    2.10    2.10
  -3   7  -3    0.50    2.00
   3   7   3    1.60    2.40
   4  -7   3   12.20    3.10
   4  -7   3    7.70    3.10
   4  -7   3   13.30    2.70
   4  -7   3   15.50    3.30
  -4  -7  -3   17.80    3.30
  -4  -7  -3    9.50    2.60
  -4  -7  -3   12.10    2.80
  -4  -7  -3   11.70    3.40
   4  -7   3   12.20    2.90
   4   7   3    8.20    3.20
   4   7   3    8.80    2.80
   4   7   3    7.50    2.70
  -4   7  -3   12.30    3.30
  -4   7  -3   12.80    3.20
   4   7   3   14.20    3.10
  -4   7  -3   11.00    3.80
   4   7   3   11.90    2.50
  -4   7  -3   14.50    3.50
   5  -7   3    1.80    3.00
   5  -7   3    7.00    3.10
   5  -7   3    9.70    3.40
  -5  -7  -3    9.20    2.80
  -5  -7  -3   14.40    3.90
   5  -7   3    8.40    2.70
   5  -7   3    2.00    3.00
  -5  -7  -3   10.50    3.10
  -5  -7  -3   -0.30    3.20
  -5  -7  -3    8.20    3.30
   5   7   3    6.20    2.80
   5   7   3   11.30    3.40
  -5   7  -3    9.90    3.50
  -5   7  -3    8.40    3.40
  -5   7  -3    8.60    3.20
   5   7   3    5.30    3.00
   5   7   3    7.60    3.50
  -5   7  -3   10.90    4.30
   5   7   3   10.70    3.20
  -6  -7  -3    2.40    3.40
   6  -7   3    0.90    3.30
   6  -7   3   13.20    4.30
   6  -7   3    1.90    3.00
   6  -7   3    2.20    3.40
  -6  -7  -3    3.00    2.80
  -6  -7  -3    5.00    3.90
  -6  -7  -3   -0.40    2.40
  -6   7  -3    4.90    3.80
   6   7   3    3.40    3.50
  -6   7  -3    4.00    4.40
   6   7   3    3.10    2.70
  -6   7  -3   -0.80    3.10
   6   7   3    2.00    3.30
  -6   7  -3    3.80    3.80
   6   7   3   -0.40    2.90
   6   7   3    4.00    3.20
  -7   8   3   29.20    5.70
   7   8  -3   22.20    3.80
   6  -8  -3  182.38   12.20
   6  -8  -3  206.18   12.50
  -6  -8   3  187.98   12.40
   6  -8  -3  220.88   13.40
   6  -8  -3  194.08   12.30
  -6  -8   3  216.18   12.70
  -6  -8   3  195.18   12.10
   6   8  -3  198.88   10.80
  -6   8   3  174.68   13.10
  -6   8   3  225.98   13.00
   6   8  -3  201.98   13.00
  -6   8   3  228.38   12.70
  -6   8   3  228.68   13.10
   6   8  -3  187.18   12.40
  -5  -8   3   75.19    6.60
  -5  -8   3   69.19    6.30
   5  -8  -3   64.49    6.40
   5  -8  -3   76.49    6.90
   5  -8  -3   76.59    7.10
  -5  -8   3   59.49    6.30
   5  -8  -3   61.59    5.50
   5  -8  -3   70.29    5.40
   5  -8  -3   83.89    7.80
   5   8  -3   80.09    7.60
  -5   8   3   73.29    7.70
   5   8  -3   68.69    5.50
  -5   8   3   71.99    6.80
  -5   8   3   71.89    6.90
  -5   8   3   85.49    7.50
   5   8  -3   66.89    4.80
  -5   8   3   58.29    6.10
   5   8  -3   54.69    5.70
   5   8  -3   75.59    7.00
   4  -8  -3  130.79    8.80
   4  -8  -3  137.09    7.50
   4  -8  -3  117.59    8.00
  -4  -8   3  129.49    8.10
  -4  -8   3  128.09    7.90
   4  -8  -3  128.29    6.90
   4  -8  -3  114.29    7.80
  -4  -8   3  113.09    7.80
   4  -8  -3  120.89    7.90
   4   8  -3  112.49    8.00
  -4   8   3  126.99    8.10
   4   8  -3  108.69    7.00
   4   8  -3  121.99    6.60
  -4   8   3  121.99    6.70
  -4   8   3  126.79    8.10
  -4   8   3  128.99    8.80
   4   8  -3  102.29    7.50
   4   8  -3  135.69    8.60
   4   8  -3  113.09    6.30
  -4   8   3  114.79    8.60
  -4   8   3  111.29    8.10
  -3  -8   3  824.52   37.30
   3  -8  -3  817.72   36.40
  -3  -8   3  783.12   37.20
   3  -8  -3  791.92   37.30
   3  -8  -3  874.51   37.00
   3  -8  -3  800.62   37.30
  -3  -8   3  773.12   37.70
   3  -8  -3  895.81   37.40
   3  -8  -3  846.12   37.90
  -3  -8   3  838.92   37.40
  -3   8   3  832.62   37.70
   3   8  -3  795.12   37.50
   3   8  -3  850.81   36.40
  -3   8   3  819.22   37.50
  -3   8   3  823.52   37.40
   3   8  -3  828.72   37.40
  -3   8   3  799.72   37.40
   3   8  -3  818.82   37.60
   3   8  -3  803.02   36.70
  -3   8   3  756.12   37.20
  -3   8   3  835.22   36.50
  -2  -8   3  252.77   12.70
  -2  -8   3  246.48   13.10
  -2  -8   3  270.57   13.10
   2  -8  -3  264.77   13.50
   2  -8  -3  267.47   12.70
  -2  -8   3  246.68   13.30
  -2  -8   3  264.07   12.80
   2  -8  -3  254.47   13.00
   2  -8  -3  262.57   13.10
   2  -8  -3  248.08   11.80
   2  -8  -3  247.38   11.90
  -2   8   3  254.77   13.50
   2   8  -3  248.18   13.10
   2   8  -3  267.57   12.20
  -2   8   3  248.08   12.70
  -2   8   3  261.77   13.00
  -2   8   3  238.98   12.30
   2   8  -3  261.97   13.00
  -2   8   3  246.58   12.90
   2   8  -3  272.17   12.80
  -2   8   3  265.47   13.10
  -1  -8   3  104.49    6.70
   1  -8  -3  111.59    7.00
   1  -8  -3  107.49    6.00
   1  -8  -3  108.19    5.70
   1  -8  -3  107.19    6.50
  -1  -8   3  104.19    6.10
   1  -8  -3  108.59    6.70
   1  -8  -3  103.79    5.40
   1  -8  -3   99.79    6.40
  -1  -8   3   97.49    6.20
   1  -8  -3  105.89    6.90
  -1  -8   3  104.29    6.00
  -1  -8   3  100.79    6.60
  -1   8   3  107.19    6.20
   1   8  -3  100.89    6.70
  -1   8   3   98.19    7.10
  -1   8   3   96.29    6.20
  -1   8   3  101.49    5.80
   1   8  -3  108.39    5.90
   1   8  -3  103.99    6.40
  -1   8   3  110.99    6.80
  -1   8   3  100.79    6.50
   1   8  -3  109.59    6.60
  -1   8   3  110.59    5.70
   0  -8  -3 1405.06   61.89
   0  -8  -3 1429.46   61.99
   0  -8  -3 1494.25   61.99
   0  -8  -3 1415.16   62.19
   0  -8  -3 1467.05   61.89
   0  -8   3 1429.96   61.59
   0  -8   3 1369.56   61.09
   0  -8  -3 1411.16   61.09
   0  -8   3 1295.47   61.89
   0  -8   3 1402.66   61.79
   0  -8   3 1294.67   60.69
   0   8   3 1429.16   62.19
   0   8  -3 1256.27   60.69
   0   8  -3 1327.47   60.69
   0   8  -3 1408.66   60.89
   0   8  -3 1336.07   61.79
   0   8   3 1451.55   61.79
   0   8   3 1528.65   61.79
   0   8  -3 1428.76   61.49
   0   8  -3 1376.26   60.69
   0   8   3 1400.46   61.69
   0   8  -3 1339.17   60.69
   0   8  -3 1474.75   62.19
   0   8   3 1364.46   61.09
   1  -8   3  344.97   16.90
  -1  -8  -3  362.26   17.30
  -1  -8  -3  359.76   17.30
   1  -8   3  352.66   17.10
   1  -8   3  332.07   16.30
  -1  -8  -3  401.06   16.70
   1  -8   3  320.67   17.30
  -1  -8  -3  371.36   17.50
  -1  -8  -3  370.56   17.40
  -1   8  -3  346.77   17.60
   1   8   3  352.86   17.30
   1   8   3  409.76   17.10
  -1   8  -3  349.67   16.40
   1   8   3  355.06   17.40
   1   8   3  374.96   17.00
   1   8   3  353.26   17.00
   1   8   3  389.06   17.70
  -1   8  -3  336.87   16.40
  -1   8  -3  313.77   16.80
  -1   8  -3  360.06   17.10
  -1   8  -3  344.57   17.20
  -1   8  -3  357.96   16.40
  -2  -8  -3    6.50    2.20
   2  -8   3    6.90    2.00
  -2  -8  -3    5.30    2.30
   2  -8   3    3.60    2.10
  -2  -8  -3    5.80    2.10
  -2  -8  -3    8.00    2.10
   2  -8   3    4.10    2.20
  -2  -8  -3    7.10    2.30
   2  -8   3    5.60    2.10
  -2  -8  -3    6.40    2.10
   2  -8   3    8.20    1.80
   2   8   3    5.30    2.40
   2   8   3    7.20    2.20
  -2   8  -3    5.50    1.90
  -2   8  -3    4.50    1.40
   2   8   3    5.10    2.30
  -2   8  -3    5.30    2.40
  -2   8  -3    3.20    1.90
   2   8   3    5.60    2.10
  -2   8  -3    1.40    1.90
  -2   8  -3    9.30    2.60
   2   8   3    5.40    2.10
  -2   8  -3    3.70    2.30
   3  -8   3  589.44   28.00
  -3  -8  -3  656.53   28.10
  -3  -8  -3  626.14   28.00
   3  -8   3  537.05   26.90
   3  -8   3  600.24   27.40
   3  -8   3  582.94   27.50
   3  -8   3  596.94   27.70
   3  -8   3  600.14   28.30
   3  -8   3  549.45   28.10
  -3  -8  -3  614.14   28.30
  -3  -8  -3  635.14   27.70
  -3  -8  -3  580.04   27.70
  -3  -8  -3  606.34   27.70
   3   8   3  621.24   27.90
   3   8   3  597.34   27.80
   3   8   3  626.34   28.00
  -3   8  -3  576.64   28.50
   3   8   3  616.54   27.90
  -3   8  -3  582.04   27.80
  -3   8  -3  585.44   28.30
  -3   8  -3  602.74   28.00
  -3   8  -3  590.74   27.70
   3   8   3  589.34   28.30
   4  -8   3  293.37   15.80
  -4  -8  -3  330.27   15.70
   4  -8   3  295.87   16.40
  -4  -8  -3  326.27   16.50
  -4  -8  -3  301.67   15.90
  -4  -8  -3  316.87   15.70
   4  -8   3  294.47   16.10
   4  -8   3  308.17   15.40
   4  -8   3  311.27   15.70
   4   8   3  316.77   16.00
   4   8   3  323.17   16.60
  -4   8  -3  296.57   16.90
   4   8   3  300.47   15.80
  -4   8  -3  314.87   16.30
  -4   8  -3  309.07   16.40
  -4   8  -3  309.47   16.10
   4   8   3  312.27   16.00
   4   8   3  329.17   15.50
  -5  -8  -3    3.90    2.50
  -5  -8  -3    2.50    2.80
   5  -8   3    9.80    3.50
  -5  -8  -3    1.10    3.00
   5  -8   3    0.00    2.30
   5  -8   3    1.80    3.00
   5  -8   3    2.10    2.90
  -5  -8  -3    5.60    2.60
   5  -8   3    6.10    3.10
  -5  -8  -3    5.30    3.50
   5   8   3    1.80    3.00
  -5   8  -3    3.30    2.90
   5   8   3    2.90    2.80
   5   8   3    5.50    3.50
   5   8   3    5.10    3.00
  -5   8  -3    3.80    3.10
  -5   8  -3    3.00    3.30
  -5   8  -3    1.90    3.10
  -5   8  -3    1.40    3.60
  -6  -8  -3  139.89    9.20
   6  -8   3  133.09   10.10
   6  -8   3  134.19   10.00
   6  -8   3  128.59    9.70
  -6  -8  -3  137.89   10.30
  -6  -8  -3  146.09    9.20
  -6  -8  -3  173.58   11.40
   6  -8   3  116.89   10.10
  -6   8  -3  124.49   10.50
   6   8   3  153.48   10.30
  -6   8  -3  134.89   11.50
   6   8   3  154.28    9.80
  -6   8  -3  139.99   10.80
   6   8   3  143.19    9.70
  -6   8  -3  144.59   10.40
   6   8   3  142.59    9.80
   6   8   3  138.89   10.50
   6  -9  -3   -0.90    3.50
  -6  -9   3    5.80    3.50
   6  -9  -3    9.60    3.70
  -6  -9   3    2.70    3.20
   6  -9  -3    3.60    3.20
  -6  -9   3    2.60    2.80
   6  -9  -3    4.50    3.50
  -6   9   3    0.60    3.70
   6   9  -3    0.10    3.30
   6   9  -3   -0.20    2.80
   6   9  -3   -2.00    2.00
  -6   9   3    3.50    3.60
  -6   9   3    0.40    3.20
  -6   9   3   -1.90    3.80
  -5  -9   3  199.78   12.00
   5  -9  -3  220.38   12.40
  -5  -9   3  214.88   12.20
  -5  -9   3  205.18   12.30
   5  -9  -3  213.68   12.30
   5  -9  -3  221.88   13.20
   5  -9  -3  205.38   11.10
   5  -9  -3  197.98   12.20
  -5   9   3  186.88   12.00
   5   9  -3  198.38   12.00
  -5   9   3  196.88   13.10
  -5   9   3  232.48   12.60
   5   9  -3  214.48   12.50
  -5   9   3  232.78   12.80
   5   9  -3  226.18   12.90
   5   9  -3  194.78   10.40
  -5   9   3  248.08   13.30
   4  -9  -3  463.45   22.10
   4  -9  -3  459.95   22.40
  -4  -9   3  482.15   23.20
   4  -9  -3  477.15   23.20
   4  -9  -3  492.05   23.30
   4  -9  -3  498.65   23.20
   4  -9  -3  527.85   24.10
  -4  -9   3  482.25   23.00
  -4  -9   3  447.26   23.00
   4   9  -3  501.05   21.50
   4   9  -3  491.25   23.50
  -4   9   3  504.85   23.60
  -4   9   3  437.46   23.30
  -4   9   3  468.15   23.60
  -4   9   3  472.75   23.30
   4   9  -3  457.35   21.80
   4   9  -3  437.66   22.90
   4   9  -3  502.15   23.70
  -4   9   3  505.85   23.30
  -3  -9   3    5.80    2.40
  -3  -9   3    3.30    2.60
   3  -9  -3    5.80    3.00
   3  -9  -3    4.80    2.10
   3  -9  -3    5.80    2.70
   3  -9  -3    4.00    2.50
  -3  -9   3    6.60    2.70
   3  -9  -3    5.50    1.80
  -3  -9   3    5.20    2.30
   3   9  -3    6.80    2.50
  -3   9   3    7.00    2.80
  -3   9   3    8.70    3.00
  -3   9   3    2.90    2.70
   3   9  -3    6.40    2.50
   3   9  -3    3.40    1.50
  -3   9   3    6.30    2.70
  -3   9   3    4.20    2.90
   3   9  -3    6.50    2.80
   3   9  -3    5.10    2.00
  -3   9   3    7.50    2.00
   2  -9  -3  860.31   39.10
   2  -9  -3  878.31   40.40
  -2  -9   3  821.12   40.60
   2  -9  -3  924.21   41.00
   2  -9  -3  973.90   40.20
  -2  -9   3  907.61   40.10
  -2  -9   3  937.11   40.40
   2  -9  -3  882.41   39.30
   2  -9  -3  909.71   40.40
  -2  -9   3  860.61   40.00
  -2  -9   3  856.51   40.40
  -2   9   3  895.91   40.40
  -2   9   3  898.01   40.00
   2   9  -3  874.71   40.40
  -2   9   3  906.31   40.20
  -2   9   3  852.01   40.20
  -2   9   3  897.81   40.90
   2   9  -3  907.81   39.50
  -2   9   3  893.61   39.80
   2   9  -3  897.31   40.20
   2   9  -3  873.61   40.70
   1  -9  -3  635.14   29.70
   1  -9  -3  655.23   29.30
   1  -9  -3  636.24   28.20
   1  -9  -3  645.24   29.50
  -1  -9   3  615.64   28.70
  -1  -9   3  629.94   28.70
   1  -9  -3  613.44   28.30
  -1  -9   3  633.74   28.90
  -1  -9   3  615.64   29.40
   1  -9  -3  635.34   28.60
   1  -9  -3  663.03   29.00
  -1  -9   3  645.94   29.40
   1  -9  -3  615.74   29.50
   1   9  -3  642.24   28.60
  -1   9   3  672.33   29.80
  -1   9   3  616.14   28.70
  -1   9   3  608.14   29.20
   1   9  -3  628.74   29.20
  -1   9   3  607.94   29.00
   1   9  -3  668.23   29.40
   1   9  -3  612.24   29.30
  -1   9   3  654.13   28.90
   0  -9  -3   80.69    6.00
   0  -9   3   73.69    5.60
   0  -9  -3   82.59    5.70
   0  -9   3   74.79    4.60
   0  -9  -3   85.79    5.80
   0  -9   3   74.89    5.30
   0  -9   3   66.39    4.00
   0  -9  -3   81.19    5.60
   0  -9  -3   70.59    4.20
   0  -9   3   68.19    5.40
   0  -9  -3   78.49    5.50
   0   9   3   81.79    5.70
   0   9  -3   66.69    4.00
   0   9  -3   69.39    5.80
   0   9  -3   75.29    4.20
   0   9   3   72.09    4.90
   0   9  -3   68.69    5.00
   0   9   3   70.19    5.30
   0   9  -3   69.19    4.20
   0   9  -3   75.99    4.10
   0   9  -3   79.69    5.20
   0   9   3   75.89    6.10
   0   9   3   78.29    5.70
   1  -9   3  332.07   17.80
  -1  -9  -3  374.86   18.10
   1  -9   3  354.96   17.60
  -1  -9  -3  364.06   17.80
  -1  -9  -3  387.16   16.90
   1  -9   3  350.86   17.40
  -1  -9  -3  398.56   17.90
  -1  -9  -3  363.66   17.70
   1  -9   3  358.16   16.80
   1  -9   3  338.67   16.40
  -1   9  -3  358.66   17.40
  -1   9  -3  353.06   16.80
  -1   9  -3  368.16   18.10
  -1   9  -3  370.46   16.90
   1   9   3  405.76   17.30
  -1   9  -3  332.87   16.70
   1   9   3  377.56   18.10
   1   9   3  362.26   17.50
  -1   9  -3  351.76   17.60
   1   9   3  382.76   17.50
   1   9   3  381.96   17.90
   1   9   3  357.86   17.80
   2  -9   3  860.61   39.10
   2  -9   3  865.41   39.40
   2  -9   3  860.41   38.70
  -2  -9  -3  951.10   39.30
   2  -9   3  859.71   39.70
  -2  -9  -3  924.21   40.00
  -2  -9  -3  928.61   39.70
  -2  -9  -3  848.72   39.50
   2  -9   3  793.72   39.80
  -2  -9  -3  875.01   39.50
  -2  -9  -3  883.01   39.80
   2   9   3  906.41   39.90
   2   9   3  898.31   39.60
  -2   9  -3  855.11   39.20
   2   9   3  888.11   39.90
  -2   9  -3  828.22   39.10
   2   9   3  939.71   39.70
  -2   9  -3  822.82   39.70
  -2   9  -3  868.51   39.60
  -2   9  -3  792.92   39.00
   2   9   3  894.91   40.10
  -2   9  -3  874.91   40.20
   3  -9   3  162.58    9.30
  -3  -9  -3  180.18   10.00
   3  -9   3  177.38   10.80
   3  -9   3  181.58   10.10
   3  -9   3  187.08   10.60
   3  -9   3  162.78   10.60
   3  -9   3  184.58   10.20
  -3  -9  -3  186.18   10.70
  -3  -9  -3  210.18   10.40
   3  -9   3  183.58    9.70
  -3  -9  -3  186.78   10.00
  -3  -9  -3  183.38   10.40
  -3  -9  -3  187.38   10.20
   3   9   3  183.58   11.10
   3   9   3  207.28   10.60
   3   9   3  192.78   10.40
  -3   9  -3  180.08   10.20
  -3   9  -3  173.98   11.00
  -3   9  -3  169.58   10.90
   3   9   3  192.38   10.40
   3   9   3  182.98   10.40
  -3   9  -3  185.28   10.80
  -4  -9  -3  157.38    9.60
   4  -9   3  139.59    9.50
  -4  -9  -3  147.79    8.80
  -4  -9  -3  153.68    9.50
   4  -9   3  147.39    8.80
  -4  -9  -3  155.18    9.10
   4  -9   3  149.29    9.00
   4  -9   3  144.99    9.30
  -4  -9  -3  148.09    9.20
   4  -9   3  143.59   10.00
   4   9   3  145.19   10.10
   4   9   3  150.58    9.20
   4   9   3  157.78    8.90
  -4   9  -3  134.89   10.10
  -4   9  -3  153.18    9.60
   4   9   3  167.48    9.60
  -4   9  -3  144.89    9.40
  -4   9  -3  162.38   10.10
  -4   9  -3  149.19   10.00
   4   9   3  142.59    9.30
   5  -9   3  270.37   15.40
   5  -9   3  276.37   15.10
   5  -9   3  277.37   14.90
  -5  -9  -3  307.27   16.00
  -5  -9  -3  274.87   16.00
  -5  -9  -3  285.07   14.80
   5  -9   3  278.07   15.90
   5  -9   3  252.37   15.30
  -5  -9  -3  288.57   15.80
  -5  -9  -3  289.57   15.00
   5   9   3  306.17   15.40
  -5   9  -3  278.37   15.70
  -5   9  -3  266.07   16.40
   5   9   3  312.77   15.60
  -5   9  -3  290.47   15.80
  -5   9  -3  277.17   15.70
   5   9   3  277.37   16.00
   5   9   3  299.27   15.70
  -5   9  -3  253.37   15.40
   6  -9   3   40.70    6.00
  -6  -9  -3   50.29    5.50
  -6  -9  -3   53.69    7.10
  -6  -9  -3   46.50    5.60
   6  -9   3   43.00    6.10
   6  -9   3   48.00    7.30
  -6   9  -3   51.99    7.40
   6   9   3   48.80    6.00
   6   9   3   53.19    6.50
   6   9   3   48.40    5.80
   6   9   3   53.09    6.90
  -6   9  -3   28.20    5.70
  -6 -10   3   10.70    4.00
   6 -10  -3   23.50    4.90
   6 -10  -3   16.40    4.40
   6 -10  -3    8.40    4.30
  -6 -10   3   10.20    3.70
   6  10  -3   16.70    2.90
   6  10  -3    8.90    3.70
   6  10  -3    8.90    4.10
  -6  10   3   19.80    4.90
  -6  10   3   15.20    4.80
  -6  10   3   12.60    5.10
  -6  10   3   10.20    4.00
   5 -10  -3    1.90    3.00
  -5 -10   3    2.80    2.90
  -5 -10   3    8.10    3.40
   5 -10  -3    4.40    3.20
   5 -10  -3    8.10    3.80
   5 -10  -3    8.00    3.50
  -5 -10   3    0.50    2.70
  -5  10   3   13.10    3.80
  -5  10   3    1.30    2.90
  -5  10   3    3.20    3.80
  -5  10   3    2.80    3.80
   5  10  -3    4.60    1.90
   5  10  -3   11.70    4.00
  -5  10   3    6.50    3.40
   5  10  -3    6.90    3.10
   5  10  -3    5.80    3.10
   4 -10  -3    8.50    3.00
   4 -10  -3    6.30    2.30
   4 -10  -3   13.10    3.50
   4 -10  -3   11.70    2.40
   4 -10  -3   12.00    3.60
  -4 -10   3    8.50    3.20
  -4 -10   3    8.20    3.10
  -4 -10   3   14.10    3.00
   4 -10  -3   12.20    4.00
  -4  10   3    7.80    3.20
   4  10  -3   15.30    3.90
  -4  10   3    1.20    3.10
   4  10  -3    7.20    3.20
   4  10  -3    9.40    1.70
  -4  10   3    6.10    3.80
   4  10  -3    6.30    2.90
  -4  10   3    7.50    3.80
  -4  10   3    4.90    3.30
   3 -10  -3   42.90    4.10
  -3 -10   3   45.80    4.70
  -3 -10   3   40.80    5.10
  -3 -10   3   33.70    4.20
   3 -10  -3   45.50    5.00
   3 -10  -3   30.80    4.80
  -3 -10   3   32.70    4.00
   3 -10  -3   41.80    3.50
   3 -10  -3   42.10    4.80
  -3  10   3   26.90    4.30
  -3  10   3   38.60    3.80
   3  10  -3   47.70    5.00
  -3  10   3   39.90    4.90
  -3  10   3   30.40    4.50
   3  10  -3   40.40    4.90
  -3  10   3   27.40    4.00
   3  10  -3   37.10    4.40
  -3  10   3   34.90    4.60
   3  10  -3   37.10    3.80
   2 -10  -3   60.89    4.10
  -2 -10   3   66.79    5.40
   2 -10  -3   58.69    5.50
   2 -10  -3   55.39    5.70
   2 -10  -3   67.29    5.20
  -2 -10   3   59.09    4.90
   2 -10  -3   62.29    5.70
  -2 -10   3   65.99    5.80
  -2 -10   3   64.69    4.90
  -2 -10   3   59.79    5.90
  -2  10   3   64.19    4.80
  -2  10   3   64.69    5.40
   2  10  -3   57.69    5.10
   2  10  -3   57.39    4.30
  -2  10   3   62.09    5.70
   2  10  -3   52.69    5.70
   2  10  -3   64.49    5.10
  -2  10   3   53.19    5.70
   2  10  -3   66.59    5.60
  -2  10   3   58.49    5.30
  -2  10   3   53.49    4.90
   1 -10  -3   14.40    2.00
   1 -10  -3   11.40    3.20
   1 -10  -3   11.40    3.00
   1 -10  -3   12.80    1.90
   1 -10  -3   10.50    1.70
  -1 -10   3   11.70    1.60
   1 -10  -3   14.90    3.30
  -1 -10   3   13.70    2.40
  -1 -10   3   12.40    2.90
  -1 -10   3   16.80    2.60
   1 -10  -3   16.50    3.10
   1 -10  -3    7.10    2.50
  -1 -10   3    7.50    2.40
  -1 -10   3   13.60    2.90
  -1  10   3   10.90    2.40
  -1  10   3    9.00    2.90
   1  10  -3   12.30    2.20
  -1  10   3   13.00    2.70
   1  10  -3   13.50    2.90
  -1  10   3   15.80    2.80
  -1  10   3   13.80    2.90
   1  10  -3    7.30    2.40
   1  10  -3   13.80    2.70
   0 -10  -3  110.99    7.20
   0 -10   3   95.39    5.90
   0 -10   3   95.59    6.70
   0 -10  -3  102.29    5.40
   0 -10  -3  107.79    6.80
   0 -10   3   97.09    7.00
   0 -10  -3  108.89    7.40
   0 -10   3  102.49    6.60
   0 -10   3   91.99    5.40
   0 -10  -3  111.39    6.80
   0 -10  -3  120.79    6.90
   0  10   3  102.09    6.10
   0  10  -3   92.89    7.00
   0  10   3  111.79    7.00
   0  10  -3  102.19    6.30
   0  10  -3  104.69    5.60
   0  10   3  108.79    7.50
   0  10  -3  104.19    5.60
   0  10   3  101.09    6.70
   0  10  -3  107.49    6.50
   0  10  -3  108.99    5.60
   0  10   3  113.39    7.10
   0  10  -3  103.19    5.40
   1 -10   3   24.70    2.70
   1 -10   3   25.10    2.30
   1 -10   3   24.70    3.30
  -1 -10  -3   26.10    3.50
   1 -10   3   24.90    3.70
  -1 -10  -3   25.10    3.60
  -1 -10  -3   29.10    2.70
   1 -10   3   21.00    3.30
  -1 -10  -3   21.00    3.80
  -1 -10  -3   20.50    3.40
   1  10   3   18.40    3.50
   1  10   3   23.40    2.60
  -1  10  -3   21.60    3.10
  -1  10  -3   31.10    3.60
  -1  10  -3   20.60    3.40
   1  10   3   18.30    3.50
  -1  10  -3   23.00    2.50
  -1  10  -3   20.60    2.60
   1  10   3   23.00    3.30
   1  10   3   22.70    3.30
   1  10   3   20.60    3.40
  -2 -10  -3    3.10    1.80
  -2 -10  -3    1.80    2.10
  -2 -10  -3    2.80    2.40
  -2 -10  -3    1.80    2.20
   2 -10   3    2.30    1.80
  -2 -10  -3    0.40    2.40
  -2 -10  -3    4.60    2.40
   2 -10   3    6.00    2.60
   2 -10   3    3.50    2.40
   2 -10   3    3.10    1.60
   2 -10   3    3.20    2.30
  -2  10  -3    3.30    2.60
   2  10   3    4.40    2.30
   2  10   3    3.10    2.30
  -2  10  -3    1.40    1.90
   2  10   3    3.40    2.80
   2  10   3    1.90    2.40
  -2  10  -3    1.90    2.60
   2  10   3    2.40    2.40
  -2  10  -3   -0.60    2.30
   3 -10   3   38.60    4.30
  -3 -10  -3   40.70    4.70
  -3 -10  -3   34.40    3.90
   3 -10   3   31.30    4.60
   3 -10   3   32.70    4.00
   3 -10   3   35.00    3.80
  -3 -10  -3   40.90    4.50
   3 -10   3   31.20    4.70
  -3 -10  -3   37.70    4.10
  -3 -10  -3   36.90    4.20
   3 -10   3   27.20    4.00
  -3 -10  -3   36.70    4.50
   3  10   3   36.50    4.30
   3  10   3   33.30    4.40
  -3  10  -3   30.10    4.60
   3  10   3   34.00    4.30
  -3  10  -3   35.80    4.40
  -3  10  -3   35.10    4.20
   3  10   3   43.30    4.60
  -3  10  -3   25.00    4.40
  -3  10  -3   25.60    4.30
   3  10   3   40.10    5.10
  -4 -10  -3   47.80    4.70
   4 -10   3   44.10    4.70
   4 -10   3   42.70    5.30
  -4 -10  -3   44.00    4.70
   4 -10   3   37.80    4.40
  -4 -10  -3   39.20    4.70
  -4 -10  -3   46.70    5.30
   4 -10   3   43.10    5.60
   4 -10   3   33.60    4.70
   4 -10   3   40.50    5.30
  -4 -10  -3   45.50    5.10
  -4  10  -3   38.10    5.20
   4  10   3   34.00    4.20
   4  10   3   35.60    4.80
   4  10   3   45.70    5.70
  -4  10  -3   41.70    5.30
  -4  10  -3   30.70    4.60
  -4  10  -3   28.40    4.80
  -4  10  -3   39.20    5.50
   4  10   3   44.00    5.00
   4  10   3   37.10    4.80
   5 -10   3    0.30    3.10
   5 -10   3    2.00    3.50
  -5 -10  -3    3.10    3.20
  -5 -10  -3    3.60    3.30
  -5 -10  -3    5.80    2.90
  -5 -10  -3    4.30    2.50
   5 -10   3    2.10    3.30
   5 -10   3    3.40    3.00
  -5  10  -3   -2.20    3.20
  -5  10  -3    3.90    3.10
   5  10   3    6.90    3.30
  -5  10  -3   -1.80    3.20
  -5  10  -3    3.60    3.70
   5  10   3    6.20    3.20
   5  10   3    1.30    3.00
  -5  10  -3    4.60    4.00
   5  10   3   -0.70    3.20
   6 -10   3    5.50    5.80
   6 -10   3   11.80    3.90
  -6 -10  -3   11.30    3.60
   6  10   3    5.90    3.30
  -6  10  -3    8.90    4.60
   6  10   3   10.80    4.60
   6 -11  -3    8.40    4.10
   6 -11  -3   -0.10    3.30
   6 -11  -3   -4.90    3.60
  -6 -11   3   -0.50    4.60
  -6  11   3   -0.80    3.60
  -6  11   3    1.90    3.40
  -6  11   3   -1.40    4.10
   5 -11  -3   63.39    6.80
  -5 -11   3   61.19    6.60
   5 -11  -3   61.69    6.50
   5 -11  -3   72.19    7.70
   5 -11  -3   61.09    6.60
  -5 -11   3   60.89    6.50
   5  11  -3   62.39    4.50
  -5  11   3   50.29    6.60
   5  11  -3   51.59    6.20
  -5  11   3   45.50    6.00
   5  11  -3   66.79    7.30
   5  11  -3   63.09    6.80
  -5  11   3   59.79    7.20
  -5  11   3   55.89    6.50
  -5  11   3   63.29    7.00
  -4 -11   3   95.89    7.30
   4 -11  -3  108.19    8.10
  -4 -11   3  104.79    7.60
  -4 -11   3   91.59    8.00
   4 -11  -3  112.79    6.70
  -4 -11   3   94.59    7.40
   4 -11  -3  106.59    7.90
   4 -11  -3  106.29    9.10
  -4  11   3  114.69    8.30
   4  11  -3  108.39    8.10
  -4  11   3  102.79    8.80
  -4  11   3   98.09    8.50
  -4  11   3  112.29    8.60
   4  11  -3  119.59    8.60
   4  11  -3   94.59    7.80
  -3 -11   3    5.40    2.60
  -3 -11   3   -0.40    2.40
   3 -11  -3    5.40    2.80
  -3 -11   3    3.70    2.60
   3 -11  -3    1.40    1.80
   3 -11  -3    2.60    3.30
   3 -11  -3   -1.00    2.40
  -3 -11   3    6.40    2.90
   3 -11  -3   -1.00    2.00
   3  11  -3    6.30    2.80
   3  11  -3    3.70    2.90
  -3  11   3    2.90    2.20
  -3  11   3    1.50    2.70
  -3  11   3    1.00    3.30
  -3  11   3    1.00    3.10
   3  11  -3    0.60    1.90
  -3  11   3    0.70    2.80
  -3  11   3    3.80    2.80
   2 -11  -3  174.88   10.90
  -2 -11   3  175.18    9.60
  -2 -11   3  166.58   10.10
   2 -11  -3  186.38    9.60
   2 -11  -3  189.28   11.00
   2 -11  -3  159.58   10.20
  -2 -11   3  168.88    9.50
   2 -11  -3  176.58   10.00
   2 -11  -3  159.98    8.80
  -2 -11   3  159.18   10.40
  -2 -11   3  186.68    9.90
  -2  11   3  176.78    9.60
  -2  11   3  178.18   10.30
   2  11  -3  166.08   10.20
   2  11  -3  178.98    8.90
  -2  11   3  159.88   10.70
  -2  11   3  173.28   10.00
   2  11  -3  169.48    9.90
  -2  11   3  174.78   10.10
   2  11  -3  162.28   10.60
   2  11  -3  173.48    9.90
  -2  11   3  173.78    9.50
  -1 -11   3  211.68   10.70
  -1 -11   3  195.98   11.30
   1 -11  -3  221.28   11.10
  -1 -11   3  196.48   11.60
  -1 -11   3  205.68   10.50
   1 -11  -3  193.48   10.10
   1 -11  -3  201.28    9.90
   1 -11  -3  209.88   12.00
   1 -11  -3  209.58   11.30
   1 -11  -3  216.38   11.70
  -1  11   3  210.38   11.00
   1  11  -3  197.58   11.30
   1  11  -3  199.98   10.70
  -1  11   3  196.18   11.40
  -1  11   3  197.68   11.10
  -1  11   3  215.88   10.80
   1  11  -3  193.88   11.30
  -1  11   3  217.08   12.20
   1  11  -3  210.18   10.50
   0 -11   3    5.10    2.70
   0 -11  -3   13.00    2.80
   0 -11   3    4.30    2.50
   0 -11  -3    6.20    2.80
   0 -11  -3    5.30    2.50
   0 -11   3    9.70    2.00
   0 -11  -3    7.60    3.00
   0 -11   3    5.10    2.40
   0 -11  -3    8.80    2.70
   0  11  -3    5.20    2.00
   0  11   3    7.30    2.20
   0  11  -3    9.20    1.60
   0  11  -3    5.80    1.50
   0  11  -3    7.90    1.80
   0  11  -3    7.80    1.50
   0  11   3   11.60    2.80
   0  11  -3    4.60    2.60
   0  11  -3    9.40    1.80
   0  11   3   14.30    3.10
   0  11   3   13.00    3.00
   0  11   3    5.60    2.90
   0  11  -3    9.50    2.50
   1 -11   3   95.69    7.10
   1 -11   3  106.29    7.10
  -1 -11  -3  111.89    7.90
  -1 -11  -3  110.99    7.30
   1 -11   3  100.19    5.80
   1 -11   3  109.29    6.20
  -1 -11  -3   92.29    6.80
  -1 -11  -3  115.29    5.70
   1 -11   3   96.09    7.40
  -1 -11  -3  120.09    7.40
  -1 -11  -3  114.09    7.20
   1  11   3  115.89    7.10
  -1  11  -3  103.79    6.80
   1  11   3  114.89    7.50
  -1  11  -3  107.59    6.40
   1  11   3  106.89    7.70
  -1  11  -3  111.29    6.30
  -1  11  -3  105.39    7.20
  -1  11  -3   93.49    7.80
   1  11   3  114.59    8.00
   1  11   3  105.99    7.00
   2 -11   3  197.48    9.80
  -2 -11  -3  203.68   10.00
  -2 -11  -3  191.18   11.10
   2 -11   3  187.88   10.70
   2 -11   3  198.98   11.20
   2 -11   3  178.08   10.10
   2 -11   3  163.38   11.10
  -2 -11  -3  189.38   10.70
  -2 -11  -3  193.08   10.60
  -2 -11  -3  195.68   11.30
  -2 -11  -3  209.68   11.20
   2  11   3  192.68   10.90
   2  11   3  207.58   11.00
   2  11   3  232.98   12.10
  -2  11  -3  194.58   10.50
   2  11   3  197.88   11.20
  -2  11  -3  183.68   11.70
  -2  11  -3  186.98   11.00
  -2  11  -3  198.38   11.20
   2  11   3  217.28   11.60
  -2  11  -3  190.98   10.40
   3 -11   3   26.30    3.70
   3 -11   3   27.20    4.30
  -3 -11  -3   22.10    4.00
   3 -11   3   24.80    3.40
  -3 -11  -3   20.80    3.20
  -3 -11  -3   26.00    4.00
  -3 -11  -3   30.50    4.10
   3 -11   3   29.00    4.60
  -3 -11  -3   21.80    3.90
   3 -11   3   23.80    3.60
  -3 -11  -3   28.60    4.30
  -3 -11  -3   21.90    3.80
   3  11   3   29.10    4.80
  -3  11  -3   26.10    3.90
  -3  11  -3   17.00    3.90
   3  11   3   21.20    3.90
   3  11   3   28.60    4.00
   3  11   3   28.60    4.00
   3  11   3   20.70    3.60
  -3  11  -3   19.70    3.50
  -3  11  -3   23.70    4.20
  -3  11  -3   18.60    4.00
  -4 -11  -3   50.49    5.50
   4 -11   3   38.60    5.50
  -4 -11  -3   39.30    5.10
  -4 -11  -3   30.10    4.30
   4 -11   3   28.70    4.10
   4 -11   3   38.30    5.30
  -4 -11  -3   40.20    4.40
   4 -11   3   40.90    7.10
   4 -11   3   34.90    4.40
  -4  11  -3   39.40    5.10
   4  11   3   38.10    4.90
  -4  11  -3   37.00    5.30
   4  11   3   31.30    4.80
   4  11   3   31.60    5.50
  -4  11  -3   28.70    5.10
   4  11   3   31.80    4.20
  -4  11  -3   43.30    5.70
  -4  11  -3   33.80    5.10
   4  11   3   42.70    5.10
  -5 -11  -3   89.99    7.70
  -5 -11  -3   84.29    7.70
   5 -11   3   75.09    6.80
  -5 -11  -3   80.19    6.40
   5 -11   3   80.59    8.30
   5 -11   3   69.69    7.10
   5 -11   3   66.39    7.60
  -5  11  -3   90.89    8.30
  -5  11  -3   58.09    7.10
  -5  11  -3   81.59    7.70
  -5  11  -3   75.69    7.80
   5  11   3   67.49    7.60
   5  11   3   83.99    7.10
  -5  11  -3   80.99    8.60
   5  11   3   77.99    7.50
   5  11   3   70.59    7.10
  -6 -11  -3   13.70    3.90
   6 -11   3    4.80    3.60
   6  11   3   10.80    3.90
  -6  11  -3    8.70    4.70
   6 -12  -3  121.29   11.10
   6 -12  -3  116.99   12.20
  -6  12   3  129.09   13.90
  -6  12   3  130.89   11.20
  -5 -12   3   26.50    4.80
  -5 -12   3   30.50    5.10
   5 -12  -3   37.00    5.40
   5 -12  -3   42.20    5.90
   5 -12  -3   41.70    6.50
  -5  12   3   44.40    6.30
  -5  12   3   28.70    5.30
   5  12  -3   26.90    5.40
  -5  12   3   35.20    6.10
  -5  12   3   28.40    5.60
   5  12  -3   24.40    5.00
  -5  12   3   34.10    5.70
   5  12  -3   43.10    5.70
   4 -12  -3   41.10    6.10
  -4 -12   3   37.90    4.80
  -4 -12   3   41.20    5.60
   4 -12  -3   39.60    5.40
   4 -12  -3   40.20    5.40
  -4 -12   3   50.69    5.50
  -4 -12   3   56.29    6.50
  -4  12   3   29.80    5.40
   4  12  -3   30.20    4.90
   4  12  -3   37.00    5.50
  -4  12   3   40.60    5.50
  -4  12   3   37.30    5.40
  -4  12   3   48.80    6.10
  -4  12   3   38.60    5.90
   4  12  -3   41.10    5.70
   3 -12  -3  387.46   19.70
  -3 -12   3  419.76   21.60
   3 -12  -3  396.96   20.90
  -3 -12   3  442.76   20.70
   3 -12  -3  425.06   21.10
   3 -12  -3  446.56   22.00
  -3 -12   3  421.16   20.70
  -3 -12   3  411.96   20.60
   3 -12  -3  425.06   20.30
  -3  12   3  435.96   20.40
  -3  12   3  437.66   21.40
   3  12  -3  439.26   21.70
  -3  12   3  401.46   20.90
  -3  12   3  400.86   20.60
  -3  12   3  442.56   22.00
   3  12  -3  413.86   21.20
  -3  12   3  462.85   21.30
   3  12  -3  404.76   20.30
   2 -12  -3  161.88    9.80
   2 -12  -3  152.88   10.50
  -2 -12   3  162.88    9.30
   2 -12  -3  149.19    8.40
   2 -12  -3  153.08   10.20
   2 -12  -3  172.28   10.90
  -2 -12   3  148.69    9.00
  -2 -12   3  155.48   10.20
  -2 -12   3  157.28    9.90
   2 -12  -3  173.48    9.30
  -2  12   3  162.08   10.80
  -2  12   3  168.68   10.00
  -2  12   3  154.18    9.10
   2  12  -3  156.68   10.50
  -2  12   3  166.98    9.90
   2  12  -3  163.18   10.10
   2  12  -3  164.68    9.70
   2  12  -3  167.58    8.60
   2  12  -3  165.28    9.60
  -2  12   3  164.38    9.40
  -2  12   3  162.18    9.80
  -1 -12   3   17.40    3.80
  -1 -12   3   24.30    3.80
   1 -12  -3   20.30    2.60
  -1 -12   3   21.90    3.10
   1 -12  -3   15.70    3.80
   1 -12  -3   25.00    3.90
   1 -12  -3   25.70    3.60
   1 -12  -3   15.80    3.70
   1 -12  -3   24.00    3.70
  -1 -12   3   18.30    2.90
  -1  12   3   25.20    4.00
   1  12  -3   21.50    3.60
   1  12  -3   23.90    2.40
   1  12  -3   14.70    3.30
  -1  12   3   25.10    3.80
   1  12  -3   19.30    2.90
   1  12  -3   19.20    2.90
  -1  12   3   18.20    3.40
  -1  12   3   23.90    3.40
  -1  12   3   22.90    4.30
   0 -12  -3  711.23   33.60
   0 -12  -3  724.83   33.60
   0 -12   3  723.63   32.90
   0 -12   3  670.83   33.50
   0 -12   3  684.43   33.00
   0 -12   3  680.23   32.10
   0 -12  -3  736.13   33.10
   0 -12  -3  770.62   33.00
   0 -12  -3  695.13   32.80
   0  12   3  772.32   34.00
   0  12   3  748.63   33.30
   0  12   3  751.02   33.30
   0  12  -3  697.23   31.90
   0  12  -3  672.63   31.90
   0  12   3  738.73   33.00
   0  12  -3  695.53   33.40
   0  12  -3  706.13   32.40
   0  12   3  697.43   32.10
   0  12  -3  682.03   31.70
   0  12  -3  730.03   32.60
   0  12  -3  730.53   33.70
   1 -12   3  175.68   10.50
   1 -12   3  177.48   10.30
  -1 -12  -3  197.58   10.60
  -1 -12  -3  178.68   10.30
  -1 -12  -3  183.88   10.40
   1 -12   3  167.28    9.00
   1 -12   3  184.58   11.00
  -1 -12  -3  178.78   10.00
  -1 -12  -3  172.98   10.90
  -1  12  -3  168.68   11.00
  -1  12  -3  175.28    9.80
   1  12   3  189.38   10.70
  -1  12  -3  178.68    9.50
   1  12   3  197.58   11.40
  -1  12  -3  178.38    9.50
   1  12   3  185.38   10.30
   1  12   3  188.48   11.10
   1  12   3  182.68   10.30
  -1  12  -3  188.08   10.40
   2 -12   3    0.50    2.40
  -2 -12  -3    2.20    2.90
  -2 -12  -3   -3.50    2.30
  -2 -12  -3    3.40    2.70
   2 -12   3    6.60    3.10
  -2 -12  -3    1.90    2.20
   2 -12   3   -0.50    2.40
  -2 -12  -3    0.30    2.20
   2  12   3    1.10    2.70
  -2  12  -3    0.20    2.40
   2  12   3   -1.20    2.80
   2  12   3   -0.50    2.40
   2  12   3    1.10    2.50
   2  12   3    0.10    2.40
  -2  12  -3    3.70    2.40
  -2  12  -3   -4.80    2.50
  -2  12  -3    0.40    2.70
  -2  12  -3   -1.80    1.90
  -3 -12  -3  336.07   16.70
  -3 -12  -3  322.77   16.50
   3 -12   3  273.97   16.70
  -3 -12  -3  321.17   16.60
   3 -12   3  325.57   16.00
  -3 -12  -3  305.97   16.00
  -3 -12  -3  343.77   16.20
   3 -12   3  304.57   15.30
   3 -12   3  284.37   16.30
  -3 -12  -3  301.57   15.50
   3  12   3  340.87   17.40
   3  12   3  289.37   15.90
  -3  12  -3  295.07   16.30
  -3  12  -3  307.27   16.00
   3  12   3  308.07   16.40
   3  12   3  323.87   16.40
  -3  12  -3  317.07   16.70
  -3  12  -3  324.97   17.30
  -3  12  -3  296.17   15.90
   3  12   3  319.37   16.40
   4 -12   3  138.79   10.10
   4 -12   3  141.39   10.60
  -4 -12  -3  162.78   10.00
  -4 -12  -3  150.08    8.90
  -4 -12  -3  147.59    9.50
  -4 -12  -3  149.49    9.80
   4 -12   3  153.58    9.40
   4 -12   3  140.49    9.10
   4  12   3  165.28   10.10
   4  12   3  162.98   11.10
  -4  12  -3  131.99    9.80
  -4  12  -3  158.28   10.20
  -4  12  -3  137.29   10.20
  -4  12  -3  147.89   10.80
   4  12   3  146.69    9.70
   4  12   3  161.58    9.80
  -4  12  -3  142.69   10.70
   4  12   3  159.88   10.00
  -5 -12  -3    6.00    3.40
   5 -12   3    9.80    3.60
   5 -12   3    1.80    3.40
   5 -12   3    8.40    4.00
  -5 -12  -3    6.10    3.20
   5  12   3    5.10    3.40
  -5  12  -3    6.70    3.90
   5  12   3    3.80    4.00
   5  12   3    0.40    3.20
  -5  12  -3    8.00    3.70
  -5  12  -3    0.00    3.80
   5  12   3    6.40    3.40
  -5  12  -3   12.10    4.50
  -5  12  -3   11.70    4.40
   5 -13  -3   36.40    6.40
  -5 -13   3   33.50    5.10
   5 -13  -3   23.80    4.90
  -5 -13   3   36.30    5.00
  -5  13   3   37.30    6.00
  -5  13   3   26.10    5.10
  -5  13   3   27.80    5.70
  -5  13   3   22.50    5.40
   5  13  -3   28.40    5.10
   5  13  -3   30.50    5.60
  -5  13   3   26.70    5.40
   5  13  -3   22.80    5.00
   4 -13  -3   73.79    7.40
  -4 -13   3   82.29    6.90
  -4 -13   3   81.59    6.90
  -4 -13   3   57.29    7.20
   4 -13  -3   89.59    7.50
   4 -13  -3   76.39    8.30
  -4  13   3   83.99    8.10
   4  13  -3   83.09    8.00
   4  13  -3   71.09    7.30
  -4  13   3   94.89    8.40
  -4  13   3   76.09    7.80
  -4  13   3   88.29    8.20
  -4  13   3   77.99    7.90
   4  13  -3   73.29    7.60
   3 -13  -3    0.10    3.50
  -3 -13   3    3.20    2.70
  -3 -13   3   -1.80    2.20
   3 -13  -3    2.30    3.00
   3 -13  -3    2.20    2.00
  -3 -13   3    6.20    3.50
  -3 -13   3    7.20    3.10
   3 -13  -3    0.50    3.30
   3 -13  -3    4.80    3.50
  -3  13   3    1.80    3.40
  -3  13   3   -2.60    3.30
   3  13  -3   -2.20    3.00
  -3  13   3   -0.50    2.90
   3  13  -3    0.20    3.00
   3  13  -3    0.40    2.10
  -3  13   3    2.90    3.40
  -3  13   3    2.90    3.20
  -3  13   3    2.90    2.60
  -2 -13   3   87.89    7.00
  -2 -13   3   78.39    5.90
   2 -13  -3   84.09    6.10
   2 -13  -3   90.19    8.10
   2 -13  -3   79.79    7.80
   2 -13  -3   76.29    5.30
  -2 -13   3   67.79    7.10
   2 -13  -3   86.49    6.80
   2 -13  -3   96.99    8.30
  -2 -13   3   74.59    6.10
   2  13  -3   68.99    7.10
   2  13  -3   64.79    5.40
   2  13  -3   88.39    6.70
  -2  13   3   82.99    6.90
   2  13  -3   69.49    6.30
  -2  13   3   75.79    5.90
  -2  13   3   79.09    6.40
   2  13  -3   79.69    7.20
  -2  13   3   81.19    7.30
  -2  13   3   84.69    8.00
  -2  13   3   62.99    6.30
  -1 -13   3  104.39    8.40
   1 -13  -3  108.69    7.90
   1 -13  -3  122.49    8.70
   1 -13  -3  125.99    7.60
   1 -13  -3  104.79    8.60
  -1 -13   3  113.09    7.00
   1 -13  -3  116.09    6.70
  -1 -13   3  117.09    8.00
  -1 -13   3  112.09    7.30
   1 -13  -3  120.99    8.00
  -1  13   3  115.69    8.10
  -1  13   3  127.09    9.20
  -1  13   3  115.59    8.00
   1  13  -3  126.49    8.50
  -1  13   3  119.59    7.90
  -1  13   3  126.69    7.70
   1  13  -3  110.69    6.00
   1  13  -3  121.39    7.00
   1  13  -3  113.29    8.40
   1  13  -3  116.19    7.10
   1  13  -3  117.79    7.00
   0 -13   3   11.70    3.40
   0 -13  -3   16.40    3.40
   0 -13  -3   10.60    3.50
   0 -13   3   17.30    3.50
   0 -13  -3   14.70    3.10
   0 -13  -3    7.60    2.70
   0 -13   3   14.60    2.70
   0  13  -3   15.50    3.10
   0  13  -3   10.90    2.50
   0  13  -3   16.50    3.80
   0  13   3   18.20    4.20
   0  13  -3   15.20    2.40
   0  13   3   11.30    2.60
   0  13   3   12.80    3.30
   0  13  -3   14.00    3.60
   0  13   3   17.70    3.60
   0  13  -3   11.70    2.40
   0  13   3   11.40    3.20
   0  13  -3   11.20    2.20
   1 -13   3   11.90    3.70
   1 -13   3   14.70    3.40
  -1 -13  -3   23.30    2.90
   1 -13   3   21.10    3.60
  -1 -13  -3   11.20    3.20
   1 -13   3   16.10    2.40
  -1 -13  -3   10.60    3.70
  -1 -13  -3   18.40    3.50
  -1 -13  -3   19.20    3.40
  -1 -13  -3   16.90    3.10
   1  13   3   19.00    4.00
  -1  13  -3   15.70    2.90
   1  13   3   21.70    3.90
  -1  13  -3   16.80    3.50
   1  13   3   14.00    3.40
   1  13   3   16.10    3.80
   1  13   3   15.00    3.40
  -1  13  -3   20.80    3.10
  -1  13  -3   18.40    4.00
  -1  13  -3   20.30    2.90
  -2 -13  -3  130.29    8.70
   2 -13   3  144.79    9.00
  -2 -13  -3  141.09    9.10
  -2 -13  -3  126.29    8.20
  -2 -13  -3  153.78    9.20
   2 -13   3  132.09    9.10
  -2 -13  -3  130.79    8.20
   2 -13   3  125.39    9.60
  -2 -13  -3  136.79    9.70
  -2  13  -3  127.59    8.20
  -2  13  -3  151.28    9.40
  -2  13  -3  128.39    8.50
  -2  13  -3  142.79   10.00
   2  13   3  149.59    9.70
   2  13   3  147.19    9.10
  -2  13  -3  131.19    8.40
   2  13   3  154.38    9.20
   2  13   3  144.19   10.00
   2  13   3  128.79    9.20
  -3 -13  -3   40.30    4.20
   3 -13   3   41.50    5.10
  -3 -13  -3   37.60    4.80
  -3 -13  -3   41.70    5.50
   3 -13   3   42.50    5.80
  -3 -13  -3   55.99    5.30
   3 -13   3   42.60    5.50
   3  13   3   38.90    4.90
  -3  13  -3   46.00    5.20
   3  13   3   38.40    5.30
   3  13   3   44.30    5.30
  -3  13  -3   42.40    5.20
  -3  13  -3   37.80    4.70
   3  13   3   29.80    4.70
   3  13   3   35.60    5.70
  -3  13  -3   36.80    5.20
  -3  13  -3   36.60    5.60
  -4 -13  -3   19.40    4.20
   4 -13   3   14.70    4.00
  -4 -13  -3    8.00    3.20
   4 -13   3   10.30    3.40
  -4 -13  -3    9.20    4.30
   4 -13   3   11.50    4.00
  -4 -13  -3    6.90    3.40
  -4  13  -3    9.20    4.00
   4  13   3    9.40    3.40
   4  13   3   15.40    4.50
   4  13   3   15.00    3.90
  -4  13  -3   14.60    4.10
   4  13   3    5.20    3.30
  -4  13  -3   10.20    4.00
  -4  13  -3   11.60    3.60
  -4  13  -3   11.10    4.10
  -5 -13  -3   50.49    6.20
   5 -13   3   49.70    6.90
  -5 -13  -3   53.99    6.40
   5 -13   3   49.40    7.90
   5  13   3   42.10    5.90
  -5  13  -3   39.70    6.50
  -5  13  -3   60.09    7.20
  -5  13  -3   33.80    8.50
   5  13   3   56.09    6.40
   5 -14  -3    5.80    4.60
   5 -14  -3    7.10    4.00
  -5 -14   3   -1.60    2.90
   5 -14  -3   -6.00    5.50
   5  14  -3    1.00    3.40
  -5  14   3   -5.00    3.70
  -5  14   3    0.10    4.30
  -5  14   3    2.10    3.90
   4 -14  -3    9.90    4.00
  -4 -14   3    5.80    4.00
  -4 -14   3    4.40    3.20
   4 -14  -3    5.70    3.80
  -4 -14   3   13.20    3.70
   4 -14  -3    2.60    4.10
  -4  14   3    6.60    3.90
   4  14  -3   15.90    4.40
  -4  14   3    7.40    4.40
  -4  14   3    5.20    4.20
   4  14  -3   10.80    3.80
   4  14  -3    6.40    4.00
  -4  14   3    1.70    3.90
  -4  14   3   14.20    4.50
   3 -14  -3   12.60    3.60
  -3 -14   3   20.30    3.70
   3 -14  -3   16.80    4.90
  -3 -14   3   16.90    4.40
   3 -14  -3   19.00    5.00
   3 -14  -3   14.00    4.30
  -3 -14   3   21.70    4.10
  -3  14   3   14.80    4.10
   3  14  -3   16.00    4.20
   3  14  -3   21.10    4.80
  -3  14   3   11.60    3.90
   3  14  -3    9.20    3.20
  -3  14   3   13.00    4.30
  -3  14   3   17.50    3.60
  -3  14   3   10.60    3.70
  -3  14   3   12.30    4.40
   2 -14  -3   10.80    4.30
   2 -14  -3   15.30    4.50
   2 -14  -3   19.60    4.00
  -2 -14   3   20.20    4.40
   2 -14  -3   18.30    4.70
  -2 -14   3   15.40    3.70
  -2 -14   3   16.70    3.60
  -2 -14   3   16.60    3.30
   2 -14  -3   12.20    2.60
   2  14  -3   13.80    3.30
  -2  14   3   13.50    3.50
  -2  14   3   16.20    3.80
  -2  14   3   14.30    3.70
   2  14  -3   11.10    3.70
   2  14  -3   16.40    3.60
  -2  14   3   19.70    4.20
  -2  14   3   12.70    4.10
   2  14  -3   17.50    4.30
  -1 -14   3   12.50    3.90
   1 -14  -3   15.10    3.50
  -1 -14   3   13.50    3.40
   1 -14  -3   13.30    3.20
   1 -14  -3   15.50    2.70
  -1 -14   3   15.40    2.80
  -1 -14   3    9.10    2.90
   1 -14  -3   10.30    3.00
   1 -14  -3   12.00    3.80
   1 -14  -3   12.30    3.90
  -1  14   3   11.30    3.20
   1  14  -3   12.40    2.80
   1  14  -3   16.50    2.10
   1  14  -3   18.20    3.90
  -1  14   3   14.00    3.50
  -1  14   3   14.40    4.30
   1  14  -3    9.20    3.50
  -1  14   3   19.00    3.60
   0 -14   3   49.30    5.30
   0 -14  -3   46.10    4.90
   0 -14  -3   54.89    6.20
   0 -14  -3   51.69    4.90
   0 -14  -3   43.70    5.10
   0 -14  -3   42.40    4.90
   0 -14   3   44.50    5.60
   0 -14   3   46.40    4.40
   0  14   3   38.20    5.50
   0  14  -3   42.10    4.60
   0  14   3   47.40    5.10
   0  14  -3   45.70    4.10
   0  14   3   42.20    5.10
   0  14  -3   46.30    5.60
   0  14  -3   50.89    4.20
   0  14   3   44.10    4.30
   0  14   3   49.30    5.70
   0  14  -3   36.80    5.30
   1 -14   3   17.60    3.60
  -1 -14  -3   15.70    3.10
  -1 -14  -3   17.40    3.10
  -1 -14  -3   10.70    3.10
  -1 -14  -3   18.70    3.70
  -1 -14  -3   16.90    4.10
   1 -14   3   11.00    3.80
   1 -14   3   17.10    3.20
  -1 -14  -3   15.80    3.60
   1  14   3   18.80    4.10
   1  14   3   10.00    3.70
  -1  14  -3   16.90    2.90
  -1  14  -3   13.50    2.80
  -1  14  -3   12.70    3.80
  -1  14  -3   24.70    4.10
   1  14   3   19.50    3.60
   1  14   3   18.80    3.80
   1  14   3   12.70    3.90
  -1  14  -3   15.10    4.10
   2 -14   3   19.70    4.20
  -2 -14  -3   25.90    3.50
  -2 -14  -3   25.90    4.20
   2 -14   3   25.70    4.90
  -2 -14  -3   26.30    3.70
  -2 -14  -3   22.70    4.00
  -2 -14  -3   18.70    4.10
   2 -14   3   19.60    4.00
  -2 -14  -3   31.60    5.20
   2  14   3   24.90    4.50
  -2  14  -3   28.30    5.10
   2  14   3   27.50    5.10
   2  14   3   25.10    4.60
  -2  14  -3   21.90    3.60
   2  14   3   15.70    4.00
   2  14   3   30.40    4.40
  -2  14  -3   23.20    4.40
  -2  14  -3   27.30    3.90
  -3 -14  -3   19.70    4.50
  -3 -14  -3   19.60    3.70
   3 -14   3   12.40    3.60
   3 -14   3    6.80    3.80
  -3 -14  -3   15.10    3.70
  -3 -14  -3   15.50    3.10
   3 -14   3   12.40    3.70
  -3  14  -3    7.40    4.10
   3  14   3   10.10    3.70
   3  14   3   11.80    3.70
  -3  14  -3   13.70    4.40
   3  14   3   23.60    4.40
   3  14   3   11.90    4.40
  -3  14  -3   18.70    4.10
  -3  14  -3   12.00    3.40
   3  14   3   15.20    4.00
   4 -14   3    1.20    3.00
  -4 -14  -3    4.90    3.30
  -4 -14  -3    3.50    3.40
   4 -14   3    3.10    3.20
   4 -14   3    7.70    3.90
  -4 -14  -3    6.30    3.00
   4  14   3    4.20    3.30
  -4  14  -3    0.70    4.00
  -4  14  -3    1.90    3.80
  -4  14  -3    4.80    3.10
   4  14   3    6.10    3.40
  -4  14  -3    3.30    3.80
   4  14   3    2.60    4.00
   4  14   3    4.80    3.40
   5 -14   3    0.60    3.70
  -5 -14  -3    2.70    4.30
  -5  14  -3   -3.90    3.60
   5 -15  -3   54.49    7.10
  -5 -15   3   59.09    6.90
  -5  15   3   75.89    8.60
   5  15  -3   55.99    7.30
  -5  15   3   54.19    7.60
  -4 -15   3   86.49    9.00
   4 -15  -3   84.89    8.60
  -4 -15   3   88.59    7.50
   4 -15  -3   89.09    8.30
  -4 -15   3   67.69    7.20
   4 -15  -3   77.49    8.80
   4 -15  -3   93.39    9.90
  -4  15   3   74.19    7.90
  -4  15   3  103.39    9.50
  -4  15   3   84.09    8.70
  -4  15   3   75.29    8.10
   4  15  -3   86.39    8.50
   4  15  -3   73.59    8.50
   4  15  -3   83.09    8.60
  -4  15   3   91.89    8.60
   3 -15  -3   -2.70    3.60
  -3 -15   3    2.70    3.80
   3 -15  -3   -3.50    2.90
  -3 -15   3    5.00    2.90
   3 -15  -3    4.80    3.80
  -3 -15   3    6.70    3.00
   3 -15  -3    4.00    4.20
   3  15  -3   -3.10    2.50
   3  15  -3    2.00    3.70
  -3  15   3    8.40    3.70
   3  15  -3    1.90    3.40
  -3  15   3    0.10    3.90
  -3  15   3    5.70    4.00
  -3  15   3    3.70    3.80
   2 -15  -3  115.29    9.80
  -2 -15   3  125.09    8.20
   2 -15  -3  140.99   10.50
  -2 -15   3  130.89    8.70
  -2 -15   3  143.39   10.20
   2 -15  -3  115.69    7.70
  -2 -15   3  118.39    9.10
   2 -15  -3  136.39    9.30
   2  15  -3  117.19    9.20
  -2  15   3  150.58    9.60
   2  15  -3  133.39    9.50
   2  15  -3  148.19   10.50
  -2  15   3  157.78    9.90
  -2  15   3  132.59    9.30
  -2  15   3  149.69   11.00
  -2  15   3  125.39    9.30
   1 -15  -3  226.98   12.70
   1 -15  -3  237.38   14.00
   1 -15  -3  248.38   14.20
   1 -15  -3  233.38   12.40
  -1 -15   3  227.38   14.10
   1 -15  -3  213.48   11.90
  -1 -15   3  232.08   13.20
   1 -15  -3  242.78   13.30
  -1 -15   3  220.28   12.40
  -1  15   3  236.78   12.60
  -1  15   3  248.28   14.60
   1  15  -3  225.18   11.20
  -1  15   3  236.68   13.10
   1  15  -3  236.68   13.90
   1  15  -3  236.88   13.80
   1  15  -3  233.18   12.20
  -1  15   3  251.17   13.40
   0 -15   3   10.30    2.60
   0 -15  -3   14.10    3.40
   0 -15   3    0.80    2.80
   0 -15  -3   14.10    3.00
   0 -15  -3   17.40    4.20
   0 -15  -3   11.50    3.50
   0 -15   3    7.00    3.40
   0 -15  -3   10.70    3.20
   0  15  -3   12.90    4.00
   0  15  -3    5.40    3.50
   0  15   3    7.90    4.10
   0  15  -3    6.60    3.00
   0  15   3   14.60    4.00
   0  15   3   11.40    2.70
   0  15   3   11.80    3.40
   0  15   3   11.20    3.50
  -1 -15  -3  157.38    9.50
   1 -15   3  122.49    9.30
  -1 -15  -3  136.29    8.50
   1 -15   3  138.59   10.20
  -1 -15  -3  144.09    9.30
  -1 -15  -3  137.99    9.30
  -1 -15  -3  145.79   10.10
  -1  15  -3  142.49    9.70
   1  15   3  161.88    9.70
   1  15   3  143.79    9.60
  -1  15  -3  140.09    8.60
   1  15   3  170.68   10.60
  -1  15  -3  141.09   10.80
   1  15   3  157.18   10.80
  -1  15  -3  144.39   10.30
  -1  15  -3  145.49    8.70
   1  15   3  145.69    9.40
  -2 -15  -3  157.18    9.90
  -2 -15  -3  139.89    9.70
  -2 -15  -3  162.98   11.20
  -2 -15  -3  148.59    8.80
   2 -15   3  135.99   10.50
   2 -15   3  143.29   10.10
  -2  15  -3  164.48   10.70
   2  15   3  178.38   11.30
  -2  15  -3  166.18   11.70
   2  15   3  144.19   10.20
   2  15   3  152.28    9.80
   2  15   3  179.88   11.10
   2  15   3  161.88   10.40
  -2  15  -3  144.39    9.60
  -2  15  -3  159.48    9.40
   3 -15   3   30.30    5.50
  -3 -15  -3   25.00    4.30
  -3 -15  -3   18.70    4.80
  -3 -15  -3   27.20    4.20
   3 -15   3   18.80    4.40
   3  15   3   24.60    4.70
   3  15   3   21.10    4.60
  -3  15  -3   23.70    4.10
   3  15   3   17.50    4.90
  -3  15  -3   10.00    4.30
  -3  15  -3   21.60    5.20
   3  15   3   30.10    4.90
   3  15   3   30.00    4.70
  -3  15  -3   24.80    4.60
  -4 -15  -3   30.90    4.90
  -4 -15  -3   44.70    6.20
  -4 -15  -3   28.10    4.70
   4 -15   3   29.10    5.80
   4 -15   3   33.60    5.30
  -4  15  -3   31.40    5.90
  -4  15  -3   35.10    5.40
  -4  15  -3   19.50    7.90
   4  15   3   34.00    5.30
   4  15   3   28.60    4.90
   4  15   3   34.80    5.50
  -4  15  -3   42.40    6.00
   4 -16  -3   18.10    4.70
  -4 -16   3   15.70    4.10
   4 -16  -3    8.30    4.90
   4 -16  -3    7.00    4.20
  -4 -16   3   12.40    4.90
  -4  16   3   12.10    4.90
  -4  16   3    9.90    4.90
   4  16  -3   16.00    5.70
   4  16  -3   11.30    4.20
  -3 -16   3   87.19    7.50
  -3 -16   3   74.39    8.70
   3 -16  -3   99.09    8.30
   3 -16  -3   95.99    9.80
   3 -16  -3  104.59   10.20
   3 -16  -3  101.19    9.30
  -3 -16   3   78.69    7.50
   3  16  -3   81.19    8.90
  -3  16   3   98.69    9.10
  -3  16   3  107.89    8.90
   3  16  -3   78.29    7.70
   3  16  -3   91.39    8.30
  -3  16   3   81.39    8.30
  -3  16   3  108.99   10.20
   2 -16  -3   63.29    7.60
   2 -16  -3   55.59    6.50
  -2 -16   3   55.69    6.40
   2 -16  -3   57.59    7.40
   2 -16  -3   59.29    6.80
  -2 -16   3   48.60    5.70
  -2 -16   3   60.39    7.50
   2  16  -3   56.49    6.70
  -2  16   3   58.79    7.30
  -2  16   3   65.89    7.30
  -2  16   3   66.09    6.60
  -2  16   3   58.99    6.50
   2  16  -3   76.49    8.20
   2  16  -3   55.79    6.30
  -2  16   3   80.99    7.10
   1 -16  -3    6.50    3.30
   1 -16  -3   12.90    3.20
  -1 -16   3    4.00    3.50
  -1 -16   3   12.40    3.60
   1 -16  -3    8.80    4.10
   1 -16  -3    6.90    2.60
  -1 -16   3    1.20    2.60
   1 -16  -3   11.00    4.00
   1  16  -3    5.20    3.50
  -1  16   3    6.00    4.30
  -1  16   3    6.90    3.40
   1  16  -3   11.50    3.90
   1  16  -3    9.80    3.20
   1  16  -3    3.60    2.80
  -1  16   3    7.80    3.10
  -1  16   3    5.00    3.30
   0 -16  -3  191.08   11.40
   0 -16  -3  171.18   10.30
   0 -16   3  150.28   10.30
   0 -16  -3  164.08    9.80
   0 -16   3  151.08   11.00
   0 -16  -3  163.28   10.30
   0 -16   3  147.39    9.20
   0 -16  -3  148.09    9.40
   0  16   3  164.38   12.00
   0  16  -3  180.08   11.70
   0  16   3  156.58   10.40
   0  16  -3  173.58   11.30
   0  16   3  159.88   10.20
   0  16  -3  169.48   10.10
   0  16  -3  150.28    8.90
   0  16   3  187.48   11.30
  -1 -16  -3   83.79    8.10
  -1 -16  -3   81.99    6.70
   1 -16   3   62.99    7.50
  -1 -16  -3   59.99    5.50
  -1 -16  -3   79.19    6.70
   1 -16   3   64.09    6.70
   1  16   3   82.29    7.10
  -1  16  -3   74.99    6.80
   1  16   3   78.49    7.30
   1  16   3   68.89    6.70
  -1  16  -3   65.49    7.30
  -1  16  -3   68.99    5.90
   1  16   3   68.39    7.50
   1  16   3   71.79    7.40
  -1  16  -3   76.69    6.80
  -1  16  -3   70.29    7.80
  -2 -16  -3    3.70    3.90
  -2 -16  -3   -2.30    2.70
   2 -16   3    0.20    2.90
   2 -16   3   -0.10    3.20
  -2 -16  -3    1.20    2.70
   2  16   3    0.10    3.70
  -2  16  -3    0.70    3.00
   2  16   3   -2.80    3.30
  -2  16  -3   -1.70    3.10
   2  16   3   -0.50    3.10
  -2  16  -3    0.10    3.70
  -2  16  -3    0.90    3.50
   2  16   3   -0.50    2.70
  -2  16  -3   -0.80    2.60
   2  16   3   -2.80    2.90
  -3 -16  -3   71.69    6.90
  -3 -16  -3   70.49    7.90
   3 -16   3   90.89    9.00
   3 -16   3   74.39    7.80
   3  16   3   71.69    7.30
   3  16   3   86.59    8.20
  -3  16  -3   77.29    7.00
  -3  16  -3   76.29    8.40
  -3  16  -3   76.69    7.70
  -3  16  -3   84.29    8.20
   3  16   3   55.69    6.90
   3  16   3   87.79    7.80
   3  16   3   84.79    9.00
   4 -16   3   35.20    6.10
  -4 -16  -3   35.50    6.10
  -4 -16  -3   57.09    6.20
   4  16   3   41.20    6.20
  -4  16  -3   46.40    6.50
   4  16   3   33.10    5.50
   4 -17  -3    0.70    3.70
   3 -17  -3   -2.80    4.10
  -3 -17   3   -2.30    2.60
   3 -17  -3    0.80    3.70
   3 -17  -3    2.10    3.60
   3 -17  -3    2.20    4.30
  -3 -17   3    1.50    4.00
  -3  17   3   -1.00    4.20
   3  17  -3   -4.20    3.70
   3  17  -3   -0.10    3.30
  -3  17   3    1.70    3.80
   3  17  -3    0.30    3.40
  -3  17   3   -1.90    3.80
  -3  17   3    2.20    4.20
  -2 -17   3    1.70    3.50
   2 -17  -3    3.00    4.00
   2 -17  -3   -1.70    2.90
  -2 -17   3    2.40    2.90
   2 -17  -3    2.90    3.80
   2 -17  -3   -6.90    3.00
  -2  17   3   -1.10    3.30
  -2  17   3    1.20    3.30
   2  17  -3    1.00    3.20
   2  17  -3   -2.00    3.10
  -2  17   3   -5.00    3.10
  -2  17   3    1.10    3.50
   2  17  -3    2.40    3.70
  -2  17   3    3.20    4.20
   1 -17  -3   -1.00    3.60
   1 -17  -3    0.60    2.60
  -1 -17   3    4.20    2.80
   1 -17  -3   -5.00    2.90
  -1 -17   3    1.50    3.10
  -1 -17   3    1.50    3.30
  -1  17   3   10.70    3.50
  -1  17   3    1.70    3.20
  -1  17   3    1.60    3.20
  -1  17   3    1.60    4.00
  -1  17   3    0.30    3.30
   1  17  -3    2.00    3.40
   1  17  -3    0.50    3.20
   0 -17   3    7.10    3.20
   0 -17  -3   -0.70    2.90
   0 -17  -3    6.00    2.60
   0 -17   3    5.50    3.20
   0 -17  -3    4.80    3.80
   0 -17   3    5.30    3.70
   0  17  -3   -0.70    3.50
   0  17   3    3.60    3.70
   0  17  -3    2.20    3.20
   0  17   3   -2.70    3.60
   0  17  -3    2.40    3.60
   0  17  -3    5.10    2.40
   0  17   3    6.80    3.50
   0  17   3    6.70    3.40
  -1 -17  -3    0.10    3.40
  -1 -17  -3   -2.60    2.70
   1 -17   3   -3.40    2.60
  -1 -17  -3    1.30    2.80
   1 -17   3   -0.50    3.20
   1  17   3   -0.90    3.50
   1  17   3    1.60    2.90
   1  17   3    1.80    3.10
   1  17   3    1.30    3.20
  -1  17  -3   -3.80    3.20
  -1  17  -3    1.10    3.40
   1  17   3   -1.80    3.40
  -1  17  -3   -4.50    3.40
  -2 -17  -3   -3.10    3.60
  -2 -17  -3    2.60    2.90
   2 -17   3    6.90    3.80
   2 -17   3    5.10    3.30
   2  17   3    2.50    3.00
  -2  17  -3    7.80    4.20
  -2  17  -3    5.40    3.10
  -2  17  -3   -0.20    3.50
  -2  17  -3   -0.10    3.80
   2  17   3    4.50    3.80
   2  17   3    4.60    3.40
   2  17   3   -0.40    3.60
   2  17   3   -1.30    3.00
  -2  17  -3    2.20    3.10
   3 -17   3    2.00    4.00
  -3 -17  -3    1.80    4.10
   3 -17   3    2.40    3.90
  -3  17  -3   -1.90    3.40
  -3  17  -3    5.90    4.70
  -3  17  -3    6.10    4.40
   3  17   3    1.00    3.40
   3  17   3    3.00    3.80
   3  17   3    7.60    3.60
  -3  17  -3    0.40    3.20
  -3  18   3   27.20    5.50
   2 -18  -3   15.50    4.10
  -2 -18   3   22.80    4.40
   2 -18  -3   24.40    4.60
   2 -18  -3   15.00    5.10
  -2 -18   3   19.30    5.20
   2 -18  -3   24.40    6.00
  -2  18   3   18.30    4.70
  -2  18   3   21.40    4.90
  -2  18   3   19.30    4.60
  -2  18   3   16.80    5.20
   2  18  -3   24.40    5.80
   2  18  -3   15.10    4.60
  -2  18   3   18.30    5.70
   2  18  -3   22.70    5.20
   1 -18  -3    6.40    3.60
  -1 -18   3    5.10    3.40
   1 -18  -3    2.70    3.80
  -1 -18   3    8.10    3.20
  -1 -18   3    9.10    4.10
   1 -18  -3   13.10    3.30
  -1  18   3   11.20    4.20
   1  18  -3   11.20    4.20
  -1  18   3    0.80    3.30
  -1  18   3   -0.30    3.90
  -1  18   3   12.90    5.10
   1  18  -3    2.10    3.60
   0 -18   3   59.49    6.80
   0 -18  -3   65.39    6.50
   0 -18   3   56.29    7.30
   0 -18  -3   74.79    8.10
   0  18   3   51.99    7.40
   0  18   3   70.09    7.80
   0  18  -3   73.19    8.20
   0  18  -3   75.19    7.00
   0  18  -3   73.79    7.90
   0  18   3   61.49    6.60
   0  18   3   74.29    7.20
   0  18  -3   65.79    5.70
   1 -18   3   15.20    4.60
  -1 -18  -3   14.50    3.80
  -1 -18  -3   15.70    4.80
  -1 -18  -3   11.40    4.70
   1 -18   3   14.40    4.20
   1  18   3   23.20    4.70
   1  18   3   17.80    4.90
   1  18   3   16.60    4.30
  -1  18  -3   20.50    5.40
   1  18   3   11.50    4.70
   1  18   3   15.70    3.90
  -1  18  -3   12.90    4.40
  -1  18  -3   20.10    3.60
  -1  18  -3   14.70    4.80
  -2 -18  -3   14.70    4.70
   2 -18   3    2.60    3.60
   2 -18   3    2.80    3.90
  -2  18  -3   10.60    7.50
   2  18   3    2.40    3.60
   2  18   3    7.00    3.50
   2  18   3    2.80    3.90
   2  18   3    3.00    7.10
  -2  18  -3    0.30    4.00
  -2  18  -3    4.30    3.50
  -3 -18  -3   24.70    5.80
   3  18   3   21.50    5.30
  -3  18  -3   42.30    6.00
   3  18   3   32.60    5.80
   2 -19  -3   33.70    5.30
   2 -19  -3   28.90    5.70
  -2 -19   3   32.80    5.20
   2  19  -3   21.90    5.30
  -2  19   3   35.70    5.50
  -2  19   3   53.99    9.20
   1 -19  -3   65.89    7.00
   1 -19  -3   82.09    9.10
  -1 -19   3   71.99    6.80
   1  19  -3   72.69    8.20
  -1  19   3   65.49    7.40
  -1  19   3   89.69    8.90
   0 -19  -3    5.80    4.10
   0 -19  -3    0.00    3.10
   0  19   3    4.80    3.50
   0  19   3    6.40    4.30
   0  19  -3    9.00    6.70
  -1 -19  -3   38.10    6.10
   1  19   3   40.30    5.90
  -1  19  -3   41.20    4.80
  -1  19  -3   44.10    6.20
   1  19   3   25.70    4.80
  -2 -19  -3   46.60    6.80
  -2  19  -3   51.19    7.60
   2  19   3   54.39    8.20
  -2  19  -3   53.69    6.00
  -1  20   3   -0.40    4.10
  -7   0   4   30.80    5.90
  -7   0   4   28.20    4.90
   7   0  -4   39.70    5.40
   7   0  -4   29.80    5.30
   7   0  -4   30.80    5.40
   7   0  -4   41.00    5.30
   7   0  -4   29.20    5.50
   6   0  -4   64.79    6.60
  -6   0   4   73.49    6.90
   6   0  -4   71.49    6.70
   6   0  -4   66.99    6.20
   6   0  -4   70.29    6.40
   6   0  -4   60.39    7.00
  -6   0   4   74.89    7.60
   5   0  -4  440.86   22.20
  -5   0   4  434.46   20.50
   5   0  -4  453.55   21.20
   5   0  -4  450.25   21.10
   5   0  -4  463.65   21.70
  -5   0   4  436.06   21.70
  -5   0   4  429.66   22.30
   5   0  -4  442.36   21.80
  -4   0   4  586.84   27.00
   4   0  -4  625.84   27.90
  -4   0   4  640.74   27.60
   4   0  -4  581.64   27.50
   4   0  -4  615.94   28.50
   4   0  -4  596.44   28.20
   4   0  -4  604.24   27.50
   4   0  -4  616.44   27.50
  -4   0   4  591.64   28.50
  -4   0   4  578.94   27.90
   4   0  -4  601.84   27.50
   3   0  -4   59.99    4.10
  -3   0   4   56.89    5.10
  -3   0   4   59.09    3.80
  -3   0   4   67.49    4.30
  -3   0   4   59.79    3.60
   3   0  -4   64.59    4.90
  -3   0   4   61.99    4.70
   3   0  -4   68.49    5.20
   3   0  -4   66.39    4.30
   3   0  -4   62.19    4.40
   3   0  -4   60.79    4.80
   3   0  -4   66.19    4.20
   3   0  -4   68.39    4.10
  -2   0   4 2276.77  103.59
  -2   0   4 2345.77  103.09
   2   0  -4 2478.35  104.09
  -2   0   4 2553.64  104.09
   2   0  -4 2414.36  103.49
  -2   0   4 2225.78  103.09
   2   0  -4 2449.05  103.19
   2   0  -4 2377.06  104.09
   2   0  -4 2312.07  103.59
  -2   0   4 2438.86  103.29
  -2   0   4 2383.26  104.19
   2   0  -4 2420.26  103.49
   2   0  -4 2430.96  103.39
  -2   0   4 2232.48  103.29
  -1   0   4 1806.62   78.29
   1   0  -4 1675.33   77.69
  -1   0   4 1765.02   77.39
   1   0  -4 1822.92   77.69
   1   0  -4 1876.81   78.19
  -1   0   4 1614.44   77.69
   1   0  -4 1781.62   77.69
   1   0  -4 1890.81   77.59
  -1   0   4 1792.62   77.39
   1   0  -4 1819.72   77.89
   1   0  -4 1748.82   77.79
  -1   0   4 1807.42   77.69
   0   0  -4  234.58   11.40
   0   0  -4  236.18   11.30
   0   0   4  259.77   11.50
   0   0   4  244.48   11.40
   0   0   4  244.38   11.90
   0   0  -4  217.18   10.70
   0   0  -4  254.17   11.40
   0   0  -4  225.28   11.50
   0   0   4  247.98   11.40
   0   0   4  251.97   11.10
   0   0   4  221.68   11.20
   0   0   4  243.78   11.10
   0   0   4  239.68   11.00
   0   0  -4  230.38   11.10
   0   0  -4  237.28   11.70
   1   0   4  687.73   31.20
  -1   0  -4  665.23   31.50
   1   0   4  716.43   31.10
   1   0   4  738.53   30.80
   1   0   4  727.93   31.40
  -1   0  -4  671.53   32.40
  -1   0  -4  715.23   31.40
  -1   0  -4  717.13   30.80
  -1   0  -4  705.33   31.30
  -1   0  -4  659.53   31.10
  -1   0  -4  669.33   31.30
   1   0   4  704.83   31.50
   2   0   4 1995.50   87.89
  -2   0  -4 2024.20   88.99
  -2   0  -4 1940.81   87.79
   2   0   4 2000.40   88.09
   2   0   4 2024.60   87.99
  -2   0  -4 1950.20   87.99
   2   0   4 2061.59   87.69
  -2   0  -4 2039.60   88.29
  -2   0  -4 1990.20   87.99
   2   0   4 2076.09   88.39
  -3   0  -4   70.59    6.30
  -3   0  -4   80.09    5.50
   3   0   4   68.99    4.20
   3   0   4   71.19    5.70
   3   0   4   67.49    5.00
   3   0   4   71.79    5.20
   3   0   4   76.59    5.40
  -3   0  -4   72.29    4.20
  -3   0  -4   74.59    5.40
   3   0   4   67.59    5.10
  -3   0  -4   65.89    5.00
  -3   0  -4   68.89    5.30
   4   0   4  710.23   33.20
  -4   0  -4  747.33   33.80
   4   0   4  720.63   33.50
  -4   0  -4  784.72   35.10
   4   0   4  731.73   34.00
  -4   0  -4  700.93   33.40
  -4   0  -4  729.83   33.10
   4   0   4  714.03   33.60
   4   0   4  702.83   32.50
  -4   0  -4  744.53   33.70
   4   0   4  748.43   33.60
   5   0   4  557.94   28.30
   5   0   4  623.64   29.00
   5   0   4  596.04   27.70
  -5   0  -4  576.14   27.60
  -5   0  -4  603.94   28.50
  -5   0  -4  602.94   28.60
  -5   0  -4  559.14   29.70
   5   0   4  625.34   28.60
   5   0   4  627.04   28.40
  -6   0  -4    9.10    3.70
   6   0   4   13.30    4.20
  -6   0  -4   14.40    3.90
  -6   0  -4    3.10    4.20
   6   0   4   14.50    4.00
   6   0   4   14.40    3.70
  -6   0  -4   13.30    4.00
   6   0   4   10.70    3.90
   7  -1  -4   41.50    6.50
   7  -1  -4   47.70    5.90
   7  -1  -4   42.60    5.90
  -7  -1   4   54.09    6.30
   7  -1  -4   33.90    5.40
   7  -1  -4   46.30    5.70
  -7  -1   4   51.89    7.10
  -7   1   4   37.10    6.40
   7   1  -4   50.59    6.80
   7   1  -4   49.40    6.40
   7   1  -4   42.00    6.00
  -7   1   4   52.69    6.10
   7   1  -4   50.69    5.90
   7   1  -4   45.90    5.60
   6  -1  -4  117.89    7.90
   6  -1  -4  119.39    8.50
  -6  -1   4  105.29    8.00
   6  -1  -4  107.79    8.90
   6  -1  -4  109.49    8.30
  -6  -1   4  105.89    8.90
   6  -1  -4  110.29    7.60
   6   1  -4   98.79    7.50
  -6   1   4  113.29    7.90
   6   1  -4  105.79    7.50
   6   1  -4   93.89    8.80
  -6   1   4  100.39    8.80
   6   1  -4  100.29    8.20
   6   1  -4  102.19    8.30
   5  -1  -4   12.50    2.70
   5  -1  -4   11.50    2.80
  -5  -1   4    7.30    2.70
   5  -1  -4    8.90    2.80
   5  -1  -4    9.50    3.40
  -5  -1   4    9.80    3.40
   5  -1  -4    7.00    2.90
   5   1  -4   10.40    3.50
  -5   1   4    9.90    3.50
   5   1  -4    7.80    2.90
   5   1  -4    9.70    3.10
   5   1  -4    7.10    2.40
   5   1  -4    7.00    2.40
  -5   1   4    9.70    2.50
  -5   1   4    9.80    2.90
  -5   1   4    8.70    2.70
  -4  -1   4  214.18   11.90
   4  -1  -4  204.98   10.80
   4  -1  -4  220.98   11.00
   4  -1  -4  194.48   10.70
   4  -1  -4  208.88   11.40
  -4  -1   4  223.78   10.70
   4  -1  -4  218.08   11.20
  -4  -1   4  205.08   11.30
   4  -1  -4  209.78   11.80
   4   1  -4  211.98   11.50
  -4   1   4  211.78   11.90
  -4   1   4  214.98   10.90
  -4   1   4  204.68   11.10
   4   1  -4  212.78   10.60
  -4   1   4  226.48   10.60
   4   1  -4  205.08   11.70
   4   1  -4  219.18   10.70
   4   1  -4  214.88   11.20
   3  -1  -4  454.15   21.10
   3  -1  -4  457.35   20.60
  -3  -1   4  446.66   20.40
   3  -1  -4  434.96   20.60
   3  -1  -4  471.15   21.30
  -3  -1   4  442.06   20.00
   3  -1  -4  467.55   20.50
  -3  -1   4  450.35   21.10
   3  -1  -4  475.35   20.70
  -3   1   4  411.86   20.60
   3   1  -4  435.26   21.10
  -3   1   4  448.16   20.30
   3   1  -4  466.55   21.30
   3   1  -4  452.45   20.70
  -3   1   4  458.85   21.00
   3   1  -4  437.76   20.40
   3   1  -4  443.26   20.00
   3   1  -4  455.15   20.30
   3   1  -4  415.86   20.40
   3   1  -4  459.25   20.30
  -3   1   4  445.46   20.60
  -3   1   4  441.96   21.30
  -2  -1   4  165.08    8.40
  -2  -1   4  183.88    9.50
  -2  -1   4  160.58    8.40
   2  -1  -4  174.38    9.10
   2  -1  -4  174.98    8.70
   2  -1  -4  175.68    8.60
   2  -1  -4  165.48    8.30
  -2  -1   4  179.68    8.40
  -2  -1   4  181.58    9.10
   2  -1  -4  170.68    8.50
   2  -1  -4  184.48    9.20
   2   1  -4  163.18    8.40
  -2   1   4  173.98    8.20
  -2   1   4  168.98    8.20
   2   1  -4  175.48    9.10
  -2   1   4  189.28    9.00
   2   1  -4  173.88    8.10
  -2   1   4  181.08    9.40
   2   1  -4  162.68    8.30
  -2   1   4  157.18    8.30
  -2   1   4  165.48    8.30
   2   1  -4  165.38    8.40
  -2   1   4  171.98    8.90
   2   1  -4  167.48    8.40
  -2   1   4  175.78    8.70
   2   1  -4  178.28    8.30
   2   1  -4  186.68    8.30
   2   1  -4  193.28    8.40
   2   1  -4  183.18    9.10
  -1  -1   4  288.87   13.50
   1  -1  -4  300.57   13.90
  -1  -1   4  308.47   14.40
  -1  -1   4  301.37   13.60
   1  -1  -4  321.37   13.40
   1  -1  -4  305.57   14.10
   1  -1  -4  288.57   13.70
  -1  -1   4  257.97   13.40
   1  -1  -4  272.17   14.60
   1  -1  -4  292.27   13.80
   1  -1  -4  261.47   13.60
  -1  -1   4  298.47   13.70
  -1   1   4  310.27   13.70
  -1   1   4  297.87   14.10
   1   1  -4  269.77   13.40
   1   1  -4  322.87   13.30
   1   1  -4  280.57   13.20
   1   1  -4  295.47   13.40
   1   1  -4  309.37   13.70
   1   1  -4  292.17   13.40
   1   1  -4  266.87   14.70
   1   1  -4  297.67   13.50
   1   1  -4  296.07   14.00
  -1   1   4  294.27   13.40
  -1   1   4  308.27   13.30
  -1   1   4  294.57   13.40
  -1   1   4  295.07   14.20
   1   1  -4  285.67   13.70
   1   1  -4  306.67   13.40
   0  -1  -4  988.40   45.30
   0  -1  -4  994.70   45.80
   0  -1   4 1020.30   45.20
   0  -1  -4 1050.49   45.80
   0  -1   4 1062.39   45.30
   0  -1   4 1054.39   45.10
   0  -1  -4 1077.59   45.60
   0  -1  -4 1018.90   45.50
   0  -1   4 1026.80   46.10
   0  -1   4 1024.10   45.40
   0  -1   4 1066.99   45.50
   0  -1   4 1050.19   45.10
   0   1  -4 1025.30   45.50
   0   1   4 1106.89   45.60
   0   1  -4  969.90   45.40
   0   1  -4 1100.19   44.90
   0   1   4 1044.20   45.30
   0   1  -4 1051.79   45.30
   0   1   4 1078.49   45.60
   0   1  -4 1029.90   45.70
   0   1  -4 1012.70   45.30
   0   1   4 1082.19   45.70
   0   1   4 1103.49   45.40
   0   1   4 1015.70   45.90
   0   1  -4  913.61   46.60
   0   1  -4 1004.80   45.10
   0   1   4  970.90   45.50
   0   1   4 1021.50   45.00
   0   1  -4  969.20   45.00
   1  -1   4  379.06   17.30
   1  -1   4  365.16   17.00
  -1  -1  -4  353.06   16.80
  -1  -1  -4  359.26   16.70
   1  -1   4  370.06   16.60
  -1  -1  -4  351.26   18.00
  -1  -1  -4  368.76   17.20
  -1  -1  -4  369.96   17.40
  -1  -1  -4  356.86   17.00
   1  -1   4  362.16   16.90
   1  -1   4  361.56   16.70
  -1  -1  -4  382.26   16.40
  -1  -1  -4  358.36   17.10
   1  -1   4  366.56   17.00
   1  -1   4  382.56   16.90
  -1   1  -4  362.16   17.00
  -1   1  -4  359.86   16.90
  -1   1  -4  358.36   17.30
  -1   1  -4  377.16   16.50
   1   1   4  366.56   17.10
   1   1   4  377.16   16.50
  -1   1  -4  350.56   16.90
   1   1   4  390.26   17.30
   1   1   4  388.06   16.40
   1   1   4  367.76   16.90
  -1   1  -4  350.76   16.90
  -1   1  -4  347.17   18.10
  -2  -1  -4  193.28    9.30
  -2  -1  -4  182.98   10.40
  -2  -1  -4  186.38    9.60
   2  -1   4  184.68    9.50
   2  -1   4  184.98    9.30
   2  -1   4  177.78    9.50
   2  -1   4  188.68    9.30
  -2  -1  -4  169.68    9.50
   2  -1   4  176.78    9.80
  -2  -1  -4  187.38    9.80
  -2   1  -4  176.38    9.40
  -2   1  -4  180.18    9.60
   2   1   4  178.28    9.40
   2   1   4  197.08   10.00
   2   1   4  196.88    9.00
   2   1   4  197.88    9.70
  -2   1  -4  180.78    9.50
   2   1   4  194.28    9.20
  -2   1  -4  182.28    9.40
  -2   1  -4  170.48   10.30
   3  -1   4  380.06   18.80
  -3  -1  -4  391.46   18.40
   3  -1   4  386.46   18.60
  -3  -1  -4  379.36   19.70
   3  -1   4  416.86   18.80
   3  -1   4  402.66   19.30
  -3  -1  -4  384.86   18.80
   3  -1   4  379.66   18.60
  -3  -1  -4  408.96   18.10
  -3  -1  -4  417.66   19.10
  -3  -1  -4  362.46   18.80
   3   1   4  395.16   18.60
   3   1   4  398.76   18.00
   3   1   4  420.96   18.20
   3   1   4  427.06   18.00
   3   1   4  408.26   18.90
   3   1   4  393.96   18.70
  -3   1  -4  353.16   19.70
  -3   1  -4  391.86   18.90
  -3   1  -4  394.96   18.60
   3   1   4  388.96   18.60
  -3   1  -4  382.76   18.70
  -3   1  -4  387.46   18.90
   3   1   4  402.26   19.20
   4  -1   4  245.88   13.40
   4  -1   4  235.28   12.80
   4  -1   4  250.77   13.00
   4  -1   4  260.17   12.80
  -4  -1  -4  246.28   14.20
  -4  -1  -4  232.38   12.10
  -4  -1  -4  228.38   11.70
  -4  -1  -4  242.38   12.90
  -4  -1  -4  244.38   12.90
   4  -1   4  243.88   12.40
  -4  -1  -4  248.98   13.00
   4   1   4  252.87   12.50
   4   1   4  235.38   13.30
  -4   1  -4  235.08   14.20
  -4   1  -4  238.58   13.00
  -4   1  -4  253.87   12.50
   4   1   4  234.58   11.80
   4   1   4  257.97   12.90
  -4   1  -4  255.87   13.10
   4   1   4  230.18   12.80
   4   1   4  252.67   12.80
  -5  -1  -4   29.40    4.60
   5  -1   4   30.40    4.60
  -5  -1  -4   31.40    4.50
   5  -1   4   30.90    4.60
   5  -1   4   21.90    3.50
   5  -1   4   29.30    4.70
   5  -1   4   31.80    4.60
  -5  -1  -4   22.20    3.30
  -5  -1  -4   25.50    5.10
   5   1   4   30.20    4.50
   5   1   4   38.10    4.90
   5   1   4   21.30    4.50
  -5   1  -4   18.10    5.00
   5   1   4   20.90    3.50
  -5   1  -4   22.70    4.20
  -5   1  -4   37.50    5.10
   5   1   4   28.70    4.20
   6  -1   4  127.49    9.20
  -6  -1  -4  129.89   10.80
   6  -1   4  127.29    9.40
   6  -1   4  118.19    8.90
   6  -1   4  138.49    9.80
  -6  -1  -4  112.99    9.10
  -6  -1  -4  143.99    9.40
  -6  -1  -4  128.79    9.20
  -6   1  -4  114.09   10.70
   6   1   4  114.49    9.00
   6   1   4  130.59   11.10
   6   1   4  128.49    8.90
   6   1   4  121.89    9.10
  -6   1  -4  131.79    9.40
   6   1   4  116.19    9.50
  -6   1  -4  120.79    9.30
  -7  -2   4    7.60    4.30
   7  -2  -4    4.80    3.20
   7  -2  -4    8.10    3.50
  -7  -2   4    4.60    3.30
   7  -2  -4    7.20    4.00
   7  -2  -4    4.20    3.20
   7  -2  -4    3.00    3.50
  -7   2   4    3.10    3.10
   7   2  -4    2.10    3.60
  -7   2   4    1.90    3.90
   7   2  -4    4.00    2.90
   7   2  -4    5.00    4.10
   7   2  -4    4.20    3.40
   7   2  -4    3.00    3.10
   6  -2  -4   17.60    3.90
   6  -2  -4   10.30    3.70
  -6  -2   4   10.20    3.40
  -6  -2   4    5.70    3.50
   6  -2  -4   14.70    4.10
   6  -2  -4    9.50    3.20
   6  -2  -4    6.60    3.10
   6   2  -4   11.10    4.10
   6   2  -4   13.50    3.20
  -6   2   4   13.80    3.50
   6   2  -4   11.80    3.80
  -6   2   4   22.00    4.80
  -6   2   4   14.30    3.30
   6   2  -4   10.20    3.10
   6   2  -4    8.70    3.30
   5  -2  -4   46.00    5.60
   5  -2  -4   40.90    4.60
   5  -2  -4   48.90    4.80
   5  -2  -4   43.80    4.80
  -5  -2   4   47.00    5.10
  -5  -2   4   39.80    5.40
   5  -2  -4   37.50    4.60
   5   2  -4   41.10    5.30
  -5   2   4   42.00    5.40
   5   2  -4   46.70    4.50
  -5   2   4   50.79    4.60
  -5   2   4   39.30    4.60
  -5   2   4   44.10    4.60
   5   2  -4   39.00    4.60
   5   2  -4   46.30    5.20
   5   2  -4   41.80    4.20
  -4  -2   4   14.30    2.80
   4  -2  -4   16.00    2.80
   4  -2  -4   15.10    2.80
   4  -2  -4   19.60    3.40
   4  -2  -4   15.40    2.90
  -4  -2   4   17.90    2.40
  -4  -2   4   13.80    3.30
   4  -2  -4   15.00    2.90
  -4   2   4   19.10    2.80
   4   2  -4   15.00    2.40
  -4   2   4   12.90    2.60
   4   2  -4   16.20    2.40
  -4   2   4   10.50    2.00
   4   2  -4   11.90    2.80
   4   2  -4   16.10    2.90
   4   2  -4    6.70    2.90
  -4   2   4   18.50    3.60
  -4   2   4   12.20    2.60
   3  -2  -4   20.70    3.00
  -3  -2   4   24.50    2.30
  -3  -2   4   22.20    2.90
  -3  -2   4   15.40    2.90
   3  -2  -4   24.50    2.60
   3  -2  -4   21.20    2.70
   3  -2  -4   17.00    2.70
   3  -2  -4   18.70    2.50
  -3  -2   4   20.40    2.00
   3  -2  -4   28.10    2.90
   3   2  -4   17.50    2.70
   3   2  -4   15.40    2.20
  -3   2   4   25.10    2.70
  -3   2   4   23.20    2.80
   3   2  -4   20.40    3.30
   3   2  -4   27.00    2.50
   3   2  -4   17.00    2.60
  -3   2   4   20.80    3.60
   3   2  -4   19.90    2.00
   3   2  -4   23.60    2.20
   3   2  -4   24.40    2.40
  -3   2   4   25.20    2.70
  -3   2   4   21.90    2.50
   2  -2  -4   96.59    5.50
  -2  -2   4   95.39    5.60
  -2  -2   4   86.99    4.80
  -2  -2   4   91.99    5.00
   2  -2  -4   85.09    5.20
  -2  -2   4   82.19    5.00
   2  -2  -4   95.09    5.20
   2  -2  -4   89.79    5.70
   2  -2  -4   91.59    4.90
   2  -2  -4   93.99    5.70
   2   2  -4   82.99    5.00
   2   2  -4   96.19    5.80
   2   2  -4   92.29    4.70
   2   2  -4   90.99    4.80
  -2   2   4   78.19    4.80
  -2   2   4   99.99    5.60
   2   2  -4   93.89    5.10
  -2   2   4   91.29    4.90
  -2   2   4   89.69    5.90
   2   2  -4   92.99    5.60
   2   2  -4   90.29    4.90
  -2   2   4   83.79    5.50
   2   2  -4   89.49    4.80
   2   2  -4  102.89    4.70
  -2   2   4   98.69    5.20
  -2   2   4   91.69    5.40
  -1  -2   4  102.09    5.50
   1  -2  -4   99.99    5.90
   1  -2  -4   97.29    6.40
   1  -2  -4  102.99    5.20
  -1  -2   4   90.69    5.00
   1  -2  -4   91.09    5.70
  -1  -2   4  104.69    6.40
  -1  -2   4   98.39    5.60
   1  -2  -4  102.69    5.70
   1  -2  -4  104.39    5.80
  -1  -2   4  103.89    5.50
   1  -2  -4  111.09    5.80
   1   2  -4   91.69    5.00
   1   2  -4   98.19    5.00
  -1   2   4  111.99    6.20
  -1   2   4   97.59    5.70
   1   2  -4   89.49    5.00
   1   2  -4  107.49    5.30
   1   2  -4  104.59    6.80
  -1   2   4  104.89    5.50
   1   2  -4  108.79    5.80
  -1   2   4  100.89    5.10
   1   2  -4  106.69    5.30
  -1   2   4  101.99    6.10
   1   2  -4   95.19    5.00
   1   2  -4   97.29    5.10
   1   2  -4  103.19    5.50
  -1   2   4   98.79    5.40
   1   2  -4   94.09    5.50
   0  -2   4   52.39    4.50
   0  -2  -4   54.49    3.60
   0  -2   4   53.29    3.10
   0  -2  -4   49.90    4.30
   0  -2  -4   55.39    3.70
   0  -2  -4   51.89    3.90
   0  -2   4   48.70    3.20
   0  -2   4   50.99    3.70
   0  -2   4   43.00    3.00
   0  -2  -4   40.40    4.40
   0  -2  -4   52.29    3.80
   0  -2   4   55.49    3.50
   0   2  -4   52.59    3.30
   0   2   4   56.19    3.80
   0   2   4   47.30    3.60
   0   2  -4   45.50    3.60
   0   2  -4   45.20    3.00
   0   2  -4   51.09    3.50
   0   2  -4   53.69    4.90
   0   2  -4   48.70    3.20
   0   2  -4   54.89    2.90
   0   2   4   57.69    3.60
   0   2  -4   49.20    3.30
   0   2   4   49.99    4.20
   0   2   4   48.80    4.10
   0   2  -4   42.10    3.10
   0   2   4   51.19    3.50
  -1  -2  -4  177.68    8.10
  -1  -2  -4  181.98    9.10
  -1  -2  -4  179.88    8.80
   1  -2   4  174.88    8.80
  -1  -2  -4  168.08    8.80
   1  -2   4  174.08    8.50
   1  -2   4  170.18    8.50
  -1  -2  -4  176.08    9.20
  -1  -2  -4  191.18    9.90
   1  -2   4  156.68    7.90
   1  -2   4  179.88    8.70
   1  -2   4  170.78    8.40
   1  -2   4  169.78    8.30
   1   2   4  172.18    9.00
   1   2   4  178.48    8.90
  -1   2  -4  155.78    8.40
  -1   2  -4  179.78   10.10
  -1   2  -4  160.98    8.50
  -1   2  -4  171.38    8.20
  -1   2  -4  162.58    8.50
   1   2   4  179.78    8.70
  -1   2  -4  165.98    8.90
  -1   2  -4  161.78    8.70
   1   2   4  181.98    8.10
   1   2   4  168.38    8.40
   2  -2   4   66.39    4.50
   2  -2   4   57.99    4.90
  -2  -2  -4   73.79    4.80
   2  -2   4   52.89    4.60
   2  -2   4   64.89    4.50
  -2  -2  -4   69.79    5.50
   2  -2   4   55.69    3.80
  -2  -2  -4   67.69    4.70
   2  -2   4   66.89    4.30
  -2  -2  -4   63.49    5.00
  -2  -2  -4   66.39    4.30
   2   2   4   69.89    5.00
  -2   2  -4   63.29    4.70
  -2   2  -4   70.49    4.70
  -2   2  -4   55.59    5.40
   2   2   4   60.49    4.10
  -2   2  -4   62.19    4.40
   2   2   4   66.89    4.60
   2   2   4   79.69    4.40
   2   2   4   62.49    4.70
  -2   2  -4   61.39    4.70
  -3  -2  -4    4.60    2.20
  -3  -2  -4    5.20    2.60
  -3  -2  -4    3.60    1.70
   3  -2   4    3.10    2.10
   3  -2   4    0.20    1.90
   3  -2   4    3.90    2.00
  -3  -2  -4    5.40    2.30
  -3  -2  -4    5.80    2.40
   3  -2   4    2.40    2.00
   3  -2   4    1.50    2.40
  -3  -2  -4    6.90    1.80
   3   2   4    7.70    2.30
   3   2   4    1.10    1.90
   3   2   4    1.60    1.80
  -3   2  -4    2.60    1.90
  -3   2  -4    4.20    2.10
  -3   2  -4    4.20    2.60
  -3   2  -4    6.00    2.10
   3   2   4   -2.90    2.00
  -3   2  -4    1.70    1.90
   3   2   4    2.30    1.30
  -4  -2  -4   49.99    6.00
   4  -2   4   53.49    5.10
  -4  -2  -4   46.90    5.00
   4  -2   4   52.49    5.20
  -4  -2  -4   53.89    5.30
   4  -2   4   48.30    5.40
  -4  -2  -4   50.29    5.20
   4  -2   4   50.69    5.10
  -4  -2  -4   45.60    4.00
  -4  -2  -4   56.49    3.90
   4  -2   4   45.70    4.50
   4   2   4   67.19    5.70
   4   2   4   49.00    4.90
  -4   2  -4   54.29    6.30
   4   2   4   50.69    4.90
  -4   2  -4   51.59    5.30
  -4   2  -4   51.09    4.90
  -4   2  -4   42.20    4.70
   4   2   4   43.30    4.00
   4   2   4   51.09    4.60
   4   2   4   49.00    5.60
  -5  -2  -4   32.60    4.50
   5  -2   4   37.30    4.90
   5  -2   4   31.90    4.80
   5  -2   4   33.30    4.70
  -5  -2  -4   36.00    4.90
   5  -2   4   36.40    5.00
   5  -2   4   36.10    4.20
  -5  -2  -4   36.50    5.70
   5   2   4   33.50    5.10
   5   2   4   33.60    4.50
  -5   2  -4   38.90    5.00
   5   2   4   26.80    3.90
  -5   2  -4   26.70    4.00
  -5   2  -4   24.90    4.00
   5   2   4   34.60    4.60
  -5   2  -4   37.50    5.30
   5   2   4   36.60    4.90
  -5   2  -4   32.70    5.90
  -6  -2  -4    1.60    3.50
   6  -2   4    2.60    3.00
   6  -2   4   -0.90    3.00
  -6  -2  -4   -0.70    2.70
  -6  -2  -4    6.00    3.20
   6  -2   4    4.90    3.50
   6  -2   4    4.30    3.40
  -6  -2  -4    5.00    4.00
   6   2   4    0.80    2.60
   6   2   4    2.30    3.40
  -6   2  -4    3.20    3.40
  -6   2  -4    0.60    3.10
   6   2   4    5.40    3.30
   6   2   4    3.10    3.40
   6   2   4   -0.30    2.80
  -6   2  -4   -4.90    3.50
  -6   2  -4    4.50    3.50
   7  -3  -4   98.79    8.60
   7  -3  -4  105.49    8.90
   7  -3  -4  118.09    9.60
  -7  -3   4   94.39    9.00
   7  -3  -4  122.39   12.90
   7  -3  -4   99.89    8.30
  -7  -3   4   96.09    8.90
   7   3  -4  101.49    7.90
  -7   3   4   83.69    7.70
   7   3  -4  104.29    9.20
   7   3  -4   87.39    7.40
   7   3  -4  112.49   12.50
   7   3  -4  101.29    8.80
  -6  -3   4  269.17   15.10
  -6  -3   4  272.67   15.40
   6  -3  -4  272.77   14.70
   6  -3  -4  276.07   14.80
   6  -3  -4  282.87   15.10
   6  -3  -4  264.77   14.50
   6  -3  -4  274.47   15.50
  -6   3   4  264.37   14.70
  -6   3   4  282.47   14.10
   6   3  -4  263.57   13.80
   6   3  -4  250.27   15.00
  -6   3   4  259.47   14.40
   6   3  -4  270.17   14.90
   6   3  -4  252.57   13.90
   6   3  -4  263.07   15.50
  -6   3   4  263.17   15.70
  -5  -3   4    2.10    2.50
   5  -3  -4    3.70    2.30
  -5  -3   4    5.70    3.10
   5  -3  -4    2.10    2.90
   5  -3  -4    0.30    2.50
   5  -3  -4    2.80    2.50
   5  -3  -4    3.90    2.50
  -5   3   4   -0.10    2.30
  -5   3   4    2.40    2.10
  -5   3   4    3.90    3.20
  -5   3   4   -0.30    2.80
   5   3  -4    2.40    2.10
  -5   3   4    3.30    2.40
   5   3  -4    3.00    2.40
   5   3  -4    1.70    2.80
   5   3  -4    4.20    2.60
   5   3  -4    3.30    2.00
   4  -3  -4  427.06   20.50
   4  -3  -4  430.56   20.30
  -4  -3   4  423.86   20.60
  -4  -3   4  429.46   20.90
   4  -3  -4  443.06   21.00
   4  -3  -4  425.56   20.20
   4  -3  -4  432.26   20.20
  -4   3   4  418.46   21.00
  -4   3   4  447.86   20.60
   4   3  -4  425.16   19.60
  -4   3   4  438.36   20.30
  -4   3   4  434.46   20.30
   4   3  -4  440.86   21.00
  -4   3   4  449.06   20.10
   4   3  -4  429.26   19.50
   4   3  -4  400.46   20.60
  -4   3   4  387.56   19.70
   4   3  -4  395.96   19.30
   4   3  -4  423.46   20.40
   3  -3  -4 1030.50   44.20
  -3  -3   4  998.20   43.60
   3  -3  -4 1020.20   44.50
  -3  -3   4  964.60   44.50
  -3  -3   4  967.90   43.50
   3  -3  -4  990.80   44.70
  -3  -3   4  961.20   44.70
   3  -3  -4  987.00   44.00
   3  -3  -4 1018.50   44.30
  -3   3   4  933.81   44.20
   3   3  -4 1042.80   43.60
   3   3  -4 1013.50   43.50
  -3   3   4 1062.29   44.40
  -3   3   4  975.00   44.00
   3   3  -4  948.51   43.80
   3   3  -4  961.70   43.50
   3   3  -4  983.60   44.60
  -3   3   4  994.10   44.80
  -3   3   4 1028.50   44.30
   3   3  -4  958.10   43.70
   3   3  -4 1020.10   44.70
   3   3  -4  968.80   44.20
   2  -3  -4   96.09    5.50
   2  -3  -4  100.09    5.90
   2  -3  -4  101.79    5.10
   2  -3  -4  104.39    5.80
   2  -3  -4   95.89    6.00
  -2  -3   4  100.19    5.90
  -2  -3   4   92.79    5.20
  -2  -3   4   97.19    6.30
   2  -3  -4   93.19    5.40
  -2   3   4   92.29    5.50
  -2   3   4   94.09    5.60
   2   3  -4   87.49    5.30
   2   3  -4   93.19    4.50
   2   3  -4   91.29    5.80
  -2   3   4   91.19    5.90
   2   3  -4   82.99    5.00
   2   3  -4   87.19    4.70
  -2   3   4   86.49    4.90
   2   3  -4   94.59    5.80
  -2   3   4   84.79    5.80
  -1  -3   4  555.74   26.60
  -1  -3   4  617.04   27.70
   1  -3  -4  601.04   27.30
   1  -3  -4  612.34   28.00
  -1  -3   4  595.04   27.20
   1  -3  -4  655.93   27.60
   1  -3  -4  604.84   27.40
   1  -3  -4  585.54   27.40
   1  -3  -4  601.64   26.80
  -1  -3   4  611.64   27.40
  -1  -3   4  617.84   27.00
   1  -3  -4  633.04   27.40
   1   3  -4  647.64   27.40
  -1   3   4  616.24   27.10
   1   3  -4  621.74   27.30
   1   3  -4  554.64   26.80
  -1   3   4  597.24   27.60
   1   3  -4  563.34   26.40
  -1   3   4  622.44   26.40
   1   3  -4  608.24   27.10
  -1   3   4  608.04   26.70
  -1   3   4  633.34   27.50
   1   3  -4  558.74   28.20
   1   3  -4  591.34   26.40
  -1   3   4  600.24   27.40
   0  -3   4 2472.35  104.39
   0  -3   4 2283.07  103.99
   0  -3   4 2509.75  104.49
   0  -3  -4 2433.56  104.49
   0  -3   4 2337.17  104.19
   0  -3  -4 2606.34  105.49
   0  -3  -4 2452.25  104.59
   0  -3  -4 2402.56  105.19
   0  -3  -4 2547.45  104.89
   0  -3  -4 2474.25  104.89
   0  -3  -4 2452.05  104.59
   0   3  -4 2135.79  105.39
   0   3  -4 2419.36  103.99
   0   3  -4 2470.55  104.19
   0   3  -4 2366.06  104.49
   0   3  -4 2254.07  103.99
   0   3  -4 2406.66  104.39
   0   3  -4 2331.07  104.29
   0   3   4 2482.55  104.79
   0   3   4 2492.65  104.39
   0   3  -4 2215.28  103.89
   0   3  -4 2403.86  104.09
   0   3  -4 2349.06  104.09
   0   3   4 2371.76  104.39
   0   3   4 2354.26  104.59
   0   3   4 2420.86  104.89
   0   3  -4 2321.27  103.99
   1  -3   4  237.88   11.80
   1  -3   4  224.08   11.50
  -1  -3  -4  246.68   12.20
   1  -3   4  263.37   12.10
   1  -3   4  247.88   12.10
   1  -3   4  252.97   12.40
  -1  -3  -4  256.07   12.50
   1  -3   4  243.98   11.50
  -1  -3  -4  257.47   12.90
  -1  -3  -4  269.77   12.20
   1  -3   4  241.08   11.70
  -1  -3  -4  262.87   12.50
  -1  -3  -4  274.67   11.60
  -1  -3  -4  240.48   12.10
  -1   3  -4  249.48   11.50
   1   3   4  254.87   12.10
   1   3   4  252.77   12.30
   1   3   4  259.17   12.50
   1   3   4  258.87   12.30
  -1   3  -4  238.28   11.80
  -1   3  -4  242.38   12.20
  -1   3  -4  260.77   13.40
   1   3   4  252.27   11.50
  -1   3  -4  243.48   11.80
  -1   3  -4  240.38   11.80
  -1   3  -4  248.48   11.70
   1   3   4  257.57   12.00
  -1   3  -4  239.08   12.20
  -2  -3  -4  447.96   21.60
   2  -3   4  465.65   20.90
  -2  -3  -4  444.46   21.00
   2  -3   4  446.06   20.60
   2  -3   4  431.96   21.00
  -2  -3  -4  463.05   20.50
  -2  -3  -4  473.15   21.40
   2  -3   4  419.96   20.40
  -2  -3  -4  456.65   21.10
   2  -3   4  427.36   20.80
   2  -3   4  440.76   20.90
   2   3   4  467.65   20.60
   2   3   4  443.26   21.30
  -2   3  -4  438.56   20.80
   2   3   4  450.95   20.90
   2   3   4  522.35   20.20
  -2   3  -4  425.36   20.70
   2   3   4  443.46   21.00
  -2   3  -4  459.95   21.00
  -2   3  -4  447.56   22.00
  -2   3  -4  439.96   20.80
   3  -3   4 1181.38   53.89
  -3  -3  -4 1241.78   54.29
  -3  -3  -4 1227.28   53.49
  -3  -3  -4 1182.38   53.99
  -3  -3  -4 1217.98   54.79
  -3  -3  -4 1212.88   53.19
   3  -3   4 1177.78   53.69
   3  -3   4 1215.18   53.69
  -3  -3  -4 1231.38   53.99
   3  -3   4 1209.48   53.89
   3   3   4 1194.38   53.99
   3   3   4 1320.27   53.19
  -3   3  -4 1157.08   54.89
  -3   3  -4 1124.69   53.79
  -3   3  -4 1209.18   53.79
   3   3   4 1261.87   54.49
  -3   3  -4 1206.38   53.89
   3   3   4 1266.87   53.79
  -3   3  -4 1147.79   53.49
   3   3   4 1194.88   53.89
   4  -3   4  186.98   10.90
   4  -3   4  179.28   10.50
  -4  -3  -4  179.98    9.40
   4  -3   4  184.88   10.30
   4  -3   4  176.98   10.00
   4  -3   4  192.08   10.70
  -4  -3  -4  199.48   11.80
  -4  -3  -4  191.18    9.70
  -4  -3  -4  185.38   10.50
  -4  -3  -4  187.48   10.80
  -4  -3  -4  179.18   10.50
   4   3   4  169.48   10.70
   4   3   4  188.18    9.80
   4   3   4  188.68   10.40
  -4   3  -4  177.58   10.60
  -4   3  -4  192.98   12.10
  -4   3  -4  194.38   10.80
   4   3   4  198.68   10.70
  -4   3  -4  181.38   10.40
   4   3   4  188.68   10.50
  -5  -3  -4   59.29    6.20
  -5  -3  -4   51.49    4.20
  -5  -3  -4   43.10    6.00
   5  -3   4   44.60    5.20
   5  -3   4   53.59    5.80
  -5  -3  -4   47.90    5.50
   5  -3   4   39.10    4.50
   5  -3   4   45.20    5.30
  -5   3  -4   40.20    4.70
  -5   3  -4   53.39    5.40
   5   3   4   34.30    5.30
   5   3   4   55.69    5.70
  -5   3  -4   43.10    5.30
   5   3   4   45.10    5.30
  -5   3  -4   54.69    6.20
  -5   3  -4   40.00    6.50
   5   3   4   39.80    5.00
   5   3   4   44.60    4.80
   6  -3   4  278.57   15.30
  -6  -3  -4  283.17   15.60
   6  -3   4  266.67   15.40
  -6  -3  -4  262.97   15.50
   6  -3   4  264.07   15.40
  -6  -3  -4  296.07   15.40
  -6  -3  -4  250.97   16.70
   6   3   4  266.87   15.10
  -6   3  -4  261.37   15.00
  -6   3  -4  268.47   15.50
  -6   3  -4  271.87   15.60
   6   3   4  278.17   15.40
  -6   3  -4  290.97   17.50
   6   3   4  268.67   15.30
   6   3   4  291.47   15.90
   6   3   4  296.77   14.50
  -7  -4   4   30.90    5.60
   7  -4  -4   16.20    5.00
   7  -4  -4   17.70    4.60
   7  -4  -4   23.50    5.00
   7  -4  -4   22.90    4.50
  -7   4   4   20.10    4.80
   7   4  -4   17.80    3.80
  -7   4   4   27.70    4.50
   7   4  -4   17.00    4.50
   6  -4  -4   53.49    6.60
   6  -4  -4   53.29    5.90
  -6  -4   4   51.49    6.10
   6  -4  -4   53.59    6.10
   6  -4  -4   57.09    6.00
  -6  -4   4   55.59    6.80
   6  -4  -4   51.29    5.80
  -6   4   4   62.79    6.00
   6   4  -4   50.69    5.30
   6   4  -4   44.40    5.80
  -6   4   4   54.89    6.10
   6   4  -4   49.99    5.90
  -6   4   4   52.49    7.20
   6   4  -4   54.79    6.70
  -6   4   4   53.19    5.50
   6   4  -4   51.29    5.00
   5  -4  -4  349.37   16.90
   5  -4  -4  324.97   16.00
  -5  -4   4  308.67   16.30
   5  -4  -4  306.37   16.00
   5  -4  -4  301.37   15.90
  -5  -4   4  309.77   16.60
   5  -4  -4  291.87   15.80
  -5   4   4  280.77   16.70
   5   4  -4  311.67   15.20
   5   4  -4  316.17   15.00
   5   4  -4  293.97   16.00
  -5   4   4  298.07   15.60
  -5   4   4  329.37   16.40
   5   4  -4  318.87   16.80
  -5   4   4  319.97   16.10
  -5   4   4  318.67   15.70
   4  -4  -4  330.17   16.50
   4  -4  -4  352.06   17.20
   4  -4  -4  341.57   16.50
  -4  -4   4  327.97   16.80
  -4  -4   4  334.97   17.00
   4  -4  -4  340.57   16.40
   4  -4  -4  344.37   16.50
  -4  -4   4  324.57   16.60
  -4   4   4  323.97   17.20
  -4   4   4  352.56   16.60
  -4   4   4  337.37   16.80
   4   4  -4  345.37   15.60
   4   4  -4  322.57   15.70
   4   4  -4  329.87   17.00
   4   4  -4  325.57   16.50
  -4   4   4  312.97   16.10
   4   4  -4  346.17   15.70
   4   4  -4  333.77   17.00
  -4   4   4  337.87   16.30
  -4   4   4  328.57   16.30
   3  -4  -4   78.09    5.10
   3  -4  -4   80.29    5.80
   3  -4  -4   76.39    5.20
  -3  -4   4   73.39    5.70
  -3  -4   4   67.29    4.40
   3  -4  -4   72.59    4.90
   3  -4  -4   73.09    5.10
  -3  -4   4   67.49    5.10
  -3  -4   4   67.49    5.00
  -3  -4   4   62.49    3.80
   3   4  -4   71.09    5.30
   3   4  -4   72.89    3.90
   3   4  -4   56.29    4.10
   3   4  -4   68.59    4.90
  -3   4   4   80.49    5.20
  -3   4   4   72.99    5.80
  -3   4   4   69.59    5.50
   3   4  -4   69.79    3.90
  -3   4   4   63.19    5.10
  -3   4   4   73.89    4.90
  -3   4   4   74.29    5.10
   3   4  -4   69.29    4.50
   3   4  -4   77.89    4.10
   3   4  -4   66.49    5.50
  -2  -4   4 1339.27   61.49
  -2  -4   4 1403.46   61.89
  -2  -4   4 1390.36   62.09
   2  -4  -4 1419.06   61.69
   2  -4  -4 1529.85   61.29
   2  -4  -4 1469.35   61.89
   2  -4  -4 1404.86   61.99
  -2  -4   4 1436.86   61.79
  -2  -4   4 1435.96   61.39
   2  -4  -4 1402.76   61.79
  -2   4   4 1448.56   61.89
   2   4  -4 1434.26   61.79
   2   4  -4 1349.36   61.49
   2   4  -4 1404.46   61.79
  -2   4   4 1362.96   61.79
   2   4  -4 1323.07   61.39
  -2   4   4 1370.56   61.59
  -2   4   4 1280.77   61.89
  -2   4   4 1388.36   61.19
   1  -4  -4  969.90   43.10
  -1  -4   4  898.71   42.40
  -1  -4   4  917.51   42.50
  -1  -4   4  969.30   42.60
   1  -4  -4 1005.80   42.70
   1  -4  -4  949.60   42.60
  -1  -4   4  998.40   42.30
   1  -4  -4  970.10   42.00
   1  -4  -4  991.50   42.70
   1  -4  -4  958.50   42.70
  -1  -4   4  936.71   42.90
   1   4  -4  991.50   42.50
  -1   4   4  985.70   42.70
  -1   4   4 1026.30   41.80
  -1   4   4  950.10   42.90
  -1   4   4  929.41   42.40
   1   4  -4  942.91   42.20
   1   4  -4  882.01   42.10
  -1   4   4  944.01   42.00
   1   4  -4  885.51   43.40
  -1   4   4  955.80   42.40
   0  -4  -4  152.38    8.10
   0  -4  -4  152.78    7.90
   0  -4  -4  159.08    8.50
   0  -4  -4  149.88    8.20
   0  -4  -4  145.69    7.90
   0  -4   4  131.89    7.30
   0  -4   4  139.69    6.90
   0  -4   4  145.19    7.60
   0  -4  -4  158.08    7.50
   0  -4  -4  158.28    7.30
   0  -4   4  144.39    7.60
   0   4  -4  136.79    7.00
   0   4  -4  149.69    7.30
   0   4  -4  153.78    7.30
   0   4  -4  134.79    6.90
   0   4  -4  139.59    7.40
   0   4   4  154.78    7.70
   0   4   4  137.29    6.80
   0   4  -4  137.39    6.90
   0   4  -4  131.29    6.80
   0   4  -4  156.18    7.80
   0   4   4  146.39    7.60
   0   4   4  152.78    7.90
   0   4   4  153.88    7.60
   0   4  -4  139.09    8.70
   0   4  -4  129.59    6.90
   0   4   4  146.79    8.20
   0   4  -4  138.09    7.50
   1  -4   4  673.23   31.20
   1  -4   4  674.23   31.30
  -1  -4  -4  728.73   32.10
  -1  -4  -4  732.03   30.90
   1  -4   4  683.13   31.00
  -1  -4  -4  705.33   31.30
  -1  -4  -4  715.13   31.80
   1  -4   4  688.43   31.60
   1  -4   4  724.63   31.60
   1  -4   4  675.73   30.90
  -1  -4  -4  737.33   32.10
  -1  -4  -4  765.32   32.40
   1  -4   4  686.43   31.30
  -1  -4  -4  716.63   31.90
  -1   4  -4  698.23   31.30
  -1   4  -4  701.73   31.70
  -1   4  -4  661.83   31.20
   1   4   4  741.73   32.10
  -1   4  -4  708.93   32.70
   1   4   4  697.03   31.60
  -1   4  -4  638.94   31.50
   1   4   4  728.13   31.90
  -1   4  -4  677.43   31.30
   1   4   4  734.73   31.90
   1   4   4  706.33   31.10
   2  -4   4 1133.19   50.59
  -2  -4  -4 1146.09   50.19
   2  -4   4 1127.19   50.69
   2  -4   4 1147.59   50.89
   2  -4   4 1118.09   50.29
   2  -4   4 1104.89   50.69
  -2  -4  -4 1132.19   50.79
   2  -4   4 1132.99   50.69
  -2  -4  -4 1179.68   51.09
  -2  -4  -4 1189.48   51.39
  -2  -4  -4 1181.18   51.29
   2  -4   4 1077.99   50.39
  -2   4  -4 1090.79   51.69
   2   4   4 1152.78   51.09
   2   4   4 1151.98   50.89
  -2   4  -4 1116.59   50.59
   2   4   4 1167.28   50.79
   2   4   4 1174.78   51.09
   2   4   4 1166.08   50.39
  -2   4  -4 1129.59   50.79
  -2   4  -4 1086.19   50.59
  -2   4  -4 1052.09   50.29
   2   4   4 1316.17   50.19
  -3  -4  -4   21.60    2.40
   3  -4   4   18.80    3.00
  -3  -4  -4   25.90    3.40
   3  -4   4   17.10    2.80
   3  -4   4   23.50    3.10
  -3  -4  -4   22.40    2.90
  -3  -4  -4   15.80    3.40
  -3  -4  -4   18.80    3.10
  -3  -4  -4   20.80    3.40
   3  -4   4   22.30    3.30
  -3   4  -4   20.00    4.00
  -3   4  -4   19.50    2.50
  -3   4  -4   19.40    3.00
  -3   4  -4   16.50    3.10
   3   4   4   18.50    3.50
   3   4   4   16.50    3.30
   3   4   4   17.30    2.90
   3   4   4   19.80    3.10
   3   4   4   19.70    2.80
  -3   4  -4   18.50    3.10
  -4  -4  -4  454.05   21.50
   4  -4   4  441.06   21.60
  -4  -4  -4  479.65   22.50
   4  -4   4  447.96   21.90
  -4  -4  -4  465.25   22.30
  -4  -4  -4  476.75   22.30
   4  -4   4  442.76   22.10
   4  -4   4  452.25   22.30
  -4  -4  -4  480.35   23.30
  -4   4  -4  448.56   22.30
  -4   4  -4  474.45   22.30
   4   4   4  497.05   22.90
   4   4   4  451.75   22.00
  -4   4  -4  466.95   22.10
   4   4   4  473.85   22.30
  -4   4  -4  432.26   22.20
  -4   4  -4  435.16   23.50
   4   4   4  463.75   22.10
   5  -4   4  368.86   18.60
   5  -4   4  360.96   17.90
  -5  -4  -4  392.66   18.90
   5  -4   4  366.16   18.80
   5  -4   4  361.36   19.00
  -5  -4  -4  350.26   19.80
  -5  -4  -4  350.06   17.70
  -5  -4  -4  383.36   18.80
   5   4   4  369.66   18.70
  -5   4  -4  365.46   18.90
   5   4   4  364.66   18.80
  -5   4  -4  352.46   20.30
   5   4   4  377.96   18.70
   5   4   4  372.66   20.60
  -5   4  -4  387.46   18.70
  -5   4  -4  344.17   18.80
   5   4   4  374.46   19.20
  -5   4  -4  377.96   18.70
  -6  -4  -4    5.90    3.50
   6  -4   4    3.50    3.30
  -6  -4  -4    0.80    3.60
   6  -4   4    2.60    3.10
  -6  -4  -4    4.50    3.20
   6  -4   4    6.40    3.80
  -6  -4  -4    7.50    4.30
   6   4   4    3.30    3.00
   6   4   4    1.90    3.20
  -6   4  -4    9.30    3.90
  -6   4  -4    6.30    4.60
   6   4   4    6.40    3.50
  -6   4  -4    1.60    3.10
   6   4   4    6.80    3.30
  -6   4  -4    3.80    3.50
  -6   4  -4    7.80    3.70
   6   4   4    6.70    3.50
   7  -5  -4    3.90    3.40
   7  -5  -4    1.50    3.30
  -7  -5   4    4.60    4.00
  -7   5   4    3.90    3.90
   7   5  -4    3.90    3.70
   7   5  -4    5.00    3.00
   6  -5  -4    3.20    2.70
   6  -5  -4    1.70    3.00
  -6  -5   4   14.40    3.70
   6  -5  -4    2.30    3.20
   6  -5  -4   10.60    4.00
  -6  -5   4    6.50    3.60
   6  -5  -4    4.30    3.40
   6   5  -4    2.30    2.60
  -6   5   4    1.00    3.40
  -6   5   4    0.50    2.80
   6   5  -4   -3.50    3.10
   6   5  -4    1.30    3.10
  -6   5   4    2.40    3.60
  -6   5   4   -1.50    2.40
   6   5  -4    2.40    2.30
   6   5  -4    2.80    3.00
  -5  -5   4   12.80    3.60
   5  -5  -4    4.00    3.20
  -5  -5   4    4.60    2.80
   5  -5  -4    8.00    2.80
   5  -5  -4    8.00    3.00
   5  -5  -4    7.40    3.00
   5  -5  -4    9.60    3.00
  -5  -5   4    6.10    2.80
   5   5  -4    8.20    2.40
  -5   5   4    6.60    3.30
   5   5  -4    6.10    3.40
  -5   5   4    9.30    2.90
  -5   5   4    9.70    3.00
   5   5  -4    9.90    3.10
   5   5  -4    4.90    2.00
  -5   5   4    4.90    2.30
  -5   5   4    3.30    3.30
   5   5  -4    0.40    2.50
  -4  -5   4    9.40    2.70
   4  -5  -4   11.40    2.70
  -4  -5   4    6.80    2.50
  -4  -5   4   12.20    3.20
   4  -5  -4    7.50    2.60
   4  -5  -4   10.30    2.70
   4  -5  -4   11.70    2.70
   4  -5  -4    4.00    2.80
  -4   5   4    9.30    2.70
  -4   5   4    7.70    2.60
  -4   5   4    6.10    2.00
   4   5  -4    9.40    2.50
   4   5  -4    9.60    3.00
   4   5  -4   10.50    2.20
  -4   5   4    6.20    3.10
   4   5  -4    6.30    1.60
  -4   5   4    8.90    3.00
   4   5  -4    8.70    1.90
   4   5  -4    9.80    2.70
  -4   5   4    6.10    2.10
   3  -5  -4   42.20    3.70
  -3  -5   4   32.20    3.80
  -3  -5   4   36.00    2.50
  -3  -5   4   40.40    4.10
   3  -5  -4   35.00    4.10
   3  -5  -4   42.30    4.10
  -3  -5   4   45.30    3.60
   3  -5  -4   40.80    4.10
   3  -5  -4   45.80    4.20
  -3  -5   4   43.10    4.50
   3   5  -4   35.10    2.50
   3   5  -4   36.30    3.30
   3   5  -4   35.60    2.50
   3   5  -4   41.60    3.70
  -3   5   4   33.70    4.10
  -3   5   4   44.90    4.20
  -3   5   4   33.50    4.00
   3   5  -4   38.20    4.00
  -3   5   4   26.60    3.50
   3   5  -4   39.60    3.90
   3   5  -4   41.80    4.40
  -3   5   4   47.50    3.60
  -3   5   4   48.70    4.40
  -2  -5   4   -0.10    1.70
  -2  -5   4    2.00    2.30
  -2  -5   4    1.80    1.80
  -2  -5   4    1.00    1.70
   2  -5  -4    3.90    1.80
   2  -5  -4   -2.60    1.40
   2  -5  -4    1.00    1.70
   2  -5  -4    1.50    1.40
  -2  -5   4    0.70    1.50
   2  -5  -4    1.20    2.00
  -2   5   4    2.00    1.10
  -2   5   4    1.90    2.10
   2   5  -4    1.90    1.60
   2   5  -4    2.20    1.40
  -2   5   4    2.00    1.90
  -2   5   4    3.30    1.90
   2   5  -4    2.90    1.50
   2   5  -4   -1.00    1.60
  -2   5   4   -1.80    1.70
  -2   5   4    1.60    1.80
  -1  -5   4   -0.10    1.30
   1  -5  -4    2.20    1.80
  -1  -5   4    4.10    2.30
  -1  -5   4    1.50    1.90
  -1  -5   4    1.30    1.60
   1  -5  -4    2.70    2.20
   1  -5  -4    3.80    1.90
  -1  -5   4    1.70    1.50
   1  -5  -4    1.20    1.80
  -1  -5   4    4.40    1.70
   1  -5  -4    1.60    1.90
   1  -5  -4    1.50    1.30
   1   5  -4    2.30    2.20
   1   5  -4    2.00    1.40
   1   5  -4    0.80    1.40
  -1   5   4    0.00    1.60
  -1   5   4    3.50    1.40
  -1   5   4    2.20    1.10
   1   5  -4    0.80    1.60
  -1   5   4    1.90    1.70
  -1   5   4    1.60    1.80
  -1   5   4   -1.00    1.80
   1   5  -4   -0.20    1.40
   0  -5  -4   61.39    4.00
   0  -5   4   56.29    3.90
   0  -5  -4   61.79    4.70
   0  -5  -4   61.19    4.60
   0  -5  -4   56.89    4.40
   0  -5   4   59.59    3.30
   0  -5   4   55.49    4.40
   0  -5  -4   60.29    4.00
   0  -5  -4   60.99    4.60
   0  -5   4   49.80    4.10
   0  -5  -4   66.89    5.00
   0   5  -4   61.69    4.40
   0   5  -4   51.49    3.50
   0   5  -4   57.99    3.30
   0   5  -4   53.79    5.40
   0   5   4   56.89    4.20
   0   5  -4   54.89    3.30
   0   5  -4   56.59    3.80
   0   5   4   64.59    4.60
   0   5   4   61.49    4.80
   0   5   4   58.89    3.40
   0   5   4   60.99    4.10
   0   5   4   63.39    4.30
   0   5  -4   51.09    3.30
  -1  -5  -4   17.40    2.90
  -1  -5  -4   19.20    2.90
   1  -5   4   17.90    2.00
  -1  -5  -4   14.70    2.90
   1  -5   4   17.60    1.70
  -1  -5  -4   18.10    3.10
   1  -5   4   16.30    2.50
   1  -5   4   18.00    2.50
  -1  -5  -4   20.00    2.80
  -1  -5  -4   19.60    2.10
   1  -5   4   20.10    2.50
   1  -5   4   19.30    2.20
   1   5   4   17.70    2.80
   1   5   4   20.80    2.00
   1   5   4   18.00    2.80
  -1   5  -4   19.60    2.30
  -1   5  -4   14.80    2.00
   1   5   4   14.70    2.60
  -1   5  -4   17.80    2.40
  -1   5  -4   14.80    2.40
   1   5   4   21.80    2.70
  -1   5  -4   19.30    2.20
  -1   5  -4   16.80    3.20
   2  -5   4    3.50    1.80
  -2  -5  -4    4.00    2.00
  -2  -5  -4    1.30    2.10
   2  -5   4    5.40    1.90
   2  -5   4    1.60    1.90
  -2  -5  -4    5.40    1.40
   2  -5   4    4.50    2.20
   2  -5   4    1.30    1.30
  -2  -5  -4    2.10    1.30
   2  -5   4   -0.10    1.90
  -2  -5  -4    2.50    2.30
   2  -5   4    2.60    1.50
  -2  -5  -4    6.90    2.30
   2   5   4    5.10    1.50
   2   5   4    3.70    2.00
  -2   5  -4    3.20    2.00
  -2   5  -4    2.30    1.80
  -2   5  -4    4.90    2.60
   2   5   4    5.20    1.60
  -2   5  -4    3.90    1.60
  -2   5  -4    1.30    1.70
   2   5   4    3.00    1.90
   2   5   4    2.60    1.90
   2   5   4    1.80    2.00
  -2   5  -4    3.10    1.80
   3  -5   4    6.20    2.30
  -3  -5  -4    9.40    2.20
  -3  -5  -4    7.00    2.90
  -3  -5  -4   12.00    2.80
   3  -5   4    5.30    2.50
   3  -5   4    6.10    2.30
  -3  -5  -4    1.60    2.10
  -3  -5  -4    6.20    2.60
   3  -5   4    6.10    2.30
   3  -5   4    5.70    2.40
   3  -5   4    6.50    2.30
   3   5   4    9.50    2.80
  -3   5  -4   10.80    3.40
  -3   5  -4    6.30    2.40
   3   5   4    9.00    2.40
  -3   5  -4    6.80    1.80
   3   5   4   11.20    2.60
  -3   5  -4    3.90    2.30
  -3   5  -4    5.00    2.30
   3   5   4    4.20    1.90
  -4  -5  -4   25.60    3.30
   4  -5   4   26.00    4.00
   4  -5   4   23.60    4.10
   4  -5   4   26.90    3.90
  -4  -5  -4   28.60    4.30
  -4  -5  -4   29.40    4.20
  -4  -5  -4   31.60    4.80
   4  -5   4   34.10    3.80
  -4  -5  -4   35.50    4.50
   4  -5   4   32.50    4.40
  -4   5  -4   28.20    4.10
   4   5   4   29.80    4.10
  -4   5  -4   25.30    4.90
  -4   5  -4   31.00    4.40
   4   5   4   26.60    4.30
   4   5   4   28.90    3.80
   4   5   4   35.40    4.30
  -4   5  -4   28.70    4.30
  -5  -5  -4    1.70    3.30
   5  -5   4   -0.70    2.80
  -5  -5  -4    1.40    2.60
  -5  -5  -4    7.00    3.10
   5  -5   4    1.00    3.00
  -5  -5  -4    2.00    2.20
   5  -5   4    2.30    2.90
   5  -5   4    4.10    2.40
  -5   5  -4   -5.30    3.40
   5   5   4   -0.60    2.60
   5   5   4    4.40    3.00
   5   5   4    3.40    2.80
  -5   5  -4    2.60    3.20
  -5   5  -4    0.60    2.50
  -5   5  -4   -1.20    3.00
   5   5   4    2.00    3.00
   5   5   4   -1.40    1.90
  -5   5  -4    2.80    2.80
  -6  -5  -4   11.50    3.50
   6  -5   4    7.00    3.80
  -6  -5  -4    6.80    4.50
   6  -5   4    9.80    4.10
   6  -5   4   -0.30    3.20
  -6  -5  -4    5.70    4.00
  -6  -5  -4   13.70    4.00
  -6   5  -4    6.10    4.60
  -6   5  -4    1.40    3.10
   6   5   4    7.30    3.70
   6   5   4   10.00    3.70
   6   5   4    4.90    3.70
   6   5   4    5.10    3.40
  -6   5  -4   -0.60    3.00
  -6   5  -4    8.60    4.10
  -6   5  -4    5.20    3.70
   7  -6  -4   10.40    4.30
  -7  -6   4   19.90    5.10
  -7   6   4   21.20    4.70
  -7   6   4   23.10    5.80
   7   6  -4   13.80    3.30
   6  -6  -4   43.40    6.30
   6  -6  -4   47.30    5.40
   6  -6  -4   38.70    5.60
  -6  -6   4   44.50    6.00
   6  -6  -4   45.60    5.70
  -6  -6   4   38.00    5.50
   6  -6  -4   55.19    6.20
  -6  -6   4   39.50    5.20
  -6   6   4   53.19    5.80
  -6   6   4   42.60    6.50
   6   6  -4   37.70    4.20
   6   6  -4   33.60    5.20
   6   6  -4   43.90    6.20
  -6   6   4   44.10    5.90
  -6   6   4   38.10    5.70
  -6   6   4   43.30    5.10
   5  -6  -4  200.08   11.40
   5  -6  -4  210.88   12.40
  -5  -6   4  179.58   11.40
   5  -6  -4  192.78   11.00
  -5  -6   4  203.88   11.40
  -5  -6   4  191.68   11.80
   5  -6  -4  191.98   11.30
   5  -6  -4  205.38   11.40
  -5   6   4  210.08   12.00
   5   6  -4  202.68   11.60
   5   6  -4  199.28   12.00
  -5   6   4  193.68   11.20
   5   6  -4  184.18   11.90
  -5   6   4  186.58   12.10
   5   6  -4  199.18   10.30
   5   6  -4  195.98    9.90
  -5   6   4  190.78   10.60
  -5   6   4  191.78   11.50
   4  -6  -4  108.19    6.90
   4  -6  -4   97.49    5.70
  -4  -6   4  101.19    7.50
  -4  -6   4   99.49    7.10
  -4  -6   4   96.79    6.90
   4  -6  -4  108.89    6.90
   4  -6  -4  111.29    7.10
   4  -6  -4  107.89    7.70
   4  -6  -4  107.49    7.00
  -4   6   4   88.29    6.80
  -4   6   4  101.49    7.10
   4   6  -4   97.29    7.00
   4   6  -4  104.19    7.60
  -4   6   4  113.79    7.10
   4   6  -4   93.59    5.60
  -4   6   4  103.69    7.70
   4   6  -4  106.19    5.70
  -4   6   4   89.89    7.60
   4   6  -4  103.89    5.40
  -4   6   4  104.79    6.30
   4   6  -4   91.49    6.30
   3  -6  -4   92.89    5.90
   3  -6  -4   86.49    6.50
  -3  -6   4   76.99    5.80
  -3  -6   4   72.29    5.70
   3  -6  -4   89.59    5.90
   3  -6  -4   80.09    5.90
  -3  -6   4   86.59    6.40
   3  -6  -4   90.69    5.60
  -3   6   4   86.09    6.40
   3   6  -4   79.89    5.70
   3   6  -4   82.19    5.20
  -3   6   4   83.59    6.20
  -3   6   4   80.09    5.90
   3   6  -4   86.59    6.10
   3   6  -4   80.99    5.60
   3   6  -4   88.19    6.30
  -3   6   4   89.79    6.10
  -3   6   4   83.69    6.30
   2  -6  -4  392.46   18.60
  -2  -6   4  378.96   18.50
  -2  -6   4  380.66   18.20
  -2  -6   4  374.26   17.90
  -2  -6   4  394.06   17.80
  -2  -6   4  365.96   18.30
   2  -6  -4  381.76   18.20
   2  -6  -4  385.56   18.20
   2  -6  -4  409.26   18.20
  -2  -6   4  372.26   18.10
   2   6  -4  396.56   18.20
  -2   6   4  375.76   18.50
   2   6  -4  378.76   18.00
  -2   6   4  375.16   18.00
  -2   6   4  399.16   18.20
  -2   6   4  380.96   18.20
  -2   6   4  359.26   18.00
   2   6  -4  402.66   18.00
  -2   6   4  347.47   17.20
   2   6  -4  358.66   17.80
   2   6  -4  382.76   18.10
  -1  -6   4  636.24   29.40
  -1  -6   4  678.23   29.40
   1  -6  -4  656.43   29.90
   1  -6  -4  651.23   29.60
   1  -6  -4  673.43   29.70
   1  -6  -4  677.43   30.00
  -1  -6   4  669.53   29.70
   1  -6  -4  644.24   29.80
   1  -6  -4  672.43   29.10
  -1  -6   4  634.74   29.60
  -1  -6   4  660.03   29.20
  -1   6   4  687.63   28.90
  -1   6   4  647.64   29.70
   1   6  -4  594.14   30.30
  -1   6   4  637.54   29.00
  -1   6   4  643.64   30.00
  -1   6   4  626.54   29.20
  -1   6   4  627.94   29.40
   1   6  -4  631.14   29.20
   1   6  -4  633.04   29.20
   1   6  -4  634.24   29.20
   0  -6   4   63.29    4.80
   0  -6  -4   69.89    4.80
   0  -6   4   63.49    4.50
   0  -6  -4   66.19    4.40
   0  -6  -4   65.39    5.10
   0  -6   4   63.69    3.90
   0  -6  -4   61.49    5.10
   0  -6   4   62.49    4.40
   0  -6  -4   64.79    4.80
   0  -6  -4   69.19    5.10
   0   6   4   64.09    3.90
   0   6   4   73.99    4.80
   0   6  -4   56.59    3.40
   0   6   4   64.49    5.20
   0   6  -4   52.69    3.90
   0   6   4   62.89    4.60
   0   6  -4   59.79    4.00
   0   6  -4   76.99    4.80
   0   6  -4   58.89    5.30
   0   6  -4   58.79    3.50
   0   6   4   68.59    5.00
   0   6  -4   60.29    3.60
   1  -6   4  630.64   29.60
  -1  -6  -4  670.93   30.20
   1  -6   4  631.44   29.70
  -1  -6  -4  705.83   29.40
   1  -6   4  657.13   29.60
  -1  -6  -4  649.64   29.90
  -1  -6  -4  685.43   29.90
   1  -6   4  643.34   29.10
  -1  -6  -4  695.03   30.20
   1  -6   4  615.24   28.80
   1   6   4  668.33   30.10
  -1   6  -4  564.54   29.10
   1   6   4  694.03   29.20
   1   6   4  650.93   29.70
  -1   6  -4  644.84   30.50
  -1   6  -4  656.53   29.10
  -1   6  -4  610.74   29.10
   1   6   4  673.63   29.90
  -1   6  -4  637.54   29.10
  -1   6  -4  655.43   29.70
   1   6   4  680.73   30.00
   2  -6   4  471.85   21.60
   2  -6   4  471.05   22.70
  -2  -6  -4  495.85   22.90
   2  -6   4  462.95   22.70
   2  -6   4  469.55   21.90
   2  -6   4  493.85   22.30
  -2  -6  -4  500.95   22.80
   2  -6   4  447.26   22.40
  -2  -6  -4  506.95   23.00
   2  -6   4  478.75   22.50
  -2  -6  -4  527.45   22.00
  -2  -6  -4  487.15   23.00
   2   6   4  502.95   22.90
  -2   6  -4  466.85   22.30
   2   6   4  462.45   22.50
  -2   6  -4  442.36   21.60
   2   6   4  509.15   22.30
  -2   6  -4  447.26   22.20
  -2   6  -4  480.65   22.70
  -2   6  -4  483.15   22.40
  -2   6  -4  466.15   23.40
   2   6   4  494.05   22.90
   2   6   4  546.25   22.30
  -2   6  -4  478.65   23.10
   2   6   4  487.75   22.90
  -3  -6  -4    6.80    2.50
   3  -6   4    1.80    2.50
  -3  -6  -4    1.50    2.60
   3  -6   4    4.80    2.30
   3  -6   4   -1.60    1.80
   3  -6   4    4.60    2.50
  -3  -6  -4    4.90    2.10
  -3  -6  -4    2.10    2.20
   3  -6   4    4.30    2.40
  -3  -6  -4    4.10    2.50
   3  -6   4    2.00    2.10
  -3   6  -4    2.40    2.40
  -3   6  -4    2.80    2.30
   3   6   4    0.20    1.80
  -3   6  -4    1.30    2.70
   3   6   4    1.80    2.00
   3   6   4   -2.10    2.30
   3   6   4    5.30    2.30
  -3   6  -4   -0.70    2.20
   3   6   4    1.10    2.00
  -3   6  -4    0.70    2.30
   4  -6   4  257.87   12.90
  -4  -6  -4  240.98   13.10
   4  -6   4  233.18   13.30
  -4  -6  -4  257.07   13.50
   4  -6   4  223.58   13.10
   4  -6   4  249.97   12.70
   4  -6   4  222.68   12.90
  -4  -6  -4  251.67   13.90
  -4  -6  -4  236.78   12.50
  -4  -6  -4  254.67   13.20
   4   6   4  238.78   12.80
  -4   6  -4  252.27   14.60
  -4   6  -4  248.78   13.30
  -4   6  -4  230.08   13.10
   4   6   4  247.08   13.10
   4   6   4  242.88   13.10
  -4   6  -4  237.48   13.40
  -4   6  -4  238.78   13.20
   4   6   4  245.68   13.50
  -5  -6  -4  199.18   10.80
  -5  -6  -4  204.48   12.60
   5  -6   4  202.68   11.40
  -5  -6  -4  198.08   11.50
   5  -6   4  183.18   11.60
   5  -6   4  188.88   11.50
  -5  -6  -4  196.78   11.60
   5  -6   4  187.98   10.90
   5  -6   4  178.18   11.60
   5   6   4  186.38   10.90
  -5   6  -4  191.78   11.80
  -5   6  -4  186.98   13.10
   5   6   4  207.98   12.20
  -5   6  -4  186.38   11.70
   5   6   4  190.68   11.40
  -5   6  -4  178.18   11.50
   5   6   4  206.98   11.60
  -5   6  -4  189.98   11.70
   5   6   4  208.18   11.60
  -6  -6  -4    1.40    3.50
   6  -6   4    1.40    3.60
  -6  -6  -4   21.70    5.70
   6  -6   4    1.80    3.30
   6  -6   4    0.30    3.20
  -6  -6  -4    2.80    3.00
  -6  -6  -4    1.30    3.10
   6  -6   4   -1.00    3.40
   6   6   4   -0.80    2.90
  -6   6  -4    2.80    3.30
  -6   6  -4    0.30    3.60
   6   6   4    0.00    3.10
   6   6   4    1.40    3.30
   6   6   4    2.30    3.20
  -6   6  -4    3.20    4.60
  -6   6  -4    1.00    3.00
  -7  -7   4   80.09    8.50
   7  -7  -4   72.69    9.80
   7   7  -4   78.89    6.30
  -7   7   4   81.49    8.00
   6  -7  -4  240.78   13.20
  -6  -7   4  211.48   13.30
   6  -7  -4  233.88   13.90
  -6  -7   4  190.08   12.90
  -6  -7   4  205.48   12.70
   6  -7  -4  231.88   12.60
   6  -7  -4  242.08   13.30
   6  -7  -4  200.38   12.80
  -6   7   4  239.88   13.00
  -6   7   4  209.58   13.90
   6   7  -4  205.58   13.10
   6   7  -4  204.08   13.50
   6   7  -4  214.08   11.30
  -6   7   4  216.28   13.50
  -6   7   4  227.08   13.30
   5  -7  -4    4.70    3.40
   5  -7  -4   10.90    3.20
  -5  -7   4    5.10    2.90
  -5  -7   4    6.90    3.30
   5  -7  -4    6.10    3.10
  -5  -7   4    6.40    3.00
   5  -7  -4   10.00    3.20
   5  -7  -4    9.80    2.90
   5   7  -4    6.90    2.40
  -5   7   4    7.60    3.10
  -5   7   4   10.60    3.50
  -5   7   4    2.40    3.30
  -5   7   4   10.40    2.50
  -5   7   4    4.40    3.50
   5   7  -4    3.10    1.80
   5   7  -4   10.20    3.20
   5   7  -4    5.30    3.30
   4  -7  -4  282.27   15.20
   4  -7  -4  320.07   16.10
   4  -7  -4  284.87   13.90
  -4  -7   4  283.37   15.20
  -4  -7   4  296.37   15.60
   4  -7  -4  295.97   15.00
  -4  -7   4  297.67   15.40
   4  -7  -4  297.27   15.10
   4  -7  -4  308.17   15.30
   4   7  -4  278.77   14.50
   4   7  -4  306.17   14.00
  -4   7   4  328.87   15.80
  -4   7   4  283.57   15.70
  -4   7   4  311.77   15.30
   4   7  -4  280.07   14.80
  -4   7   4  315.77   15.60
  -4   7   4  292.77   15.30
   4   7  -4  280.87   15.20
  -4   7   4  296.27   14.50
   4   7  -4  331.97   16.00
   3  -7  -4  793.72   32.90
  -3  -7   4  708.63   33.30
  -3  -7   4  688.13   33.00
   3  -7  -4  740.33   33.70
   3  -7  -4  731.43   33.10
   3  -7  -4  771.02   33.10
  -3  -7   4  691.13   33.10
   3  -7  -4  743.63   33.20
  -3   7   4  734.93   33.20
   3   7  -4  700.63   32.90
  -3   7   4  694.73   33.20
  -3   7   4  769.22   33.40
   3   7  -4  673.03   33.00
   3   7  -4  734.23   33.40
   3   7  -4  727.73   32.60
  -3   7   4  707.63   33.00
  -3   7   4  663.33   33.30
   2  -7  -4   24.90    3.20
   2  -7  -4   24.90    3.60
  -2  -7   4   23.10    2.90
   2  -7  -4   21.50    3.20
   2  -7  -4   22.40    3.60
  -2  -7   4   22.00    3.00
  -2  -7   4   24.40    3.50
  -2  -7   4   24.30    3.60
  -2  -7   4   22.10    3.10
  -2  -7   4   24.80    3.40
   2   7  -4   24.20    3.10
   2   7  -4   22.90    3.60
   2   7  -4   19.40    2.80
   2   7  -4   17.80    2.70
  -2   7   4   21.70    2.40
  -2   7   4   21.80    3.10
  -2   7   4   23.10    3.40
   2   7  -4   25.60    2.80
   2   7  -4   23.80    3.20
  -2   7   4   20.30    3.20
  -2   7   4   21.00    3.30
  -2   7   4   19.80    3.30
   2   7  -4   28.20    3.20
  -1  -7   4  304.37   14.40
   1  -7  -4  260.27   14.40
   1  -7  -4  307.17   14.30
   1  -7  -4  299.87   14.60
  -1  -7   4  297.97   13.70
   1  -7  -4  290.67   14.20
  -1  -7   4  286.97   14.50
   1  -7  -4  298.77   14.30
  -1  -7   4  268.77   14.10
  -1  -7   4  271.17   13.80
  -1  -7   4  271.07   13.90
  -1   7   4  294.97   14.40
  -1   7   4  278.07   14.50
  -1   7   4  270.67   13.60
   1   7  -4  292.47   14.30
   1   7  -4  284.87   13.80
  -1   7   4  291.07   13.70
  -1   7   4  283.47   14.10
   1   7  -4  278.87   14.80
   1   7  -4  282.27   13.60
   1   7  -4  286.87   13.70
   0  -7  -4 1715.63   74.99
   0  -7  -4 1746.93   74.99
   0  -7   4 1625.44   74.59
   0  -7   4 1680.23   73.99
   0  -7   4 1676.93   74.49
   0  -7   4 1712.13   74.69
   0  -7  -4 1797.12   74.69
   0  -7  -4 1782.62   74.69
   0  -7  -4 1765.12   74.99
   0  -7  -4 1755.12   74.89
   0   7   4 1679.43   74.59
   0   7   4 1774.72   73.89
   0   7  -4 1566.44   73.49
   0   7  -4 1621.44   75.19
   0   7  -4 1597.84   73.99
   0   7   4 1761.42   74.59
   0   7  -4 1451.85   73.49
   0   7   4 1768.82   74.99
   0   7  -4 1666.13   74.49
   0   7   4 1737.53   75.19
   0   7  -4 1690.93   73.59
   0   7  -4 1737.83   75.09
  -1  -7  -4  281.87   13.50
   1  -7   4  261.17   12.70
   1  -7   4  272.37   13.60
  -1  -7  -4  265.87   14.00
   1  -7   4  269.07   13.40
   1  -7   4  256.67   13.50
  -1  -7  -4  284.47   13.90
  -1  -7  -4  274.87   13.80
  -1  -7  -4  296.87   13.50
  -1   7  -4  282.77   14.30
  -1   7  -4  271.67   14.00
   1   7   4  287.37   13.10
  -1   7  -4  281.37   13.60
   1   7   4  278.77   14.00
   1   7   4  274.07   13.80
   1   7   4  266.57   13.50
   1   7   4  280.17   13.80
  -1   7  -4  265.87   12.80
  -1   7  -4  256.47   12.80
  -1   7  -4  234.28   12.70
  -1   7  -4  282.37   12.90
   2  -7   4  349.37   17.60
   2  -7   4  382.46   17.10
  -2  -7  -4  403.56   17.60
  -2  -7  -4  404.66   18.30
   2  -7   4  371.16   18.00
  -2  -7  -4  365.76   18.20
   2  -7   4  358.66   18.20
   2  -7   4  340.37   18.00
   2  -7   4  370.86   17.30
  -2  -7  -4  393.96   18.60
  -2  -7  -4  389.36   18.40
  -2   7  -4  363.36   17.70
  -2   7  -4  375.96   17.80
   2   7   4  378.56   18.40
   2   7   4  382.06   18.40
  -2   7  -4  340.27   18.70
   2   7   4  386.46   18.60
   2   7   4  378.56   18.10
  -2   7  -4  399.56   18.30
   2   7   4  412.36   17.90
  -2   7  -4  357.86   17.70
  -2   7  -4  358.16   18.60
  -3  -7  -4 1057.39   45.90
  -3  -7  -4  981.10   45.40
   3  -7   4  931.71   45.50
   3  -7   4  990.40   45.20
  -3  -7  -4 1049.59   45.50
   3  -7   4 1011.60   45.10
  -3  -7  -4 1007.20   45.20
   3  -7   4  951.70   45.30
   3  -7   4  996.50   44.80
  -3  -7  -4 1084.69   45.90
   3  -7   4  992.10   45.50
   3   7   4 1031.60   45.60
  -3   7  -4 1008.20   45.40
   3   7   4 1016.40   45.40
   3   7   4  987.10   45.30
  -3   7  -4  976.30   45.20
  -3   7  -4  964.70   46.30
   3   7   4 1044.80   45.20
  -3   7  -4  968.30   45.20
   3   7   4 1043.70   45.90
  -3   7  -4  980.50   45.90
   4  -7   4   92.59    6.60
   4  -7   4   88.59    7.10
   4  -7   4   95.89    6.90
  -4  -7  -4   89.69    6.30
  -4  -7  -4   95.99    7.40
   4  -7   4   90.39    6.50
  -4  -7  -4   79.59    6.80
  -4  -7  -4   81.59    6.80
  -4  -7  -4   84.79    7.30
   4  -7   4   97.09    7.50
   4   7   4   87.79    7.50
  -4   7  -4   86.49    7.20
  -4   7  -4   86.79    8.40
  -4   7  -4   85.79    7.30
  -4   7  -4   86.69    7.30
  -4   7  -4   83.29    7.00
   4   7   4   98.79    7.00
   4   7   4   92.29    6.50
   4   7   4   87.09    6.80
  -5  -7  -4   27.20    4.40
   5  -7   4   27.30    4.60
   5  -7   4   17.80    3.60
  -5  -7  -4   21.00    4.70
  -5  -7  -4   28.30    4.10
  -5  -7  -4   31.40    4.60
   5  -7   4   22.40    4.10
   5  -7   4   28.90    4.80
   5  -7   4   22.90    4.50
  -5   7  -4   29.50    5.70
   5   7   4   22.00    4.10
  -5   7  -4   26.70    4.50
   5   7   4   24.00    4.50
   5   7   4   26.30    4.40
  -5   7  -4   21.40    4.60
  -5   7  -4   25.50    4.50
   5   7   4   26.60    4.30
  -5   7  -4   27.30    4.90
   5   7   4   21.50    3.80
  -6  -7  -4  237.38   14.10
   6  -7   4  196.78   12.70
   6  -7   4  181.18   12.10
  -6  -7  -4  188.68   12.60
  -6  -7  -4  226.28   12.40
   6  -7   4  188.58   12.70
  -6   7  -4  202.58   14.50
   6   7   4  204.38   13.20
   6   7   4  213.68   14.50
   6   7   4  213.88   12.80
  -6   7  -4  183.08   12.80
  -6   7  -4  208.98   15.20
  -6  -8   4    9.90    3.90
  -6  -8   4   18.90    4.20
   6  -8  -4   16.00    4.10
   6  -8  -4    8.20    3.70
   6  -8  -4    9.20    3.80
   6  -8  -4   13.80    4.60
  -6  -8   4   13.80    4.30
  -6   8   4   19.70    4.40
   6   8  -4   10.00    3.70
  -6   8   4   30.90    5.30
   6   8  -4    9.50    2.50
  -6   8   4    7.80    4.20
   6   8  -4   16.20    4.60
  -6   8   4   16.70    4.40
  -5  -8   4   81.69    6.80
  -5  -8   4   79.29    7.10
   5  -8  -4   66.89    6.40
   5  -8  -4   67.79    6.70
   5  -8  -4   69.89    6.00
  -5  -8   4   86.59    7.30
   5  -8  -4   79.59    7.90
   5  -8  -4   65.49    6.60
   5   8  -4   67.49    4.60
  -5   8   4   69.99    7.40
   5   8  -4   68.49    6.10
  -5   8   4   76.49    7.20
  -5   8   4   76.29    7.40
   5   8  -4   75.89    7.50
  -5   8   4   77.89    6.80
   5   8  -4   71.59    6.80
   4  -8  -4   39.70    5.00
   4  -8  -4   55.69    6.20
   4  -8  -4   48.00    4.90
  -4  -8   4   48.30    5.30
   4  -8  -4   57.09    4.90
   4  -8  -4   55.09    5.40
  -4  -8   4   48.70    5.00
  -4  -8   4   59.59    5.70
   4  -8  -4   59.39    5.40
  -4   8   4   49.70    5.60
   4   8  -4   43.50    5.00
  -4   8   4   40.10    4.80
  -4   8   4   48.40    5.70
  -4   8   4   57.49    6.30
   4   8  -4   57.39    6.00
   4   8  -4   42.80    4.70
  -4   8   4   46.50    5.20
  -3  -8   4   33.10    4.40
   3  -8  -4   43.10    4.20
   3  -8  -4   41.80    4.20
  -3  -8   4   35.80    4.20
   3  -8  -4   41.50    5.00
  -3  -8   4   41.50    4.80
  -3  -8   4   41.70    4.50
   3  -8  -4   29.50    3.90
   3  -8  -4   39.50    4.30
  -3   8   4   46.50    5.10
   3   8  -4   37.70    4.60
  -3   8   4   27.10    4.10
  -3   8   4   35.20    3.30
   3   8  -4   39.00    4.30
   3   8  -4   45.30    4.60
  -3   8   4   42.80    4.70
   3   8  -4   34.40    3.40
   3   8  -4   41.90    3.80
  -3   8   4   35.10    4.30
  -3   8   4   36.20    4.50
  -2  -8   4  166.38    8.90
  -2  -8   4  154.38    8.80
   2  -8  -4  165.38    9.30
  -2  -8   4  140.99    9.10
   2  -8  -4  170.88    9.10
  -2  -8   4  176.58    9.60
   2  -8  -4  161.08    9.20
  -2  -8   4  164.68    9.40
   2  -8  -4  173.98   10.00
  -2  -8   4  155.88    9.00
  -2   8   4  154.28    8.30
  -2   8   4  169.88    9.40
  -2   8   4  157.28    9.10
   2   8  -4  152.28    9.50
   2   8  -4  164.18    8.90
   2   8  -4  160.68    9.10
   2   8  -4  150.58    8.90
  -2   8   4  151.48    8.80
  -2   8   4  164.98    9.20
   2   8  -4  171.08    9.20
   2   8  -4  162.58    8.90
   2   8  -4  171.48    8.50
  -2   8   4  150.18    9.50
  -1  -8   4  163.28    8.70
   1  -8  -4  173.98    9.20
  -1  -8   4  155.98    8.70
  -1  -8   4  165.58    9.30
   1  -8  -4  150.98    9.40
   1  -8  -4  170.38    9.20
  -1  -8   4  159.48    8.50
   1  -8  -4  148.79    9.50
  -1  -8   4  148.99    9.00
   1  -8  -4  169.28    9.00
  -1   8   4  146.59    8.90
   1   8  -4  161.48    8.60
  -1   8   4  163.68    8.70
   1   8  -4  171.68    9.30
   1   8  -4  160.08    8.40
   1   8  -4  169.28    9.00
   1   8  -4  158.18    9.50
  -1   8   4  162.18    9.20
  -1   8   4  166.08    8.80
  -1   8   4  157.08    8.30
  -1   8   4  155.98    9.50
   0  -8  -4   13.20    2.80
   0  -8   4    8.50    2.50
   0  -8  -4   10.20    2.10
   0  -8   4   13.30    2.00
   0  -8   4    8.70    2.30
   0  -8  -4   12.20    2.80
   0  -8  -4   14.00    2.90
   0  -8  -4   14.20    2.70
   0  -8   4   15.20    2.70
   0  -8  -4   11.70    2.80
   0   8  -4   11.80    1.40
   0   8  -4   10.60    2.60
   0   8   4   14.80    1.90
   0   8  -4   11.20    1.40
   0   8   4   10.60    2.40
   0   8  -4   13.40    1.90
   0   8  -4    6.50    2.20
   0   8  -4   10.70    2.70
   0   8   4   12.80    2.80
   0   8   4    9.90    2.70
   0   8   4   13.80    2.70
  -1  -8  -4  202.28    9.60
  -1  -8  -4  193.68   10.20
  -1  -8  -4  173.68   10.00
  -1  -8  -4  183.18   10.20
   1  -8   4  171.68    9.80
   1  -8   4  181.68    9.70
   1  -8   4  183.18    9.90
  -1  -8  -4  194.38    9.90
   1  -8   4  176.08    8.90
  -1   8  -4  150.98    9.10
  -1   8  -4  167.88    8.90
  -1   8  -4  144.39    8.70
   1   8   4  199.08   10.40
   1   8   4  184.48   10.20
  -1   8  -4  181.88    9.00
  -1   8  -4  187.98    9.00
  -1   8  -4  179.68   10.40
   1   8   4  180.48    9.80
   1   8   4  197.58   10.10
  -1   8  -4  174.18    9.90
   1   8   4  194.58    9.40
  -1   8  -4  182.48   10.30
   2  -8   4  211.58   11.40
  -2  -8  -4  199.58   11.60
  -2  -8  -4  227.48   11.10
  -2  -8  -4  232.98   11.50
   2  -8   4  194.18   11.50
  -2  -8  -4  220.18   12.00
  -2  -8  -4  209.58   11.50
   2  -8   4  221.18   11.10
   2  -8   4  210.98   10.50
   2  -8   4  207.88   11.70
  -2  -8  -4  232.48   11.90
  -2   8  -4  223.38   12.40
   2   8   4  225.28   12.00
   2   8   4  231.08   11.20
   2   8   4  228.68   11.90
  -2   8  -4  213.08   11.20
  -2   8  -4  209.98   12.20
  -2   8  -4  209.48   11.70
  -2   8  -4  226.28   12.50
  -2   8  -4  211.48   11.10
   2   8   4  227.38   12.10
   2   8   4  214.18   11.50
   3  -8   4    1.20    2.40
  -3  -8  -4    1.40    2.10
   3  -8   4    6.50    2.20
   3  -8   4    1.00    2.30
  -3  -8  -4    0.20    1.90
   3  -8   4    2.90    2.40
  -3  -8  -4    3.20    2.40
  -3  -8  -4    4.80    2.60
  -3  -8  -4    5.40    2.90
  -3  -8  -4   -1.00    2.40
   3  -8   4    1.80    2.40
   3  -8   4    2.00    2.60
  -3   8  -4   -0.10    2.40
  -3   8  -4   -0.70    2.60
   3   8   4    1.30    2.00
   3   8   4   -0.20    2.00
  -3   8  -4    1.60    2.40
  -3   8  -4    2.10    2.40
   3   8   4    3.30    2.60
   3   8   4   -0.60    2.30
   3   8   4    0.50    2.70
  -3   8  -4   -0.80    2.90
   4  -8   4   63.39    6.20
  -4  -8  -4   79.39    6.80
   4  -8   4   75.39    6.90
  -4  -8  -4   77.79    6.10
  -4  -8  -4   80.49    7.00
   4  -8   4   76.59    6.70
   4  -8   4   69.99    6.10
  -4  -8  -4   75.19    6.80
   4  -8   4   69.39    6.10
  -4  -8  -4   76.69    6.40
   4  -8   4   82.49    7.00
  -4   8  -4   68.29    6.60
   4   8   4   71.29    7.00
   4   8   4   79.89    6.40
   4   8   4   88.39    6.20
  -4   8  -4   73.49    7.10
  -4   8  -4   80.29    8.10
   4   8   4   77.09    6.50
  -4   8  -4   76.79    6.80
  -4   8  -4   74.09    6.70
   4   8   4   80.19    6.20
   5  -8   4   80.29    7.50
  -5  -8  -4   87.19    6.90
  -5  -8  -4   73.69    6.40
   5  -8   4   85.99    7.30
   5  -8   4   84.99    7.70
  -5  -8  -4   85.59    7.20
  -5  -8  -4   77.09    7.90
   5  -8   4   77.29    6.70
  -5  -8  -4   83.09    7.80
   5  -8   4   63.29    7.10
  -5   8  -4   72.29    8.30
  -5   8  -4   90.59    8.10
   5   8   4   76.89    7.70
   5   8   4   86.99    7.20
  -5   8  -4   76.29    7.60
   5   8   4   75.99    7.30
   5   8   4   78.39    6.90
  -5   8  -4   69.19    7.30
  -6  -8  -4    1.30    2.80
  -6  -8  -4    5.60    4.00
   6  -8   4    0.80    4.20
   6  -8   4   -0.80    3.10
  -6  -8  -4    1.40    3.60
   6  -8   4    6.20    3.70
   6   8   4    3.40    3.40
  -6   8  -4   -5.30    3.50
  -6   8  -4    0.40    4.50
   6  -9  -4   16.20    4.50
   6  -9  -4   29.80    5.60
  -6  -9   4   25.10    4.80
  -6  -9   4   29.40    5.20
   6  -9  -4   19.50    4.80
   6  -9  -4   31.10    5.30
  -6  -9   4   19.30    4.30
  -6   9   4   26.70    5.40
  -6   9   4   19.60    4.50
  -6   9   4   27.80    5.40
   6   9  -4   25.50    4.80
   6   9  -4   29.00    5.40
  -6   9   4   24.40    5.50
   5  -9  -4   -1.80    2.70
   5  -9  -4    2.80    2.80
  -5  -9   4    0.20    2.80
   5  -9  -4   -1.10    2.80
   5  -9  -4   -0.70    2.30
  -5  -9   4    0.80    2.40
   5  -9  -4    0.50    3.30
  -5  -9   4   -0.50    3.00
  -5   9   4   -3.40    3.00
  -5   9   4    6.30    3.60
   5   9  -4   -0.20    2.60
   5   9  -4    1.90    2.60
   5   9  -4    2.10    3.30
  -5   9   4    1.50    2.90
  -5   9   4    3.20    3.20
   4  -9  -4   48.40    4.80
   4  -9  -4   46.10    5.30
  -4  -9   4   48.10    5.30
   4  -9  -4   42.10    5.70
  -4  -9   4   45.90    5.40
   4  -9  -4   53.49    5.20
   4  -9  -4   70.59    6.40
  -4  -9   4   40.40    5.10
   4   9  -4   46.10    5.30
   4   9  -4   40.50    4.80
  -4   9   4   42.60    5.40
   4   9  -4   52.39    4.20
  -4   9   4   49.20    5.40
   4   9  -4   43.60    5.40
  -4   9   4   41.80    5.20
  -4   9   4   46.90    5.90
  -4   9   4   45.30    5.20
  -3  -9   4   37.20    4.70
  -3  -9   4   34.10    4.70
  -3  -9   4   38.40    4.30
   3  -9  -4   38.00    5.10
   3  -9  -4   40.70    4.60
   3  -9  -4   41.40    4.80
  -3  -9   4   36.00    4.30
   3  -9  -4   45.40    4.40
   3   9  -4   39.80    4.60
   3   9  -4   32.10    4.10
  -3   9   4   37.80    4.60
  -3   9   4   35.70    3.30
   3   9  -4   40.30    4.90
  -3   9   4   44.60    5.00
  -3   9   4   37.00    4.50
   3   9  -4   30.30    3.60
  -3   9   4   30.70    4.50
  -3   9   4   41.90    4.80
   3   9  -4   38.00    3.50
   2  -9  -4   70.09    6.60
  -2  -9   4   60.49    5.10
   2  -9  -4   74.19    6.60
   2  -9  -4   61.59    5.40
  -2  -9   4   67.39    5.90
   2  -9  -4   64.69    5.50
  -2  -9   4   59.79    5.40
  -2  -9   4   57.29    5.00
  -2  -9   4   65.49    4.90
  -2  -9   4   56.29    5.60
   2   9  -4   59.69    5.60
   2   9  -4   69.29    4.70
  -2   9   4   57.39    4.60
   2   9  -4   58.79    4.90
   2   9  -4   56.79    5.20
   2   9  -4   60.89    5.20
  -2   9   4   55.59    5.50
  -2   9   4   60.09    5.40
   2   9  -4   55.29    4.90
  -2   9   4   67.19    5.60
  -2   9   4   52.19    4.90
  -2   9   4   53.19    5.40
   2   9  -4   59.49    5.10
   1  -9  -4   93.19    6.50
  -1  -9   4   79.39    5.90
   1  -9  -4   97.89    7.00
  -1  -9   4   90.59    5.90
  -1  -9   4   83.49    6.30
   1  -9  -4   83.59    6.30
   1  -9  -4   94.49    5.90
   1  -9  -4   95.19    6.40
  -1  -9   4   99.09    6.70
  -1  -9   4   90.89    5.70
   1   9  -4   75.99    6.30
   1   9  -4   98.59    5.90
   1   9  -4   90.19    6.40
  -1   9   4   83.49    6.80
  -1   9   4   83.19    6.20
  -1   9   4   90.89    6.10
   1   9  -4   86.79    5.50
  -1   9   4   88.19    6.50
  -1   9   4  100.29    6.20
   1   9  -4   97.09    6.80
   0  -9  -4  124.89    7.90
   0  -9   4  127.89    7.60
   0  -9   4  124.79    6.80
   0  -9  -4  130.69    8.20
   0  -9   4  120.59    7.70
   0  -9  -4  134.79    7.80
   0  -9  -4  138.99    7.00
   0  -9   4  110.79    7.70
   0  -9  -4  141.59    8.00
   0  -9  -4  140.19    8.20
   0   9  -4  119.19    6.60
   0   9   4  133.89    8.00
   0   9  -4  125.79    6.40
   0   9  -4  116.09    7.70
   0   9  -4  123.39    8.10
   0   9  -4  121.49    6.20
   0   9  -4  125.19    7.50
   0   9   4  141.39    8.60
   0   9   4  125.79    7.70
   0   9   4  130.49    7.80
   0   9  -4  117.29    6.10
   1  -9   4   57.59    5.20
  -1  -9  -4   73.19    4.60
   1  -9   4   57.59    5.30
   1  -9   4   55.19    5.00
   1  -9   4   57.39    4.00
  -1  -9  -4   58.99    5.50
  -1  -9  -4   53.49    5.20
  -1  -9  -4   62.49    5.40
  -1  -9  -4   64.39    5.70
   1   9   4   64.19    4.70
   1   9   4   68.79    6.00
   1   9   4   64.99    5.10
  -1   9  -4   65.69    4.40
   1   9   4   58.39    5.50
  -1   9  -4   65.79    4.20
  -1   9  -4   51.99    5.30
   1   9   4   64.69    5.50
  -1   9  -4   49.80    4.00
  -1   9  -4   59.99    5.80
  -1   9  -4   60.19    5.30
   2  -9   4   56.09    4.00
  -2  -9  -4   65.59    5.80
  -2  -9  -4   64.49    5.10
  -2  -9  -4   70.89    6.30
   2  -9   4   56.29    5.10
  -2  -9  -4   50.89    5.20
   2  -9   4   48.40    5.20
   2  -9   4   59.99    5.30
  -2  -9  -4   66.59    4.90
   2  -9   4   55.09    4.50
  -2  -9  -4   69.39    5.70
   2   9   4   68.49    6.00
   2   9   4   61.29    5.90
  -2   9  -4   57.49    4.80
   2   9   4   47.60    5.10
   2   9   4   56.49    5.40
   2   9   4   59.89    4.80
  -2   9  -4   66.59    5.90
  -2   9  -4   51.49    5.50
  -2   9  -4   58.99    5.10
  -2   9  -4   61.49    5.60
   3  -9   4   92.89    6.50
   3  -9   4   77.29    5.60
  -3  -9  -4   89.99    6.60
  -3  -9  -4   79.99    6.90
  -3  -9  -4   79.69    6.20
   3  -9   4   83.69    6.00
  -3  -9  -4   90.49    5.90
  -3  -9  -4   92.79    6.60
  -3  -9  -4   78.99    6.50
   3  -9   4   86.39    6.90
   3  -9   4   79.49    6.50
  -3   9  -4   65.79    6.00
   3   9   4   76.79    6.40
   3   9   4   78.89    7.00
  -3   9  -4   75.09    7.20
   3   9   4   85.29    6.60
  -3   9  -4   85.79    7.10
   3   9   4   89.69    6.10
  -3   9  -4   79.99    6.40
  -3   9  -4   80.29    7.30
   3   9   4   81.49    6.60
   4  -9   4   21.90    3.70
  -4  -9  -4   22.20    4.30
   4  -9   4   25.30    4.20
   4  -9   4   25.40    3.80
   4  -9   4   25.00    4.20
  -4  -9  -4   25.90    3.70
  -4  -9  -4   25.50    4.30
  -4  -9  -4   21.20    4.00
   4  -9   4   21.00    4.30
   4  -9   4   24.70    4.20
  -4  -9  -4   23.80    4.00
   4   9   4   20.60    3.60
   4   9   4   22.60    3.50
  -4   9  -4   27.80    5.20
  -4   9  -4   20.30    4.20
  -4   9  -4   29.40    4.80
  -4   9  -4   14.10    3.70
   4   9   4   20.60    3.90
   4   9   4   26.50    4.60
   4   9   4   22.90    4.00
  -4   9  -4   24.00    4.50
   5  -9   4    8.90    3.80
   5  -9   4   18.40    4.50
  -5  -9  -4    9.00    3.20
  -5  -9  -4   16.20    4.30
  -5  -9  -4   17.40    3.60
  -5  -9  -4   15.60    4.30
  -5  -9  -4    3.80    3.50
   5  -9   4    8.70    3.20
   5  -9   4   10.40    3.60
   5   9   4   10.80    3.50
  -5   9  -4   12.10    4.00
  -5   9  -4    6.40    3.80
   5   9   4   13.00    3.90
   5   9   4   15.30    4.10
   5   9   4   11.40    3.60
  -5   9  -4    5.40    4.30
  -5   9  -4    4.60    3.30
  -6  -9  -4   22.20    4.30
   6  -9   4   12.30    4.10
  -6  -9  -4   23.00    5.40
  -6  -9  -4   22.10    4.40
   6   9   4   18.00    4.50
  -6 -10   4   33.90    6.20
   6 -10  -4   27.40    5.20
   6 -10  -4   31.70    7.10
   6 -10  -4   34.20    6.20
  -6  10   4   27.00    5.90
   6  10  -4   36.70    5.40
  -6  10   4   32.70    5.60
  -6  10   4   22.50    5.00
  -5 -10   4  155.68   10.70
  -5 -10   4  187.28   11.20
   5 -10  -4  176.08   10.90
   5 -10  -4  185.28   12.20
   5 -10  -4  181.68   11.20
  -5 -10   4  150.48   10.50
   5 -10  -4  163.48   11.00
  -5  10   4  186.88   11.80
   5  10  -4  164.18   10.60
  -5  10   4  164.88   11.50
  -5  10   4  180.08   11.30
  -5  10   4  162.68   13.50
  -5  10   4  175.08   11.40
   5  10  -4  170.48   11.10
   5  10  -4  179.78   11.60
   4 -10  -4  159.38    9.60
  -4 -10   4  158.58    9.90
   4 -10  -4  146.79    9.00
  -4 -10   4  135.29    9.40
   4 -10  -4  151.28    9.80
   4 -10  -4  158.58    9.90
   4 -10  -4  163.78   11.10
  -4 -10   4  148.19    9.60
   4  10  -4  149.09    9.80
   4  10  -4  153.78    9.70
  -4  10   4  160.58   10.20
  -4  10   4  147.19    9.80
  -4  10   4  141.49    9.90
  -4  10   4  154.48   10.40
  -4  10   4  164.08   10.50
   4  10  -4  156.48   10.30
  -3 -10   4   53.69    5.30
  -3 -10   4   57.09    5.70
  -3 -10   4   59.19    5.50
  -3 -10   4   51.39    5.80
   3 -10  -4   46.90    5.30
   3 -10  -4   46.20    5.20
   3 -10  -4   55.49    6.10
   3 -10  -4   57.69    5.20
  -3  10   4   69.39    6.40
   3  10  -4   65.59    6.20
   3  10  -4   52.09    5.30
  -3  10   4   49.40    5.30
   3  10  -4   46.20    4.10
   3  10  -4   55.29    5.50
  -3  10   4   65.99    6.30
  -3  10   4   56.29    5.70
  -3  10   4   54.79    5.80
   3  10  -4   52.69    4.90
  -2 -10   4  383.86   19.40
  -2 -10   4  410.06   20.00
  -2 -10   4  388.26   19.50
   2 -10  -4  413.16   19.40
   2 -10  -4  446.16   20.80
  -2 -10   4  389.06   20.00
   2 -10  -4  418.06   20.20
   2 -10  -4  408.36   20.00
  -2 -10   4  394.86   20.30
   2 -10  -4  437.06   19.90
   2  10  -4  426.16   19.10
  -2  10   4  397.66   19.60
   2  10  -4  400.26   19.70
  -2  10   4  428.06   19.20
   2  10  -4  400.66   20.40
  -2  10   4  380.66   19.90
   2  10  -4  399.86   19.80
   2  10  -4  406.26   19.50
   2  10  -4  387.46   19.80
  -2  10   4  413.66   20.60
  -2  10   4  401.56   19.80
  -2  10   4  394.56   19.20
   2  10  -4  399.06   20.20
   1 -10  -4  536.15   26.00
  -1 -10   4  531.65   25.20
   1 -10  -4  549.35   24.90
  -1 -10   4  499.55   25.50
  -1 -10   4  533.75   25.60
  -1 -10   4  541.25   25.10
   1 -10  -4  569.44   25.80
   1 -10  -4  541.55   25.50
   1 -10  -4  572.64   25.50
  -1 -10   4  541.95   24.90
   1  10  -4  539.75   25.70
  -1  10   4  567.84   26.30
  -1  10   4  524.45   24.90
  -1  10   4  530.45   25.60
  -1  10   4  569.34   25.20
   1  10  -4  534.65   24.70
   1  10  -4  544.85   24.80
   1  10  -4  513.55   25.70
   1  10  -4  538.25   25.60
  -1  10   4  510.95   25.30
   0 -10   4    0.70    2.10
   0 -10  -4    5.00    2.50
   0 -10  -4    4.20    2.60
   0 -10  -4    3.10    2.60
   0 -10  -4    1.30    1.50
   0 -10  -4    3.20    2.40
   0 -10  -4    6.00    2.70
   0 -10   4    3.60    1.70
   0 -10   4    1.50    2.20
   0 -10   4    2.30    2.20
   0  10   4    5.70    2.80
   0  10  -4    1.20    1.90
   0  10  -4    2.80    1.30
   0  10  -4   -1.50    2.20
   0  10  -4    7.10    2.60
   0  10   4    2.00    2.20
   0  10  -4    2.80    1.50
   0  10   4    3.10    2.50
   0  10   4    6.60    2.60
   0  10  -4    4.00    1.20
   0  10  -4    3.20    1.40
   1 -10   4  543.95   25.80
  -1 -10  -4  553.64   26.20
  -1 -10  -4  533.85   26.10
  -1 -10  -4  584.34   26.30
  -1 -10  -4  549.45   26.10
  -1 -10  -4  591.74   25.30
   1 -10   4  529.55   25.90
   1 -10   4  516.65   26.10
   1  10   4  578.24   26.60
  -1  10  -4  572.54   25.90
   1  10   4  511.05   25.70
  -1  10  -4  531.45   24.90
   1  10   4  575.94   26.30
   1  10   4  571.14   26.30
   1  10   4  595.14   25.70
  -1  10  -4  538.35   25.00
  -1  10  -4  512.15   26.00
  -1  10  -4  519.15   26.50
  -2 -10  -4  606.54   25.70
  -2 -10  -4  550.24   26.10
  -2 -10  -4  582.34   26.50
   2 -10   4  533.25   26.20
   2 -10   4  565.84   25.90
  -2 -10  -4  523.95   26.10
   2 -10   4  516.45   24.70
  -2 -10  -4  539.95   25.90
  -2 -10  -4  569.94   25.80
   2 -10   4  510.75   26.20
  -2  10  -4  547.65   26.10
  -2  10  -4  534.25   25.40
   2  10   4  543.85   26.00
  -2  10  -4  537.25   25.40
   2  10   4  576.84   26.50
   2  10   4  585.14   26.60
   2  10   4  589.64   25.90
  -2  10  -4  493.95   26.20
  -2  10  -4  525.85   26.70
   2  10   4  557.94   26.50
   3 -10   4    0.00    2.50
   3 -10   4   -0.80    2.50
  -3 -10  -4    1.90    2.60
  -3 -10  -4    4.70    2.40
  -3 -10  -4    3.20    2.40
  -3 -10  -4    0.10    2.80
   3 -10   4   -0.10    2.60
  -3 -10  -4    3.30    2.50
  -3 -10  -4    5.20    2.60
   3 -10   4    2.00    1.90
   3  10   4   -2.70    2.20
  -3  10  -4    2.20    2.90
  -3  10  -4    1.20    3.00
   3  10   4    5.40    2.80
  -3  10  -4    0.30    3.00
   3  10   4   -0.10    2.10
  -3  10  -4   -2.50    2.40
   3  10   4   -3.30    2.80
  -3  10  -4    3.00    2.40
   3  10   4   -0.30    2.60
   4 -10   4  219.68   12.20
  -4 -10  -4  236.08   12.80
   4 -10   4  187.48   12.50
  -4 -10  -4  224.98   12.50
  -4 -10  -4  208.88   12.00
   4 -10   4  226.58   13.30
   4 -10   4  203.38   12.60
  -4 -10  -4  228.18   12.90
  -4 -10  -4  217.28   12.20
   4 -10   4  197.38   11.60
  -4  10  -4  231.88   13.50
   4  10   4  233.18   12.30
  -4  10  -4  232.98   13.30
   4  10   4  204.28   13.10
   4  10   4  235.68   12.80
   4  10   4  226.68   12.40
  -4  10  -4  196.48   12.30
   4  10   4  217.98   12.40
  -4  10  -4  200.48   13.60
  -5 -10  -4  180.28   10.90
   5 -10   4  185.38   11.20
   5 -10   4  193.78   11.20
  -5 -10  -4  173.38   11.10
   5 -10   4  186.78   12.20
  -5 -10  -4  194.08   12.00
  -5  10  -4  166.98   12.00
   5  10   4  171.48   11.40
  -5  10  -4  183.28   12.40
  -5  10  -4  177.78   12.00
   5  10   4  195.38   11.60
   5  10   4  195.28   11.80
  -5  10  -4  186.18   11.70
  -5  10  -4  188.08   13.20
   5  10   4  205.08   12.60
   6 -11  -4   81.69    8.20
  -6  11   4   85.39    8.70
  -6  11   4   59.99    8.40
   5 -11  -4    2.10    2.90
   5 -11  -4   -1.80    2.80
  -5 -11   4    1.30    2.80
   5 -11  -4   -0.50    3.10
  -5 -11   4    3.60    3.30
   5 -11  -4   -1.70    3.80
  -5 -11   4   -0.50    2.80
  -5  11   4   -2.00    3.80
  -5  11   4   -2.60    3.00
  -5  11   4   -3.40    3.20
   5  11  -4   -1.80    3.10
   5  11  -4   -6.20    2.40
  -5  11   4    1.10    3.50
   5  11  -4    2.30    3.00
  -5  11   4   -1.20    3.00
   4 -11  -4   87.39    6.80
   4 -11  -4   82.89    7.40
   4 -11  -4   79.49    8.30
  -4 -11   4   85.49    7.20
  -4 -11   4   78.99    6.90
   4 -11  -4   87.89    7.50
  -4 -11   4   87.69    7.40
  -4  11   4   85.19    8.00
  -4  11   4   98.89    8.80
  -4  11   4   97.99    8.30
   4  11  -4   88.29    7.90
   4  11  -4   77.99    7.20
  -4  11   4   87.09    8.10
   4  11  -4   92.09    7.50
  -4  11   4   93.79    7.80
  -3 -11   4  198.78   11.50
  -3 -11   4  192.98   11.00
   3 -11  -4  201.88   12.40
   3 -11  -4  212.58   11.00
  -3 -11   4  179.48   10.90
  -3 -11   4  173.98   11.40
   3 -11  -4  191.48   11.50
   3 -11  -4  193.48   11.40
   3  11  -4  185.68   11.50
  -3  11   4  207.68   12.30
   3  11  -4  187.48   11.50
  -3  11   4  202.28   11.60
   3  11  -4  189.08   11.20
  -3  11   4  170.48   11.00
  -3  11   4  210.38   11.80
   3  11  -4  181.88   10.60
   3  11  -4  195.48   11.60
   3  11  -4  205.98   10.10
  -3  11   4  194.78   11.40
  -2 -11   4   34.80    4.00
   2 -11  -4   32.30    4.30
   2 -11  -4   30.10    2.70
  -2 -11   4   26.00    4.30
   2 -11  -4   33.00    4.90
   2 -11  -4   32.80    3.70
  -2 -11   4   36.00    4.60
  -2 -11   4   34.80    4.60
   2 -11  -4   40.30    5.10
  -2 -11   4   35.00    4.20
  -2  11   4   25.10    4.00
  -2  11   4   33.10    3.90
  -2  11   4   31.50    4.80
  -2  11   4   25.80    3.70
   2  11  -4   30.80    4.50
   2  11  -4   29.30    3.30
  -2  11   4   36.00    5.00
   2  11  -4   34.80    4.70
   2  11  -4   23.70    3.70
   2  11  -4   24.90    4.00
  -2  11   4   34.80    4.50
   1 -11  -4   63.99    6.20
   1 -11  -4   66.59    5.70
   1 -11  -4   61.49    6.20
  -1 -11   4   51.19    5.60
  -1 -11   4   61.79    5.50
   1 -11  -4   68.99    6.10
   1 -11  -4   61.49    4.40
  -1 -11   4   55.49    4.80
   1 -11  -4   71.29    6.20
  -1 -11   4   72.19    6.30
  -1 -11   4   62.89    5.00
   1  11  -4   65.99    4.70
  -1  11   4   76.19    5.70
  -1  11   4   63.89    6.00
   1  11  -4   55.69    5.60
  -1  11   4   60.19    5.20
   1  11  -4   64.29    6.00
   1  11  -4   54.69    5.30
  -1  11   4   64.19    5.70
  -1  11   4   51.99    5.70
   1  11  -4   61.79    5.10
   0 -11   4  424.26   20.90
   0 -11   4  440.26   21.70
   0 -11  -4  470.15   22.00
   0 -11  -4  471.65   20.80
   0 -11  -4  478.75   22.30
   0 -11  -4  460.05   22.00
   0 -11   4  420.16   22.10
   0 -11  -4  452.95   22.50
   0 -11  -4  473.85   22.10
   0 -11   4  435.86   21.90
   0  11  -4  468.05   21.60
   0  11   4  460.45   21.90
   0  11   4  473.05   22.10
   0  11  -4  460.35   22.50
   0  11  -4  422.16   20.60
   0  11   4  476.35   22.30
   0  11   4  499.95   22.80
   0  11  -4  423.36   20.40
   0  11  -4  440.16   21.80
  -1 -11  -4  189.28   11.00
   1 -11   4  173.38    9.40
   1 -11   4  195.88   10.90
  -1 -11  -4  205.58   11.40
  -1 -11  -4  206.58   11.20
   1 -11   4  171.08   10.90
   1 -11   4  169.88   11.10
  -1 -11  -4  190.38   11.00
  -1 -11  -4  222.48   10.50
   1  11   4  190.98   10.90
  -1  11  -4  183.08   10.80
  -1  11  -4  206.48   11.10
  -1  11  -4  187.68    9.80
   1  11   4  206.18   11.50
   1  11   4  211.98   11.90
  -1  11  -4  188.68   11.80
   1  11   4  213.98   11.50
   1  11   4  211.48   10.80
  -2 -11  -4  118.99    8.10
   2 -11   4   89.69    7.60
  -2 -11  -4  109.59    7.80
   2 -11   4   94.09    7.50
  -2 -11  -4  112.69    7.50
   2 -11   4  107.69    7.60
  -2 -11  -4   96.99    7.20
  -2 -11  -4  108.69    7.50
   2  11   4  113.29    7.50
   2  11   4  125.39    8.40
  -2  11  -4  101.19    6.80
  -2  11  -4  105.19    8.40
  -2  11  -4   98.59    7.90
   2  11   4  115.89    8.10
  -2  11  -4  101.79    7.70
   2  11   4  110.79    8.00
   2  11   4  115.39    7.30
   3 -11   4  276.87   15.00
   3 -11   4  245.08   14.60
   3 -11   4  258.87   14.30
  -3 -11  -4  265.87   14.90
  -3 -11  -4  258.27   14.70
  -3 -11  -4  292.17   14.30
  -3 -11  -4  275.57   14.30
  -3 -11  -4  270.67   14.40
  -3  11  -4  288.37   15.10
  -3  11  -4  263.97   15.50
   3  11   4  294.67   15.00
   3  11   4  282.77   14.50
  -3  11  -4  258.27   14.20
   3  11   4  265.47   14.50
   3  11   4  271.17   14.80
   3  11   4  279.57   15.50
  -3  11  -4  266.87   15.20
  -4 -11  -4   61.89    5.70
   4 -11   4   50.09    6.10
   4 -11   4   59.99    5.90
  -4 -11  -4   51.69    5.90
  -4 -11  -4   56.49    6.20
   4 -11   4   51.79    5.30
  -4 -11  -4   55.59    5.50
   4 -11   4   44.70    5.90
   4  11   4   52.69    6.00
   4  11   4   54.79    6.00
  -4  11  -4   50.09    6.00
   4  11   4   49.50    5.20
  -4  11  -4   45.50    6.50
  -4  11  -4   52.79    6.40
   4  11   4   54.29    5.70
  -4  11  -4   45.80    6.10
  -4  11  -4   39.90    5.50
   4  11   4   47.40    6.20
  -5 -11  -4    2.10    3.50
   5 -11   4    2.20    3.70
  -5 -11  -4    3.70    3.10
  -5 -11  -4    2.60    2.50
   5 -11   4    5.00    3.20
   5 -11   4    3.70    3.50
   5  11   4    4.30    3.90
  -5  11  -4    1.10    4.00
  -5  11  -4    4.30    3.80
  -5  11  -4   -3.80    3.00
   5  11   4    5.00    3.30
   5  11   4    4.80    3.40
  -5  11  -4   -1.00    3.80
  -5  11  -4    9.80    4.10
   5  11   4    4.90    3.20
   6 -12  -4    4.70    3.80
   5 -12  -4   -4.30    3.40
   5 -12  -4   -3.30    3.10
  -5 -12   4    3.40    3.20
  -5 -12   4   -0.60    2.80
   5 -12  -4   -0.40    3.10
   5  12  -4    0.60    2.90
  -5  12   4    1.20    3.80
  -5  12   4   -1.10    3.40
   5  12  -4   -2.60    3.10
  -5  12   4    0.90    3.60
   5  12  -4   -0.10    3.00
  -5  12   4    0.50    3.60
  -5  12   4    2.30    3.90
   4 -12  -4   -0.30    3.00
  -4 -12   4    2.00    2.80
   4 -12  -4   -1.60    3.50
  -4 -12   4    1.70    2.80
  -4 -12   4   -1.70    3.10
   4 -12  -4    0.20    2.80
  -4  12   4    1.00    3.40
  -4  12   4    2.30    3.40
   4  12  -4   -0.90    2.90
  -4  12   4   -1.60    3.00
   4  12  -4    4.20    3.50
  -4  12   4    3.50    3.60
  -4  12   4    1.10    3.40
   4  12  -4    2.40    3.00
   3 -12  -4    1.00    2.60
  -3 -12   4   -0.30    2.70
  -3 -12   4    1.50    2.80
   3 -12  -4   -0.20    3.50
   3 -12  -4   -2.40    3.00
   3 -12  -4   -2.70    2.60
  -3 -12   4    1.80    2.90
  -3 -12   4    0.20    2.60
   3  12  -4    2.40    2.40
  -3  12   4    8.30    3.10
  -3  12   4    1.00    3.10
   3  12  -4   -3.00    2.40
  -3  12   4    1.90    2.90
  -3  12   4   -1.70    2.90
  -3  12   4   -5.60    3.00
   3  12  -4    1.60    3.20
   3  12  -4    0.40    2.90
   3  12  -4    0.30    2.20
   3  12  -4    0.80    2.70
   2 -12  -4    6.50    3.00
  -2 -12   4    3.60    2.50
   2 -12  -4    7.90    3.60
   2 -12  -4    9.90    3.70
   2 -12  -4    6.80    2.90
   2 -12  -4    5.70    2.20
  -2 -12   4    6.90    3.20
  -2 -12   4    9.70    3.40
   2 -12  -4    8.30    3.80
  -2 -12   4    4.80    2.70
   2  12  -4    7.60    2.90
   2  12  -4    3.60    2.20
  -2  12   4    7.80    2.80
   2  12  -4    6.00    3.40
  -2  12   4   10.70    3.40
  -2  12   4    3.20    3.30
  -2  12   4   16.20    3.10
  -2  12   4   -0.60    2.80
  -2  12   4    0.70    2.60
   2  12  -4    4.20    2.80
   2  12  -4    3.50    2.40
   1 -12  -4    3.20    2.80
  -1 -12   4    0.90    2.70
   1 -12  -4    5.00    2.90
  -1 -12   4    3.60    2.70
   1 -12  -4    1.50    2.80
   1 -12  -4   -1.10    2.80
   1 -12  -4   -0.60    2.60
  -1 -12   4    3.90    2.30
  -1 -12   4    4.40    2.90
  -1 -12   4    1.30    2.00
   1  12  -4    6.00    2.30
   1  12  -4    1.10    2.50
   1  12  -4    6.30    2.50
  -1  12   4    0.60    2.30
  -1  12   4    1.60    3.00
  -1  12   4    5.80    2.90
  -1  12   4    2.30    2.50
   1  12  -4    4.60    2.90
   1  12  -4    1.90    1.90
  -1  12   4    1.80    2.70
   0 -12   4   10.90    3.20
   0 -12  -4   10.00    3.30
   0 -12  -4    8.40    2.90
   0 -12  -4   13.10    3.30
   0 -12  -4    6.20    2.90
   0 -12   4    8.50    2.90
   0 -12   4    6.60    2.90
   0 -12  -4   16.90    3.80
   0 -12   4   12.30    2.40
   0  12  -4    8.00    3.20
   0  12  -4   11.60    1.90
   0  12   4   14.60    3.50
   0  12  -4   13.30    2.10
   0  12  -4    5.50    2.40
   0  12  -4    6.30    2.80
   0  12   4    8.60    3.10
   0  12  -4    5.20    3.00
   0  12  -4    6.30    1.80
   0  12   4   12.70    3.70
   0  12   4    6.60    3.10
   1 -12   4   -1.60    2.40
  -1 -12  -4   -2.50    2.10
  -1 -12  -4   -2.40    2.30
   1 -12   4    1.90    1.60
  -1 -12  -4   -1.40    2.60
  -1 -12  -4   -3.80    2.50
   1 -12   4    2.20    2.60
   1 -12   4    2.00    2.60
  -1  12  -4    5.50    2.90
   1  12   4    1.20    2.30
   1  12   4    0.00    2.10
  -1  12  -4   -0.60    2.20
   1  12   4    4.50    2.80
  -1  12  -4    5.90    3.00
   1  12   4   -3.30    2.80
  -1  12  -4   -0.10    1.90
  -1  12  -4    0.60    1.80
   1  12   4    0.80    2.90
   2 -12   4    2.60    2.80
  -2 -12  -4   -0.50    2.70
  -2 -12  -4    2.90    2.90
  -2 -12  -4   -0.70    2.50
   2 -12   4    1.70    2.80
   2 -12   4    0.60    2.70
  -2 -12  -4   -0.10    2.70
  -2 -12  -4    1.20    2.40
   2  12   4    1.40    2.80
  -2  12  -4    1.40    3.00
  -2  12  -4    3.90    2.80
   2  12   4    1.50    3.20
   2  12   4    1.00    2.30
  -2  12  -4   -1.30    2.00
  -2  12  -4    1.40    2.90
  -2  12  -4    0.00    2.30
   2  12   4   -1.10    2.40
   2  12   4    0.50    2.80
  -3 -12  -4    5.40    2.50
  -3 -12  -4    1.00    2.60
  -3 -12  -4    3.60    3.10
  -3 -12  -4    4.30    2.70
  -3 -12  -4    7.20    3.20
   3 -12   4    0.30    2.90
   3 -12   4   -2.60    2.70
   3 -12   4    1.90    2.80
  -3  12  -4    7.40    3.80
  -3  12  -4    3.40    3.00
   3  12   4    2.10    2.80
   3  12   4    3.20    3.50
   3  12   4    5.60    3.00
  -3  12  -4   -1.50    3.00
  -3  12  -4    1.50    2.60
   3  12   4    3.10    2.80
  -3  12  -4    0.20    3.10
   3  12   4    2.10    2.80
  -4 -12  -4    1.90    2.70
   4 -12   4   -1.80    2.80
  -4 -12  -4    2.40    2.60
   4 -12   4    1.50    3.40
   4 -12   4    5.00    3.40
  -4 -12  -4    1.20    3.20
   4  12   4   -1.70    2.60
   4  12   4    3.60    2.80
   4  12   4   -1.10    3.10
  -4  12  -4    1.90    3.40
   4  12   4   -3.60    3.30
  -4  12  -4   -1.70    3.60
  -4  12  -4    4.30    3.90
   4  12   4    7.20    3.30
  -4  12  -4    6.80    3.30
  -4  12  -4   -2.50    2.90
  -5 -12  -4   -1.70    2.60
  -5 -12  -4   -0.10    2.80
  -5 -12  -4   -1.80    3.30
   5  12   4    4.60    3.50
  -5  12  -4   -1.90    4.00
  -5  12  -4   -4.30    3.40
  -5  12  -4   11.10    4.30
   5  12   4   -3.30    3.80
   5 -13  -4   -3.80    3.20
  -5 -13   4    4.90    3.50
   5 -13  -4   -0.30    4.00
  -5 -13   4    3.00    4.00
   5 -13  -4    4.80    4.40
   5  13  -4   -4.60    3.30
  -5  13   4    1.60    3.70
  -5  13   4    3.90    6.10
   5  13  -4    1.30    3.60
  -5  13   4    6.20    4.00
  -5  13   4   -4.00    3.40
   5  13  -4   -0.80    3.30
  -5  13   4    1.40    3.70
   4 -13  -4   62.19    6.80
  -4 -13   4   63.69    7.30
   4 -13  -4   78.59    8.60
   4 -13  -4   61.09    6.90
  -4 -13   4   59.09    6.20
  -4 -13   4   75.09    6.90
   4  13  -4   61.89    7.10
  -4  13   4   75.59    7.50
  -4  13   4   56.09    7.10
  -4  13   4   88.29    8.20
  -4  13   4   71.89    7.30
   4  13  -4   77.79    7.90
   4  13  -4   63.09    7.00
  -4  13   4   73.49    7.30
  -3 -13   4  137.19    8.60
  -3 -13   4  114.19    9.10
  -3 -13   4  119.79    8.80
   3 -13  -4  116.19    8.90
   3 -13  -4  139.79   10.30
  -3 -13   4  124.19    8.40
   3 -13  -4  115.49    9.30
  -3  13   4  123.79    9.00
  -3  13   4  119.59    8.30
   3  13  -4  125.99    9.50
   3  13  -4  144.09    9.50
   3  13  -4  109.59    9.60
  -3  13   4  107.79    9.20
  -3  13   4  138.29   10.20
   3  13  -4  106.89    8.20
   3  13  -4  131.99    9.10
  -3  13   4  119.79    9.20
   2 -13  -4   17.20    3.40
   2 -13  -4   12.90    4.40
   2 -13  -4   17.70    4.30
   2 -13  -4   11.90    3.50
  -2 -13   4   19.30    3.40
  -2 -13   4   11.60    3.80
  -2 -13   4   10.60    3.60
  -2 -13   4   16.50    3.30
   2 -13  -4   13.30    4.40
  -2  13   4   11.30    3.60
  -2  13   4   12.30    3.70
   2  13  -4   11.50    3.80
  -2  13   4    9.10    3.40
  -2  13   4   16.50    4.20
   2  13  -4   13.40    3.50
   2  13  -4   15.10    3.40
   2  13  -4   10.10    2.70
  -2  13   4   11.30    3.10
   2  13  -4   12.70    3.50
  -2  13   4   16.70    4.20
   1 -13  -4   94.79    8.20
  -1 -13   4   99.49    7.50
   1 -13  -4  106.49    7.80
  -1 -13   4   85.89    6.20
  -1 -13   4   98.49    6.50
   1 -13  -4   81.69    7.00
   1 -13  -4   77.79    7.00
  -1 -13   4   94.09    7.60
   1 -13  -4   82.99    6.90
   1  13  -4   82.79    6.50
   1  13  -4   96.89    6.00
  -1  13   4  111.69    7.40
   1  13  -4   81.39    7.40
  -1  13   4   91.29    8.30
   1  13  -4   94.39    7.80
  -1  13   4   84.19    6.70
   1  13  -4   83.09    6.40
  -1  13   4   88.09    7.20
   0 -13  -4  244.38   13.20
   0 -13   4  242.68   13.40
   0 -13  -4  281.57   13.80
   0 -13  -4  252.87   14.20
   0 -13  -4  254.47   13.80
   0 -13   4  237.98   13.50
   0 -13   4  224.88   13.70
   0 -13   4  226.98   12.30
   0 -13  -4  254.87   13.70
   0  13   4  265.57   13.90
   0  13   4  260.77   13.80
   0  13  -4  245.38   14.30
   0  13   4  252.67   14.70
   0  13  -4  231.18   11.80
   0  13   4  251.87   13.40
   0  13  -4  264.27   14.30
   0  13  -4  229.78   12.80
   0  13  -4  266.87   13.30
  -1 -13  -4   30.40    4.70
   1 -13   4   44.30    5.70
  -1 -13  -4   52.89    5.30
  -1 -13  -4   42.10    5.40
  -1 -13  -4   53.29    5.60
   1 -13   4   38.50    4.90
  -1 -13  -4   40.30    5.00
   1 -13   4   52.79    5.40
   1  13   4   44.90    5.80
   1  13   4   52.09    6.00
   1  13   4   49.90    5.10
  -1  13  -4   38.60    5.50
   1  13   4   47.60    5.40
   1  13   4   28.30    4.60
  -1  13  -4   42.60    4.00
  -1  13  -4   46.90    4.40
  -1  13  -4   52.79    5.60
  -1  13  -4   46.00    4.80
  -2 -13  -4   80.69    6.70
  -2 -13  -4   63.09    6.10
   2 -13   4   62.99    6.80
   2 -13   4   63.89    6.50
   2 -13   4   68.89    6.40
  -2 -13  -4   63.29    6.50
  -2 -13  -4   60.69    5.90
  -2 -13  -4   80.79    6.90
   2  13   4   54.09    6.20
   2  13   4   84.09    7.60
  -2  13  -4   56.19    6.80
  -2  13  -4   56.59    6.10
  -2  13  -4   63.79    5.50
  -2  13  -4   56.99    6.20
   2  13   4   66.09    6.10
  -2  13  -4   70.49    6.10
   2  13   4   50.99    6.20
   2  13   4   59.89    6.20
   3 -13   4  155.88   10.00
  -3 -13  -4  155.58    9.80
  -3 -13  -4  151.68   10.10
  -3 -13  -4  158.98   10.50
  -3 -13  -4  156.08    9.30
  -3 -13  -4  169.68    9.90
   3 -13   4  134.29   10.10
  -3 -13  -4  158.08   10.10
   3 -13   4  146.59   10.50
  -3  13  -4  153.68    9.90
  -3  13  -4  135.19   10.20
  -3  13  -4  149.69    9.70
   3  13   4  160.58   11.00
   3  13   4  166.48   10.60
   3  13   4  163.98   10.00
  -3  13  -4  143.39   11.10
  -3  13  -4  143.79   10.80
   3  13   4  158.08   10.40
   3  13   4  147.69    9.90
  -4 -13  -4   35.20    4.80
  -4 -13  -4   49.99    5.90
   4 -13   4   28.40    5.20
   4 -13   4   33.80    5.60
   4 -13   4   32.50    4.90
  -4 -13  -4   39.40    4.90
   4  13   4   21.60    5.20
  -4  13  -4   38.20    5.80
  -4  13  -4   37.10    5.10
  -4  13  -4   33.90    5.40
  -4  13  -4   31.40    5.60
   4  13   4   24.90    4.60
   4  13   4   29.90    5.00
  -4  13  -4   39.00    6.00
   4  13   4   37.00    5.70
  -5  13  -4    7.00    4.20
   5  13   4    9.10    3.90
  -5 -14   4   80.59    8.00
   5 -14  -4   58.89    9.20
  -5  14   4   62.89    8.20
  -5  14   4   69.89    7.90
  -5  14   4   98.19   13.60
   5  14  -4   58.49    7.40
   4 -14  -4   61.39    7.00
   4 -14  -4   80.19    8.00
  -4 -14   4   64.69    6.70
   4 -14  -4   55.09    7.50
  -4 -14   4   71.99    8.10
  -4 -14   4   71.69    7.00
   4  14  -4   60.09    7.20
   4  14  -4   66.29    7.20
  -4  14   4   72.79    7.90
  -4  14   4   70.79    7.30
  -4  14   4   59.99    6.90
  -4  14   4   64.79    7.60
   4  14  -4   55.79    7.00
  -4  14   4   65.89    7.20
   3 -14  -4   15.10    5.00
  -3 -14   4   13.30    3.60
   3 -14  -4   15.20    4.80
  -3 -14   4   22.90    4.10
   3 -14  -4   24.60    5.10
  -3 -14   4   24.80    4.80
   3 -14  -4   12.60    3.90
  -3  14   4   15.70    4.20
  -3  14   4   20.90    4.60
   3  14  -4    5.40    3.60
   3  14  -4   12.40    3.90
  -3  14   4    9.40    4.00
   3  14  -4    9.30    3.20
   3  14  -4   13.90    4.10
  -3  14   4   14.90    4.40
  -2 -14   4  170.28   10.30
  -2 -14   4  185.28   12.00
   2 -14  -4  193.38   11.40
  -2 -14   4  164.28   10.40
   2 -14  -4  200.58   12.60
   2 -14  -4  200.68   12.30
   2 -14  -4  183.28   10.80
  -2 -14   4  168.38   11.20
  -2  14   4  193.88   12.60
  -2  14   4  168.68   11.50
  -2  14   4  193.18   11.00
   2  14  -4  195.08   11.80
   2  14  -4  174.88   12.00
  -2  14   4  178.68   11.00
   2  14  -4  164.98   10.00
   2  14  -4  179.48   11.30
  -2  14   4  177.98   11.20
   1 -14  -4  168.68   10.70
   1 -14  -4  173.68   10.10
  -1 -14   4  152.48    9.30
   1 -14  -4  159.58   10.20
   1 -14  -4  160.48   10.00
   1 -14  -4  170.28   11.20
  -1 -14   4  149.69   10.10
  -1 -14   4  149.69   10.30
   1  14  -4  142.09   10.50
  -1  14   4  172.48   11.60
  -1  14   4  167.38   10.30
  -1  14   4  163.28   10.10
   1  14  -4  164.78   10.70
   1  14  -4  160.68    9.40
  -1  14   4  168.28    9.70
   0 -14  -4    3.60    3.00
   0 -14   4   -0.20    2.60
   0 -14  -4    2.30    2.80
   0 -14  -4   -0.30    2.90
   0 -14  -4    0.60    2.30
   0 -14   4    3.00    3.10
   0 -14   4    1.10    2.10
   0  14   4   -2.30    3.20
   0  14   4    0.60    2.80
   0  14  -4    1.20    3.00
   0  14  -4   -0.20    3.00
   0  14  -4    2.20    2.70
   0  14   4    3.80    2.90
   0  14   4   -2.40    3.00
   1 -14   4  179.08   11.10
   1 -14   4  177.48   11.60
  -1 -14  -4  204.28   11.40
   1 -14   4  156.98   10.90
  -1 -14  -4  178.88   10.60
  -1 -14  -4  172.68   11.00
  -1 -14  -4  180.28   11.10
  -1 -14  -4  191.88   11.60
   1  14   4  187.78   12.10
   1  14   4  197.78   11.10
   1  14   4  188.28   11.00
  -1  14  -4  194.88   11.30
  -1  14  -4  178.48    9.80
   1  14   4  200.68   11.50
  -1  14  -4  189.58   12.30
   1  14   4  188.78   11.90
  -1  14  -4  178.48   10.10
   2 -14   4  206.98   12.10
  -2 -14  -4  180.58   12.00
   2 -14   4  189.68   12.20
  -2 -14  -4  206.88   12.50
  -2 -14  -4  213.48   11.80
  -2 -14  -4  222.88   12.40
  -2 -14  -4  195.08   11.20
   2 -14   4  195.08   12.50
  -2 -14  -4  181.78   11.20
  -2  14  -4  203.08   11.10
  -2  14  -4  182.88   11.20
  -2  14  -4  224.68   12.60
   2  14   4  213.28   13.00
   2  14   4  195.48   12.30
   2  14   4  214.78   12.00
  -2  14  -4  206.38   13.30
   2  14   4  202.38   11.90
   2  14   4  239.88   13.30
  -3 -14  -4   -3.50    2.80
  -3 -14  -4    3.40    3.10
  -3 -14  -4   10.10    2.90
  -3 -14  -4    2.40    3.20
   3 -14   4    2.50    3.30
   3 -14   4    4.70    3.20
   3 -14   4   -2.10    2.90
   3  14   4    3.90    3.20
  -3  14  -4   -2.60    3.70
  -3  14  -4    2.40    3.70
  -3  14  -4    4.30    2.90
   3  14   4    8.30    3.50
   3  14   4    4.40    3.80
  -3  14  -4    7.00    3.40
   3  14   4    1.10    3.30
   3  14   4   -0.80    2.90
   4 -14   4   71.79    7.90
  -4 -14  -4   65.99    7.00
   4 -14   4   81.89    8.50
  -4 -14  -4   86.89    7.60
   4 -14   4   75.49    7.30
  -4  14  -4   69.69    8.10
   4  14   4   91.89   12.60
  -4  14  -4   73.79   10.90
  -4  14  -4   89.09    8.40
   4  14   4   79.09    7.60
  -4  14  -4   78.99    7.70
   4  14   4   75.99    7.50
   4  14   4   95.69   10.70
  -4 -15   4    0.90    3.60
   4 -15  -4   -4.40    3.70
  -4 -15   4    4.10    3.10
   4 -15  -4    6.50    4.40
   4 -15  -4    5.70    5.00
   4 -15  -4    1.00    3.60
  -4 -15   4    5.50    3.40
   4  15  -4   -0.70    3.10
   4  15  -4    1.50    3.80
  -4  15   4    1.90    4.10
   4  15  -4   13.10    4.50
  -4  15   4    0.70    4.00
  -4  15   4    1.20    4.10
  -4  15   4    2.80    4.10
  -3 -15   4   18.70    3.90
   3 -15  -4   16.80    5.20
   3 -15  -4   21.60    4.80
  -3 -15   4   18.70    4.80
   3 -15  -4   15.20    5.10
  -3 -15   4   17.40    4.00
   3 -15  -4   16.50    5.30
   3  15  -4   11.10    3.40
  -3  15   4   26.50    5.50
   3  15  -4   14.70    4.70
   3  15  -4   15.80    4.40
  -3  15   4   24.60    4.80
  -3  15   4   17.10    4.60
  -3  15   4   20.50    5.00
  -2 -15   4    9.30    3.80
   2 -15  -4   11.10    4.30
  -2 -15   4    6.40    3.00
   2 -15  -4   12.30    4.70
   2 -15  -4    6.20    3.70
  -2 -15   4   12.90    4.40
  -2 -15   4    5.40    3.00
   2 -15  -4    8.90    3.60
   2  15  -4   14.80    4.50
   2  15  -4   11.80    3.90
  -2  15   4   11.30    3.70
  -2  15   4    3.30    3.80
  -2  15   4    8.10    3.50
   2  15  -4   13.60    3.80
  -2  15   4    3.50    3.20
  -2  15   4   14.60    4.30
  -1 -15   4    1.20    3.10
   1 -15  -4    3.30    3.00
   1 -15  -4    4.40    3.70
   1 -15  -4   -0.40    3.40
  -1 -15   4    2.90    2.60
   1 -15  -4    3.60    2.80
   1 -15  -4    4.00    3.00
  -1 -15   4   -0.70    2.70
  -1  15   4    0.70    2.70
  -1  15   4    4.70    3.30
  -1  15   4    1.40    3.00
  -1  15   4   -0.60    2.90
   1  15  -4   -1.00    3.00
   1  15  -4    2.50    2.50
  -1  15   4   -1.40    3.30
   1  15  -4   -1.80    2.70
   0 -15   4   48.60    5.60
   0 -15  -4   49.90    5.70
   0 -15   4   40.10    4.20
   0 -15  -4   52.79    5.40
   0 -15  -4   42.60    5.70
   0 -15  -4   36.30    4.70
   0 -15   4   44.70    5.90
   0  15  -4   45.20    5.00
   0  15  -4   37.80    5.60
   0  15   4   32.80    5.00
   0  15   4   30.00    5.60
   0  15   4   52.49    6.10
   0  15  -4   46.90    6.20
   0  15   4   34.60    4.90
  -1 -15  -4   27.10    4.80
  -1 -15  -4   13.90    3.80
  -1 -15  -4   25.80    4.10
   1 -15   4   27.60    4.70
   1 -15   4   21.40    4.50
  -1 -15  -4   22.40    3.70
  -1 -15  -4   24.40    4.30
   1 -15   4   20.70    4.20
  -1  15  -4   21.10    4.70
   1  15   4   31.20    5.30
   1  15   4   20.40    4.40
   1  15   4   22.50    4.90
  -1  15  -4   23.60    4.50
  -1  15  -4   26.50    5.10
   1  15   4   25.70    4.30
  -1  15  -4   25.10    3.40
   1  15   4   18.20    4.20
   2 -15   4   -1.10    3.10
  -2 -15  -4    7.00    3.50
  -2 -15  -4    3.60    3.30
   2 -15   4    4.20    3.40
   2 -15   4   -1.30    2.90
  -2 -15  -4    4.40    2.60
  -2 -15  -4    3.10    2.90
   2  15   4    6.40    3.40
  -2  15  -4    3.50    2.60
  -2  15  -4   -1.60    3.40
   2  15   4    4.20    3.20
   2  15   4    5.00    3.60
  -2  15  -4    5.80    3.00
  -2  15  -4    0.60    3.50
   2  15   4   -0.40    3.60
   2  15   4    3.50    3.20
   3 -15   4   13.60    4.30
  -3 -15  -4   12.00    3.10
  -3 -15  -4   22.90    4.40
   3 -15   4   22.30    4.60
  -3 -15  -4   17.20    4.50
   3 -15   4   11.70    4.20
  -3 -15  -4   17.70    4.00
  -3 -15  -4   14.90    3.70
  -3  15  -4   16.80    4.30
  -3  15  -4   18.40    4.80
   3  15   4   17.20    4.10
   3  15   4   18.40    5.00
   3  15   4   15.20    4.20
  -3  15  -4   19.30    3.90
  -3  15  -4   11.80    4.60
   3  15   4   19.60    4.20
   3  15   4   15.70    4.60
   4 -15   4   12.20    4.10
   4 -15   4    4.90    4.00
  -4 -15  -4   10.20    3.90
  -4  15  -4    0.20    3.70
   4  15   4    6.20    3.50
   4 -16  -4    2.10    3.70
  -4 -16   4   11.10    4.10
  -4  16   4    6.20    4.30
   4  16  -4    3.20    3.70
   3 -16  -4    4.30    4.40
  -3 -16   4    7.70    4.30
  -3 -16   4    5.70    4.10
   3 -16  -4    5.10    4.50
   3 -16  -4    4.30    4.40
   3 -16  -4   10.60    4.00
  -3 -16   4    7.70    3.50
   3  16  -4    3.20    3.70
  -3  16   4   10.40    4.40
   3  16  -4   11.40    4.50
  -3  16   4    2.20    4.20
   3  16  -4    3.60    3.20
  -3  16   4    4.60    3.90
  -3  16   4   11.10    4.50
  -2 -16   4   38.20    4.90
   2 -16  -4   38.50    5.70
   2 -16  -4   43.20    6.60
   2 -16  -4   48.10    6.60
   2 -16  -4   44.60    6.10
  -2 -16   4   36.70    5.90
  -2 -16   4   30.10    5.10
  -2  16   4   28.80    5.60
   2  16  -4   37.00    5.70
  -2  16   4   30.70    5.10
   2  16  -4   26.20    4.90
   2  16  -4   31.60    5.90
  -2  16   4   41.90    5.90
  -2  16   4   42.80    5.40
  -2  16   4   52.99    7.80
  -1 -16   4    5.10    3.40
   1 -16  -4    8.40    4.00
  -1 -16   4   13.70    3.30
   1 -16  -4   11.10    3.40
   1 -16  -4    2.20    3.60
  -1 -16   4   14.30    4.20
   1 -16  -4   10.30    3.70
   1  16  -4   13.80    4.10
  -1  16   4    9.80    3.10
   1  16  -4   12.10    4.00
  -1  16   4   12.90    4.00
   1  16  -4    9.90    3.20
  -1  16   4    8.40    3.50
  -1  16   4    8.60    3.90
  -1  16   4    7.60    4.50
   0 -16  -4   13.30    4.10
   0 -16   4   12.30    3.70
   0 -16  -4   10.20    3.60
   0 -16  -4    6.60    3.40
   0 -16  -4   11.60    3.10
   0 -16   4   11.00    4.10
   0 -16  -4   10.30    3.70
   0  16  -4    7.20    4.10
   0  16  -4   10.20    3.50
   0  16   4   11.00    3.60
   0  16   4    6.30    3.50
   0  16   4    5.30    3.60
   0  16  -4    8.40    4.00
   0  16   4   11.20    4.70
   1 -16   4   25.80    5.00
   1 -16   4   28.10    4.80
  -1 -16  -4   35.00    4.90
  -1 -16  -4   28.90    3.90
  -1 -16  -4   19.20    4.20
  -1 -16  -4   27.30    5.00
   1  16   4   29.40    4.80
   1  16   4   25.20    4.70
   1  16   4   23.40    4.40
  -1  16  -4   19.60    4.50
   1  16   4   16.60    4.60
  -1  16  -4   26.10    3.60
  -1  16  -4   19.30    4.90
   1  16   4   26.10    5.20
  -1  16  -4   19.60    5.10
  -2 -16  -4   19.90    3.50
   2 -16   4   17.00    4.70
  -2 -16  -4   30.40    4.70
  -2 -16  -4   18.10    3.80
   2 -16   4   13.80    4.00
  -2 -16  -4   17.80    4.60
   2  16   4   24.70    4.90
   2  16   4   23.60    4.60
   2  16   4   20.70    5.10
  -2  16  -4   20.50    5.10
   2  16   4   16.10    4.50
  -2  16  -4   23.10    3.70
  -2  16  -4   29.60    5.40
   2  16   4   12.80    3.90
  -3 -16  -4    0.10    4.50
   3 -16   4    3.70    3.50
   3 -16   4    0.10    5.70
   3 -16   4   -5.20    3.30
  -3  16  -4    4.40    3.50
  -3  16  -4    1.00    4.10
   3  16   4    0.30    3.20
  -3  16  -4   -1.60    2.80
   3  16   4    5.70    3.40
  -3  16  -4   -4.40    3.80
   3  16   4    4.70    3.60
   3 -17  -4   74.19    8.10
  -3 -17   4   68.29    6.90
   3 -17  -4   83.59   11.90
  -3  17   4   65.79    9.00
  -3  17   4   78.19    7.80
   3  17  -4   76.89    8.30
  -2 -17   4    5.80    3.10
  -2 -17   4    3.80    3.70
   2 -17  -4   -2.10    3.00
   2 -17  -4    1.40    4.00
   2 -17  -4   -1.50    3.20
   2 -17  -4    1.20    3.90
  -2 -17   4    4.40    3.60
  -2  17   4   -5.90    3.80
  -2  17   4   -0.60    3.30
   2  17  -4    2.70    3.60
  -2  17   4    1.90    3.30
   2  17  -4   -2.20    3.00
  -2  17   4    0.20    3.50
   2  17  -4    3.40    4.00
   1 -17  -4   34.10    5.10
   1 -17  -4   33.30    5.70
  -1 -17   4   40.80    4.80
   1 -17  -4   36.30    5.90
   1 -17  -4   34.70    4.90
  -1 -17   4   28.70    5.00
  -1 -17   4   38.10    6.10
  -1  17   4   49.99    6.40
  -1  17   4   35.70    5.50
   1  17  -4   36.40    5.90
  -1  17   4   37.70    5.30
  -1  17   4   42.00    5.70
  -1  17   4   47.70    6.90
   1  17  -4   35.30    5.80
   0 -17   4  104.39    8.80
   0 -17  -4  113.79    9.40
   0 -17  -4  112.79    8.00
   0 -17  -4  123.49    8.90
   0 -17   4  119.19    9.70
   0 -17  -4  122.49    8.70
   0  17   4  135.49    9.90
   0  17   4  130.69   10.90
   0  17   4  119.19    9.00
   0  17  -4  124.19   10.50
   0  17   4  104.09    8.80
   0  17  -4  116.09    8.90
   0  17  -4  109.79   10.00
  -1 -17  -4   13.80    4.00
   1 -17   4   13.40    4.20
   1 -17   4   16.00    4.40
  -1 -17  -4    9.50    2.90
  -1 -17  -4   11.50    3.80
  -1 -17  -4   17.00    4.50
  -1  17  -4    8.60    4.30
  -1  17  -4   12.90    4.50
   1  17   4   13.30    4.60
  -1  17  -4    4.30    3.80
   1  17   4   14.80    4.80
   1  17   4    9.80    3.80
   1  17   4   13.70    4.00
  -1  17  -4   12.90    3.10
   1  17   4   16.40    4.20
  -2 -17  -4   19.80    4.80
  -2 -17  -4   33.80    5.70
   2 -17   4   23.70    5.10
  -2 -17  -4   21.20    4.30
   2 -17   4   11.00    4.20
  -2  17  -4   23.20    6.70
  -2  17  -4   13.00    4.80
   2  17   4   20.90    5.20
  -2  17  -4   26.10    4.20
   2  17   4   20.50    5.80
  -2  17  -4   20.30    4.90
   2  17   4   19.90    5.40
   2  17   4   24.80    4.70
   2  17   4   21.30    4.50
   3 -17   4   67.89    8.10
   3  17   4   63.99    7.20
   3  17   4   79.79    7.90
  -3  17  -4   78.29    9.80
   3 -18  -4    6.30    4.70
  -3  18   4   11.20    6.60
  -2 -18   4   34.30    4.90
   2 -18  -4   32.20    6.40
   2 -18  -4   28.10    5.00
   2  18  -4   38.50    5.90
  -2  18   4   42.40    5.50
   1 -18  -4   24.30    4.20
   1 -18  -4   20.20    5.00
  -1 -18   4   19.90    5.70
   1 -18  -4   20.00    4.70
  -1 -18   4   26.40    7.20
  -1 -18   4   24.90    5.30
   1  18  -4   16.30    4.80
   1  18  -4   23.80    5.70
  -1  18   4   21.40    5.10
  -1  18   4   18.70    4.70
   0 -18  -4    0.50    3.70
   0 -18  -4   -4.40    2.80
   0 -18  -4    2.80    2.70
   0 -18   4    0.80    3.40
   0 -18   4    1.10    3.30
   0  18   4   -0.20    3.80
   0  18   4    4.60    3.60
   0  18   4    0.40    4.30
   0  18  -4    1.90    4.00
   0  18  -4   -2.30    3.50
   0  18   4    1.50    3.00
   0  18   4    0.90    3.60
   0  18  -4    5.70    4.40
   1 -18   4   23.90    5.20
  -1 -18  -4   35.90    5.80
  -1 -18  -4   26.30    4.70
   1  18   4   17.40    4.40
   1  18   4   17.80    5.30
   1  18   4   16.10    5.10
  -1  18  -4   25.00    5.20
   1  18   4   19.80    4.50
   2 -18   4   26.20    6.20
  -2 -18  -4   19.00    4.30
  -2 -18  -4   28.90    5.70
  -2  18  -4   18.60    4.10
   2  18   4   28.90    5.00
  -2  18  -4   23.70    7.60
   2  18   4   17.30    5.20
   1 -19  -4   -0.10    2.70
  -1  19   4    1.10    3.90
   0 -19  -4    7.10    3.90
   0  19   4   -0.30    3.00
   0  19   4   -1.90    3.80
  -1 -19  -4   -1.90    3.50
  -1  19  -4   -8.10    3.60
   1  19   4   -1.20    3.10
   7   0  -5    5.30    3.20
   7   0  -5   -4.50    3.10
  -7   0   5    0.30    3.00
   7   0  -5   -1.70    3.00
   7   0  -5    3.70    3.30
  -6   0   5    3.10    2.90
   6   0  -5    3.00    3.70
   6   0  -5   -3.10    2.90
   6   0  -5   -1.30    2.80
   6   0  -5    4.70    2.90
   6   0  -5    6.20    2.70
  -6   0   5    4.30    3.30
   5   0  -5    4.70    2.20
   5   0  -5    3.80    2.50
   5   0  -5    3.00    2.70
  -5   0   5    2.40    2.90
  -5   0   5    1.40    2.40
   5   0  -5    2.30    3.10
   5   0  -5    6.30    2.60
  -4   0   5    2.50    2.10
   4   0  -5   -4.80    2.30
   4   0  -5    1.10    1.80
  -4   0   5   -2.10    1.60
  -4   0   5    1.90    2.70
   4   0  -5   -4.50    1.80
   4   0  -5    0.40    2.10
   4   0  -5    3.60    1.90
   3   0  -5    7.10    1.70
  -3   0   5   -2.80    1.20
   3   0  -5   -0.30    2.10
  -3   0   5    1.20    1.80
  -3   0   5    0.00    1.50
  -3   0   5    1.80    2.30
   3   0  -5   -1.20    1.50
   3   0  -5    2.00    1.70
   3   0  -5    1.50    1.30
   3   0  -5    0.50    1.20
   3   0  -5    0.90    1.80
  -2   0   5   -3.80    1.20
   2   0  -5   -0.40    1.50
  -2   0   5    1.50    1.70
   2   0  -5    3.40    1.30
   2   0  -5   -1.50    1.70
  -2   0   5   -2.70    1.30
   2   0  -5    1.10    1.70
   2   0  -5    2.50    1.40
  -2   0   5   -1.30    1.00
  -2   0   5   -0.70    2.10
   2   0  -5   -0.60    1.10
  -1   0   5    0.80    0.90
  -1   0   5    0.50    1.10
   1   0  -5    2.20    1.50
   1   0  -5    2.00    1.70
   1   0  -5   -2.20    1.20
  -1   0   5    5.30    2.30
   1   0  -5   -0.20    1.40
  -1   0   5   -2.50    1.40
   1   0  -5    1.30    1.60
   1   0  -5   -1.50    1.40
  -1   0   5    0.40    1.30
   1   0  -5    1.20    2.30
   1   0  -5   -2.40    1.20
   0   0   5   -0.50    1.20
   0   0  -5    0.30    1.30
   0   0  -5   -1.60    1.80
   0   0  -5    0.50    1.50
   0   0  -5   -0.70    0.80
   0   0  -5    1.80    1.80
   0   0   5   -0.20    1.30
   0   0   5   -3.10    1.60
   0   0   5    0.10    1.20
   0   0   5   -2.50    1.80
   0   0   5    1.20    1.70
   0   0  -5    1.80    1.80
   0   0   5    1.40    1.20
   0   0   5    0.10    1.40
   1   0   5    1.00    1.50
  -1   0  -5    2.80    2.10
  -1   0  -5   -3.40    1.00
  -1   0  -5    0.30    1.50
   1   0   5    0.70    1.50
   1   0   5   -4.70    1.00
  -1   0  -5    0.50    2.50
   1   0   5    0.30    1.90
   1   0   5   -0.20    1.80
  -1   0  -5   -1.50    1.50
  -1   0  -5   -1.70    1.50
   2   0   5    1.70    1.90
  -2   0  -5   -0.20    1.70
   2   0   5   -0.60    1.60
   2   0   5   -4.20    1.70
  -2   0  -5   -0.60    2.20
  -2   0  -5    1.20    1.80
   2   0   5    1.30    2.10
   2   0   5   -1.50    1.50
  -2   0  -5    2.20    2.80
  -2   0  -5    1.80    1.80
   3   0   5    0.40    2.10
   3   0   5    1.20    2.50
  -3   0  -5   -0.90    1.50
   3   0   5   -1.30    2.00
  -3   0  -5    1.70    2.20
  -3   0  -5    1.70    2.40
   3   0   5   -2.00    2.00
  -3   0  -5    1.80    2.90
  -3   0  -5    1.00    1.80
   3   0   5   -1.80    1.80
  -3   0  -5   -2.30    1.90
   4   0   5   -0.20    2.20
   4   0   5    2.10    3.00
  -4   0  -5    0.20    2.00
  -4   0  -5    3.20    2.50
  -4   0  -5    5.90    2.70
   4   0   5    1.50    2.40
  -4   0  -5    1.40    2.50
   4   0   5    0.50    2.50
   4   0   5   -0.70    2.30
  -4   0  -5    1.60    3.70
  -5   0  -5   -0.60    2.50
  -5   0  -5    4.20    2.90
   5   0   5   -1.40    2.60
   5   0   5   -5.40    2.70
   5   0   5   -0.20    3.00
   5   0   5   -1.60    2.30
  -5   0  -5    7.00    3.20
   5   0   5    2.20    2.70
  -5   0  -5    5.10    4.00
   6   0   5    2.80    3.10
  -6   0  -5   -0.70    3.10
   6   0   5    4.90    3.80
  -6   0  -5    5.60    3.60
  -6   0  -5   -4.00    4.00
   6   0   5   -2.00    3.30
   6   0   5   -2.60    2.90
   6   0   5    4.70    3.40
  -7  -1   5    0.20    3.00
   7  -1  -5   -3.30    3.10
   7  -1  -5    5.40    3.70
   7  -1  -5    7.60    3.60
  -7   1   5    2.10    3.10
   7   1  -5    3.70    3.10
   7   1  -5    4.20    3.60
   7   1  -5   10.50    5.80
   7   1  -5    2.40    2.70
   6  -1  -5  130.49    8.60
   6  -1  -5  131.79    9.40
   6  -1  -5  130.99    8.90
  -6  -1   5  140.59    9.40
   6  -1  -5  120.49    9.10
  -6  -1   5  127.69   10.00
   6  -1  -5  130.19   10.20
  -6   1   5  138.29   10.10
   6   1  -5  144.59   10.50
   6   1  -5  122.59    9.30
   6   1  -5  122.89    8.50
   6   1  -5  114.29    9.00
   6   1  -5  137.29    8.30
  -6   1   5  136.09    9.10
   5  -1  -5  265.17   14.60
   5  -1  -5  247.68   13.90
  -5  -1   5  272.17   14.70
   5  -1  -5  258.27   13.70
   5  -1  -5  261.17   13.40
   5  -1  -5  270.27   13.40
  -5  -1   5  240.28   13.80
   5   1  -5  271.47   13.10
   5   1  -5  252.37   14.10
  -5   1   5  246.98   13.80
  -5   1   5  234.38   14.30
   5   1  -5  238.48   13.50
   5   1  -5  258.67   14.60
   5   1  -5  264.07   13.10
   4  -1  -5   51.89    4.60
   4  -1  -5   51.49    5.50
  -4  -1   5   51.19    5.70
   4  -1  -5   49.80    5.10
   4  -1  -5   51.49    4.70
   4  -1  -5   53.99    4.80
  -4  -1   5   52.69    5.30
   4   1  -5   51.99    4.80
   4   1  -5   62.59    6.00
  -4   1   5   53.29    5.60
   4   1  -5   56.39    5.40
   4   1  -5   56.49    4.40
  -4   1   5   51.29    5.00
  -4   1   5   55.39    4.10
   4   1  -5   49.40    4.30
  -4   1   5   55.59    4.60
   3  -1  -5  434.96   20.30
  -3  -1   5  430.56   20.80
  -3  -1   5  450.65   19.70
  -3  -1   5  416.26   21.00
   3  -1  -5  425.26   20.90
  -3  -1   5  420.06   20.00
   3  -1  -5  464.35   21.10
   3  -1  -5  442.96   20.10
   3  -1  -5  456.95   20.10
   3  -1  -5  453.75   20.20
  -3   1   5  420.96   21.10
  -3   1   5  459.85   20.40
  -3   1   5  431.86   20.70
   3   1  -5  439.76   20.20
  -3   1   5  442.56   19.80
   3   1  -5  450.35   19.90
   3   1  -5  420.46   20.80
  -3   1   5  380.06   19.50
   3   1  -5  440.86   20.10
  -3   1   5  423.36   19.60
   3   1  -5  452.75   20.00
   3   1  -5  453.15   21.00
   2  -1  -5  879.21   39.70
  -2  -1   5  880.61   40.00
  -2  -1   5  894.61   39.70
   2  -1  -5  892.21   39.60
   2  -1  -5  874.31   39.10
  -2  -1   5  822.82   39.00
  -2  -1   5  900.01   38.90
   2  -1  -5  909.91   39.20
   2  -1  -5  823.52   39.20
   2  -1  -5  860.01   38.60
  -2   1   5  851.01   39.30
   2   1  -5  897.51   38.60
   2   1  -5  907.11   39.80
  -2   1   5  897.71   38.80
   2   1  -5  890.61   38.80
   2   1  -5  873.01   38.80
  -2   1   5  813.62   38.60
  -2   1   5  906.61   39.90
   2   1  -5  905.01   39.50
   2   1  -5  825.62   38.90
  -2   1   5  930.51   38.90
   2   1  -5  930.71   38.70
   2   1  -5  915.81   38.90
  -2   1   5  849.61   38.60
   1  -1  -5  254.07   12.70
  -1  -1   5  238.98   12.30
   1  -1  -5  275.77   12.80
  -1  -1   5  283.47   12.70
   1  -1  -5  273.67   13.00
  -1  -1   5  263.37   12.40
   1  -1  -5  271.07   14.20
   1  -1  -5  264.27   12.90
   1  -1  -5  292.47   13.30
  -1  -1   5  258.57   13.40
   1  -1  -5  269.67   12.40
   1   1  -5  275.17   12.40
   1   1  -5  288.77   13.10
  -1   1   5  254.17   12.20
  -1   1   5  249.58   12.70
  -1   1   5  252.57   12.20
  -1   1   5  273.37   13.30
   1   1  -5  261.37   12.60
  -1   1   5  283.87   12.70
   1   1  -5  241.28   14.00
   1   1  -5  263.37   12.60
   1   1  -5  232.98   12.40
   1   1  -5  243.28   12.30
   1   1  -5  254.87   12.50
   1   1  -5  271.87   12.10
   0  -1   5  537.45   23.30
   0  -1  -5  491.35   22.30
   0  -1   5  523.45   23.90
   0  -1   5  503.75   23.00
   0  -1  -5  522.15   24.60
   0  -1  -5  525.45   23.60
   0  -1  -5  508.05   23.40
   0  -1  -5  464.95   23.00
   0  -1   5  510.35   22.70
   0  -1   5  523.85   22.90
   0  -1   5  535.05   22.70
   0  -1  -5  499.35   23.30
   0  -1   5  516.85   22.60
   0  -1  -5  498.45   22.90
   0   1   5  515.55   23.20
   0   1  -5  506.25   22.70
   0   1   5  505.85   22.80
   0   1   5  509.35   22.60
   0   1  -5  501.85   23.20
   0   1   5  527.05   22.90
   0   1   5  485.85   23.10
   0   1  -5  504.35   23.40
   0   1   5  507.05   23.70
   0   1  -5  507.65   23.00
   0   1  -5  453.15   22.40
   0   1  -5  491.15   23.10
   0   1   5  533.35   23.20
  -1  -1  -5 1254.47   55.79
   1  -1   5 1261.17   55.39
  -1  -1  -5 1266.57   56.89
   1  -1   5 1308.07   55.19
   1  -1   5 1246.38   55.19
  -1  -1  -5 1321.57   54.59
  -1  -1  -5 1254.67   55.29
  -1  -1  -5 1260.97   55.49
   1  -1   5 1284.77   54.69
  -1  -1  -5 1239.28   55.19
   1  -1   5 1318.47   55.69
  -1  -1  -5 1189.28   54.99
   1  -1   5 1253.87   54.89
   1   1   5 1309.57   55.59
   1   1   5 1268.47   55.19
  -1   1  -5 1217.68   55.19
   1   1   5 1290.67   55.39
  -1   1  -5 1141.69   56.69
  -1   1  -5 1233.88   55.69
   1   1   5 1228.68   54.69
  -1   1  -5 1189.68   55.09
   1   1   5 1340.97   54.59
  -1   1  -5 1257.57   54.59
  -1   1  -5 1206.98   55.29
   1   1   5 1191.98   55.39
  -1   1  -5 1188.98   55.19
   2  -1   5  309.07   15.00
   2  -1   5  320.87   15.70
  -2  -1  -5  319.37   15.90
   2  -1   5  347.47   15.00
  -2  -1  -5  323.07   15.10
   2  -1   5  319.67   15.40
  -2  -1  -5  298.57   15.30
   2  -1   5  310.27   15.30
  -2  -1  -5  297.47   16.50
  -2  -1  -5  299.47   15.40
   2   1   5  321.97   15.80
   2   1   5  304.77   15.30
  -2   1  -5  319.07   16.90
   2   1   5  314.87   15.10
  -2   1  -5  315.27   15.20
  -2   1  -5  291.87   15.10
   2   1   5  328.27   15.50
   2   1   5  323.37   14.80
  -2   1  -5  317.87   15.80
  -2   1  -5  323.27   15.40
   3  -1   5  180.28    9.70
  -3  -1  -5  166.68    9.70
  -3  -1  -5  173.48    8.80
  -3  -1  -5  173.58   10.10
   3  -1   5  159.78    9.50
   3  -1   5  172.88    9.40
  -3  -1  -5  170.48    9.80
  -3  -1  -5  179.18   11.10
  -3  -1  -5  174.68    9.30
   3  -1   5  171.98   10.30
   3  -1   5  176.68    9.40
  -3   1  -5  165.78    9.70
   3   1   5  169.18    9.30
  -3   1  -5  180.08    9.50
   3   1   5  171.78    9.50
   3   1   5  165.48    9.50
   3   1   5  171.48    9.70
   3   1   5  177.98   10.30
  -3   1  -5  167.28    9.70
  -3   1  -5  166.58    9.50
  -3   1  -5  172.88   11.10
  -4  -1  -5  393.86   18.60
   4  -1   5  359.56   18.40
   4  -1   5  374.46   19.00
  -4  -1  -5  337.87   17.10
  -4  -1  -5  367.36   17.80
  -4  -1  -5  379.76   18.50
   4  -1   5  372.86   18.00
  -4  -1  -5  374.46   20.00
  -4  -1  -5  371.86   18.60
   4  -1   5  382.96   18.30
   4  -1   5  382.86   18.30
  -4   1  -5  370.86   18.50
   4   1   5  359.06   18.00
  -4   1  -5  352.16   18.00
   4   1   5  388.36   19.10
  -4   1  -5  349.87   18.40
   4   1   5  373.76   18.30
   4   1   5  370.46   18.10
   4   1   5  349.96   18.40
  -4   1  -5  376.06   18.30
  -4   1  -5  373.86   20.10
   5  -1   5  162.98   11.10
  -5  -1  -5  173.28   12.40
  -5  -1  -5  149.49   10.60
   5  -1   5  174.98   10.10
   5  -1   5  178.18   10.60
  -5  -1  -5  189.68   11.00
   5  -1   5  176.78   10.70
   5  -1   5  188.28   11.00
   5   1   5  160.68   10.40
   5   1   5  172.78   10.70
  -5   1  -5  162.68   10.60
  -5   1  -5  183.68   11.10
  -5   1  -5  163.88   10.20
  -5   1  -5  157.58   12.10
   5   1   5  186.88   10.60
   5   1   5  185.18   10.20
   5   1   5  156.08   11.10
   6  -1   5   13.50    4.30
   6  -1   5   16.00    4.60
   6  -1   5   15.70    4.10
   6  -1   5   15.10    4.10
  -6  -1  -5   17.50    5.60
  -6  -1  -5   21.10    4.40
  -6  -1  -5   20.30    4.30
   6   1   5   16.00    4.00
   6   1   5   20.60    3.80
  -6   1  -5   16.10    4.40
   6   1   5   19.80    4.50
  -6   1  -5   13.50    4.40
   6   1   5   10.80    4.20
   6   1   5   20.50    4.50
  -6   1  -5   10.00    5.10
  -7  -2   5  103.19   12.70
   7  -2  -5  103.79    8.90
   7  -2  -5  101.89    8.50
   7  -2  -5  104.09    8.70
   7   2  -5   91.89    7.60
   7   2  -5  124.29    9.30
  -7   2   5  114.99    8.80
   7   2  -5   98.19    8.70
   6  -2  -5  155.48   10.60
   6  -2  -5  153.58   10.20
  -6  -2   5  172.98   10.90
   6  -2  -5  181.28   12.00
  -6  -2   5  200.18   12.00
   6  -2  -5  175.78   11.00
   6  -2  -5  196.28   10.80
   6   2  -5  175.58   10.90
   6   2  -5  166.88   10.10
  -6   2   5  170.38   11.80
   6   2  -5  152.08   11.00
   6   2  -5  160.38   11.70
   6   2  -5  155.58    9.80
  -6   2   5  179.38   10.80
   5  -2  -5   73.39    6.30
   5  -2  -5   84.39    6.20
   5  -2  -5   69.69    7.20
  -5  -2   5   82.59    7.60
   5  -2  -5   77.29    6.60
   5  -2  -5   76.39    6.20
  -5  -2   5   68.39    6.50
   5   2  -5   79.19    5.70
  -5   2   5   83.79    5.70
   5   2  -5   77.19    5.50
   5   2  -5   75.79    6.80
   5   2  -5   66.59    7.00
  -5   2   5   79.89    6.40
  -5   2   5   78.59    7.60
   5   2  -5   65.09    6.10
   4  -2  -5  788.02   34.90
  -4  -2   5  785.62   35.90
   4  -2  -5  822.22   35.90
   4  -2  -5  772.62   34.90
  -4  -2   5  759.72   35.50
   4  -2  -5  727.13   35.40
   4  -2  -5  779.52   35.00
   4   2  -5  737.33   34.40
   4   2  -5  779.22   34.50
   4   2  -5  754.42   35.60
   4   2  -5  811.52   35.80
   4   2  -5  758.52   35.00
  -4   2   5  773.52   35.90
  -4   2   5  761.32   35.00
  -4   2   5  759.02   34.50
  -4   2   5  736.03   35.20
   3  -2  -5  605.04   27.90
   3  -2  -5  615.14   28.50
   3  -2  -5  666.93   27.60
  -3  -2   5  594.14   28.30
   3  -2  -5  613.24   28.00
   3  -2  -5  627.34   28.40
  -3  -2   5  587.14   27.40
  -3  -2   5  602.94   28.60
  -3  -2   5  602.74   27.30
   3  -2  -5  624.34   27.90
  -3   2   5  620.84   27.50
  -3   2   5  590.54   28.60
  -3   2   5  600.54   27.00
  -3   2   5  620.54   28.00
   3   2  -5  629.94   28.40
  -3   2   5  597.74   28.00
   3   2  -5  588.94   27.40
   3   2  -5  643.94   27.40
   3   2  -5  574.24   28.30
   3   2  -5  587.54   27.70
   3   2  -5  620.54   27.20
  -3   2   5  616.74   28.20
   2  -2  -5  175.38    8.30
   2  -2  -5  180.08    9.20
  -2  -2   5  177.18    8.80
   2  -2  -5  180.68    9.60
  -2  -2   5  182.08    9.90
   2  -2  -5  191.58    9.00
   2  -2  -5  184.68    9.10
  -2  -2   5  177.58    9.40
   2  -2  -5  179.78    9.50
  -2  -2   5  163.18    8.50
   2   2  -5  185.08    9.50
  -2   2   5  169.48    8.60
   2   2  -5  167.88    8.60
   2   2  -5  182.18    8.40
  -2   2   5  152.68    8.20
  -2   2   5  176.58    9.70
   2   2  -5  178.18    9.40
   2   2  -5  178.28    8.40
   2   2  -5  163.08    8.40
  -2   2   5  163.08    9.40
  -2   2   5  185.18    8.70
   2   2  -5  167.08   10.20
   2   2  -5  180.18    8.30
  -2   2   5  167.38    9.20
   1  -2  -5  882.71   39.70
   1  -2  -5  902.41   39.00
  -1  -2   5  864.81   40.00
  -1  -2   5  923.21   39.30
   1  -2  -5  902.31   39.80
   1  -2  -5  921.01   39.60
   1  -2  -5  919.81   40.90
   1  -2  -5  885.91   39.70
   1  -2  -5  873.61   39.50
  -1  -2   5  838.52   39.20
  -1  -2   5  842.02   38.90
   1   2  -5  894.71   39.10
  -1   2   5  867.31   39.10
   1   2  -5  832.12   38.80
   1   2  -5  905.31   38.90
   1   2  -5  850.11   40.90
   1   2  -5  923.91   39.70
  -1   2   5  877.71   39.90
   1   2  -5  858.51   38.70
  -1   2   5  807.92   39.40
   1   2  -5  843.72   39.00
  -1   2   5  957.40   39.00
  -1   2   5  889.01   39.80
  -1   2   5  919.21   39.30
   1   2  -5  912.61   38.90
   1   2  -5  884.61   39.20
   0  -2  -5 2092.59   86.69
   0  -2   5 1907.51   84.89
   0  -2  -5 2009.80   85.69
   0  -2  -5 1919.81   85.29
   0  -2  -5 1939.91   85.09
   0  -2  -5 2004.70   85.99
   0  -2   5 1960.60   84.69
   0  -2  -5 1906.31   85.49
   0  -2   5 2020.90   85.29
   0  -2   5 1999.00   84.99
   0   2   5 1850.21   85.49
   0   2  -5 1973.80   85.39
   0   2   5 1958.20   84.99
   0   2  -5 1887.31   84.69
   0   2  -5 2042.10   84.49
   0   2   5 1910.71   84.49
   0   2  -5 1886.41   84.99
   0   2  -5 1955.40   84.89
   0   2  -5 1899.41   84.59
   0   2  -5 1840.02   84.99
   0   2   5 1947.11   85.39
   0   2   5 2113.39   85.19
   0   2  -5 1757.82   86.49
   1  -2   5    0.20    1.20
  -1  -2  -5    0.10    2.30
  -1  -2  -5    0.30    1.00
   1  -2   5    0.40    1.70
   1  -2   5    4.80    2.00
   1  -2   5    2.40    1.60
  -1  -2  -5    3.70    1.80
   1  -2   5    1.70    1.70
  -1  -2  -5    3.40    2.10
  -1  -2  -5    1.20    1.90
  -1  -2  -5   -0.30    1.80
   1   2   5    3.80    1.80
  -1   2  -5    1.10    2.50
  -1   2  -5    2.20    1.60
  -1   2  -5    1.40    1.50
  -1   2  -5    1.30    1.80
  -1   2  -5    2.70    2.10
   1   2   5    2.30    2.00
  -1   2  -5   -0.10    1.20
   1   2   5    0.80    1.00
  -1   2  -5    6.20    1.70
   1   2   5    0.90    1.50
   1   2   5    1.80    1.40
   2  -2   5 1004.00   43.50
   2  -2   5  963.00   43.30
  -2  -2  -5  955.10   43.10
  -2  -2  -5  930.61   43.50
   2  -2   5  983.30   43.90
  -2  -2  -5  951.80   44.50
  -2  -2  -5  965.70   43.60
   2  -2   5 1002.70   43.10
  -2  -2  -5  972.70   43.90
   2  -2   5  951.00   43.40
   2  -2   5  978.60   43.10
  -2   2  -5  972.50   43.40
   2   2   5  966.60   43.80
  -2   2  -5  923.91   43.30
   2   2   5  978.90   43.60
  -2   2  -5  957.30   43.30
  -2   2  -5  936.91   43.60
   2   2   5  982.20   42.80
   2   2   5 1016.60   42.90
   2   2   5  954.90   43.30
  -2   2  -5  997.20   45.10
   3  -2   5 1197.18   52.49
   3  -2   5 1180.28   51.59
  -3  -2  -5 1224.28   52.39
  -3  -2  -5 1175.08   51.39
   3  -2   5 1164.78   51.79
  -3  -2  -5 1109.79   52.89
   3  -2   5 1177.38   51.89
  -3  -2  -5 1218.78   51.39
  -3  -2  -5 1159.28   51.99
   3  -2   5 1055.19   50.79
  -3  -2  -5 1146.89   51.89
   3  -2   5 1214.58   51.79
   3   2   5 1123.49   51.69
  -3   2  -5 1147.99   53.39
  -3   2  -5 1142.79   51.89
  -3   2  -5 1138.69   51.69
   3   2   5 1219.08   51.49
   3   2   5 1140.09   51.99
   3   2   5 1180.18   52.39
  -3   2  -5 1134.59   51.69
   3   2   5 1130.99   51.69
  -3   2  -5 1087.79   51.79
  -4  -2  -5    2.00    2.00
   4  -2   5   -1.50    2.30
   4  -2   5    2.70    2.40
   4  -2   5    2.90    2.30
  -4  -2  -5   -0.60    3.10
   4  -2   5    3.90    3.10
  -4  -2  -5   -0.50    2.40
  -4  -2  -5    1.80    1.60
   4  -2   5   -0.30    2.40
  -4  -2  -5    4.80    2.80
  -4  -2  -5   -0.70    2.40
  -4   2  -5   -0.80    2.40
   4   2   5   -0.80    2.40
  -4   2  -5    0.20    2.20
  -4   2  -5    0.90    2.30
   4   2   5    3.80    2.50
   4   2   5   -4.00    2.50
  -4   2  -5    0.40    3.60
  -4   2  -5    3.20    2.80
   4   2   5    1.80    2.30
   4   2   5    2.70    2.40
   5  -2   5  186.78   10.60
  -5  -2  -5  183.28   12.70
   5  -2   5  193.58   11.70
   5  -2   5  181.68   11.10
  -5  -2  -5  179.48   11.20
   5  -2   5  174.38   11.10
  -5  -2  -5  193.18   11.50
   5  -2   5  178.98   10.90
   5   2   5  191.38   11.10
  -5   2  -5  202.98   11.10
   5   2   5  187.38   11.10
   5   2   5  167.58   10.50
   5   2   5  195.78   11.40
  -5   2  -5  165.68   11.10
   5   2   5  175.38   11.50
  -5   2  -5  169.08   12.90
  -5   2  -5  182.88   11.40
  -6  -2  -5  187.88   12.20
   6  -2   5  178.68   12.00
   6  -2   5  181.08   12.10
  -6  -2  -5  221.88   12.60
   6  -2   5  201.08   12.00
  -6  -2  -5  192.38   13.70
   6   2   5  198.98   12.10
   6   2   5  195.38   11.30
  -6   2  -5  181.88   14.70
  -6   2  -5  208.58   12.90
  -6   2  -5  197.08   12.40
   6   2   5  197.98   12.70
   6   2   5  185.18   11.90
   6   2   5  175.28   12.00
   7  -3  -5    8.60    3.80
   7  -3  -5    1.40    3.10
   7  -3  -5    0.60    3.50
  -7   3   5    1.70    3.10
   7   3  -5   -0.50    2.40
   7   3  -5    3.00    3.50
   6  -3  -5   36.00    5.10
   6  -3  -5   32.10    4.90
   6  -3  -5   30.70    4.80
  -6  -3   5   40.60    6.20
  -6  -3   5   33.60    5.10
   6  -3  -5   25.80    4.70
   6  -3  -5   30.40    5.50
  -6   3   5   27.70    5.30
  -6   3   5   32.40    4.70
   6   3  -5   28.30    4.20
   6   3  -5   24.80    4.70
   6   3  -5   28.80    3.90
   6   3  -5   30.20    5.30
   6   3  -5   27.80    4.70
  -5  -3   5   79.59    6.70
   5  -3  -5   88.99    6.50
   5  -3  -5   78.29    6.70
   5  -3  -5   88.09    7.60
   5  -3  -5   74.39    6.50
   5  -3  -5   85.99    6.60
  -5  -3   5   86.19    7.60
  -5   3   5   79.29    6.00
   5   3  -5   91.29    7.70
  -5   3   5   81.39    7.70
   5   3  -5   66.29    6.20
   5   3  -5   77.99    7.00
   5   3  -5   85.69    5.50
  -5   3   5   73.19    6.30
   5   3  -5   78.39    5.80
  -4  -3   5   14.90    3.30
   4  -3  -5   14.30    3.40
  -4  -3   5   17.20    3.70
   4  -3  -5   15.30    2.90
   4  -3  -5   16.00    3.10
   4  -3  -5   14.10    2.90
   4  -3  -5   17.30    3.00
   4   3  -5   14.00    2.20
   4   3  -5   13.00    3.50
   4   3  -5   15.40    3.20
   4   3  -5   15.50    2.40
  -4   3   5   19.60    3.20
  -4   3   5   14.40    2.80
  -4   3   5    9.00    3.20
  -4   3   5   11.70    2.40
  -4   3   5   11.30    2.50
   4   3  -5   16.50    2.90
  -3  -3   5  112.29    6.20
   3  -3  -5  105.49    7.10
  -3  -3   5  102.39    5.90
   3  -3  -5  116.79    6.80
   3  -3  -5  118.49    6.30
   3  -3  -5  106.39    6.80
  -3  -3   5  101.79    7.00
   3  -3  -5  115.29    7.50
  -3  -3   5  110.09    7.60
   3   3  -5  127.49    7.60
   3   3  -5  111.99    5.90
   3   3  -5  100.49    5.90
  -3   3   5  105.19    6.80
   3   3  -5  111.59    5.70
   3   3  -5  111.39    7.10
  -3   3   5  110.39    5.80
  -3   3   5  111.79    7.40
  -3   3   5  110.59    6.50
  -3   3   5  124.39    7.00
   3   3  -5  113.39    6.50
   3   3  -5  113.19    5.80
  -3   3   5  112.59    6.90
   2  -3  -5  220.08   10.80
   2  -3  -5  189.68   10.40
   2  -3  -5  201.18   10.30
   2  -3  -5  205.58    9.50
   2  -3  -5  201.48   10.60
  -2  -3   5  186.28   10.50
  -2  -3   5  212.48   10.00
  -2  -3   5  199.58   11.00
  -2  -3   5  218.38   10.10
  -2   3   5  178.88    9.30
   2   3  -5  230.18   10.60
  -2   3   5  202.88    9.80
   2   3  -5  205.38    9.80
   2   3  -5  189.48    9.50
   2   3  -5  210.68   10.60
  -2   3   5  184.48   10.50
   2   3  -5  213.88    9.30
  -2   3   5  207.28   10.00
  -2   3   5  190.38   10.60
   2   3  -5  186.98    9.40
   2   3  -5  201.98   11.50
  -2   3   5  202.98   10.50
   2   3  -5  197.08    9.30
   2   3  -5  191.48    9.80
   1  -3  -5   63.49    5.70
  -1  -3   5   39.30    3.60
   1  -3  -5   62.79    4.60
   1  -3  -5   55.69    5.00
  -1  -3   5   51.09    3.30
   1  -3  -5   59.39    3.80
  -1  -3   5   53.69    4.50
   1  -3  -5   57.59    4.70
   1  -3  -5   61.69    4.40
   1   3  -5   66.09    4.50
   1   3  -5   55.79    3.50
  -1   3   5   63.19    4.60
  -1   3   5   58.39    4.10
  -1   3   5   65.59    4.80
   1   3  -5   53.59    3.40
   1   3  -5   52.19    3.50
   1   3  -5   61.59    6.20
   1   3  -5   59.89    3.80
   1   3  -5   56.39    4.00
   1   3  -5   55.49    3.50
  -1   3   5   64.79    3.80
  -1   3   5   58.19    4.80
   0  -3   5   44.30    3.20
   0  -3  -5   58.59    4.70
   0  -3   5   50.49    3.30
   0  -3  -5   38.60    4.10
   0  -3  -5   48.40    4.10
   0  -3   5   49.80    3.90
   0  -3   5   48.00    4.10
   0  -3  -5   41.10    3.90
   0  -3  -5   59.39    5.20
   0   3   5   49.40    4.30
   0   3  -5   49.99    3.40
   0   3  -5   49.20    4.00
   0   3  -5   46.10    3.10
   0   3  -5   53.69    5.50
   0   3  -5   51.59    3.60
   0   3  -5   39.90    3.10
   0   3  -5   48.60    3.40
   0   3   5   52.79    4.60
   0   3  -5   45.60    3.50
   0   3   5   55.79    4.20
   0   3  -5   51.39    4.30
   0   3   5   53.29    3.90
   0   3   5   51.19    3.80
   1  -3   5  362.56   17.10
  -1  -3  -5  364.56   17.50
  -1  -3  -5  393.36   18.30
   1  -3   5  374.66   16.70
   1  -3   5  373.26   16.30
  -1  -3  -5  347.17   17.00
   1  -3   5  335.97   16.10
   1  -3   5  364.36   16.90
  -1  -3  -5  356.36   17.10
  -1  -3  -5  357.66   17.50
  -1   3  -5  340.67   18.60
  -1   3  -5  356.76   16.60
   1   3   5  368.36   17.20
  -1   3  -5  358.36   16.50
  -1   3  -5  338.27   16.70
   1   3   5  377.96   17.30
  -1   3  -5  361.86   16.30
   1   3   5  369.46   16.10
   1   3   5  357.86   16.90
  -1   3  -5  348.07   17.20
  -1   3  -5  346.37   17.00
  -1   3  -5  331.07   16.60
   2  -3   5  110.89    7.00
  -2  -3  -5  118.49    6.60
   2  -3   5  113.29    5.90
   2  -3   5  119.09    6.50
  -2  -3  -5  117.29    8.00
  -2  -3  -5  105.69    7.00
   2  -3   5  124.09    6.90
   2  -3   5  125.79    7.20
   2  -3   5  123.69    6.80
  -2  -3  -5  115.29    7.60
  -2  -3  -5  118.69    7.40
  -2   3  -5  108.39    6.70
  -2   3  -5  106.79    8.40
  -2   3  -5  116.79    6.90
   2   3   5  108.39    7.30
  -2   3  -5  115.59    7.00
   2   3   5  107.09    7.00
   2   3   5  120.59    6.30
  -2   3  -5  113.79    7.20
   2   3   5   99.39    6.70
   3  -3   5   30.60    3.90
   3  -3   5   30.20    3.60
  -3  -3  -5   29.70    4.30
  -3  -3  -5   36.20    5.00
  -3  -3  -5   36.10    4.60
  -3  -3  -5   35.80    3.60
   3  -3   5   30.50    3.90
   3  -3   5   31.30    3.90
   3  -3   5   31.80    3.10
  -3  -3  -5   30.70    4.00
  -3  -3  -5   32.90    3.40
  -3   3  -5   31.30    4.10
  -3   3  -5   32.30    4.20
  -3   3  -5   37.50    4.20
   3   3   5   35.00    4.20
   3   3   5   36.60    3.70
  -3   3  -5   35.00    3.90
   3   3   5   28.00    4.20
  -3   3  -5   31.80    5.20
   3   3   5   41.50    4.20
  -4  -3  -5   93.89    6.00
   4  -3   5   91.19    7.00
   4  -3   5   94.09    7.00
  -4  -3  -5   94.49    8.10
  -4  -3  -5   83.79    6.90
   4  -3   5   88.99    6.60
  -4  -3  -5   90.49    7.30
  -4  -3  -5   98.29    7.50
   4  -3   5   96.49    6.80
  -4  -3  -5  101.69    6.10
   4   3   5   90.99    6.60
   4   3   5  105.99    7.10
  -4   3  -5   83.19    6.80
  -4   3  -5  107.39    7.40
  -4   3  -5  102.99    7.10
   4   3   5   89.59    7.00
   4   3   5   89.99    7.60
  -4   3  -5   86.19    6.30
  -4   3  -5   99.29    9.10
   5  -3   5   50.89    6.00
   5  -3   5   60.39    5.60
  -5  -3  -5   68.99    6.80
   5  -3   5   53.19    6.00
   5  -3   5   54.39    5.80
  -5  -3  -5   51.19    6.10
  -5  -3  -5   50.49    7.00
   5   3   5   49.00    5.30
  -5   3  -5   57.99    6.00
   5   3   5   48.50    6.00
  -5   3  -5   39.10    5.40
   5   3   5   43.30    5.30
  -5   3  -5   52.69    5.60
   5   3   5   53.79    6.00
  -5   3  -5   42.00    5.40
  -5   3  -5   53.89    7.60
   5   3   5   54.79    6.20
   6  -3   5    4.80    3.60
   6  -3   5    3.30    3.30
   6  -3   5    4.90    3.70
  -6  -3  -5    9.60    3.90
  -6  -3  -5    7.50    3.60
  -6  -3  -5   11.30    5.00
   6   3   5    3.20    4.40
   6   3   5   -1.20    3.20
   6   3   5    4.50    3.00
   6   3   5    7.40    3.70
   6   3   5    6.70    4.00
  -6   3  -5    6.00    6.00
  -6   3  -5    2.40    5.80
  -6   3  -5   -1.90    3.30
  -6   3  -5    5.80    3.60
   7  -4  -5   25.00    4.90
   7  -4  -5   29.70    5.30
   7  -4  -5   39.90    9.50
   7   4  -5   31.60    4.30
   7   4  -5   17.10    4.70
  -7   4   5   32.20    5.00
   6  -4  -5   16.90    4.20
  -6  -4   5   19.80    4.30
   6  -4  -5   17.80    4.60
   6  -4  -5   12.10    3.50
  -6  -4   5   15.80    4.60
   6  -4  -5   11.80    3.50
   6  -4  -5    9.00    3.70
  -6   4   5   17.10    3.60
  -6   4   5   16.20    4.60
   6   4  -5    7.80    3.40
   6   4  -5   14.80    4.40
   6   4  -5   11.30    2.90
   6   4  -5   15.10    3.90
  -5  -4   5   10.70    3.70
   5  -4  -5    3.70    2.60
  -5  -4   5    9.20    3.10
   5  -4  -5   11.00    3.20
   5  -4  -5    9.90    3.00
   5  -4  -5    7.70    2.90
   5  -4  -5    8.60    3.50
  -5   4   5    8.30    2.70
  -5   4   5    8.50    3.60
  -5   4   5    6.10    2.50
   5   4  -5    6.80    2.90
   5   4  -5    5.40    2.30
   5   4  -5    6.30    2.90
   5   4  -5    8.10    2.10
  -5   4   5    8.50    3.20
   5   4  -5    7.20    3.50
   4  -4  -5  168.88    9.20
   4  -4  -5  180.38    9.60
  -4  -4   5  156.68   10.10
   4  -4  -5  173.08    9.70
   4  -4  -5  157.98    9.30
   4  -4  -5  177.88   10.40
  -4  -4   5  158.78    9.80
   4   4  -5  177.88    8.50
  -4   4   5  162.48   10.20
   4   4  -5  145.29    8.20
  -4   4   5  153.38    9.20
   4   4  -5  163.18    8.40
   4   4  -5  154.68    9.20
   4   4  -5  174.98   10.00
  -4   4   5  159.68    9.40
  -4   4   5  163.28    9.20
   4   4  -5  178.18   10.30
  -4   4   5  147.69    9.00
   3  -4  -5   77.09    6.10
   3  -4  -5   79.69    5.80
   3  -4  -5   78.39    5.00
  -3  -4   5   85.69    5.00
  -3  -4   5   83.59    6.40
   3  -4  -5   81.59    5.60
   3  -4  -5   78.99    5.50
  -3  -4   5   76.79    5.70
   3   4  -5   77.89    4.10
   3   4  -5   67.49    5.00
   3   4  -5   72.49    4.20
   3   4  -5   80.19    5.80
   3   4  -5   71.69    6.10
  -3   4   5   81.99    5.70
   3   4  -5   73.19    4.30
  -3   4   5   87.39    5.70
  -3   4   5   68.99    4.40
  -3   4   5   76.89    6.10
  -3   4   5   71.59    5.40
   3   4  -5   68.79    4.80
  -2  -4   5   15.80    2.80
   2  -4  -5   20.00    2.90
   2  -4  -5   18.60    3.00
  -2  -4   5   19.90    2.50
  -2  -4   5   13.40    3.20
   2  -4  -5   23.50    3.20
   2  -4  -5   16.80    2.80
  -2  -4   5   18.60    2.70
  -2  -4   5   18.20    1.70
   2  -4  -5   23.80    2.20
  -2   4   5   18.90    3.00
  -2   4   5   16.00    3.10
   2   4  -5   20.70    3.00
  -2   4   5   14.50    2.80
  -2   4   5   17.90    1.90
  -2   4   5   17.50    2.60
   2   4  -5   19.50    2.40
   2   4  -5   18.20    2.30
   2   4  -5   14.90    2.60
   2   4  -5   18.30    3.50
  -1  -4   5  229.58   11.90
   1  -4  -5  247.68   12.10
   1  -4  -5  237.58   12.30
   1  -4  -5  256.07   13.00
  -1  -4   5  239.18   11.50
   1  -4  -5  240.58   11.20
  -1  -4   5  218.18   10.60
  -1  -4   5  229.38   12.30
   1  -4  -5  260.57   12.10
   1  -4  -5  230.68   11.80
  -1   4   5  243.68   12.00
   1   4  -5  199.98   12.90
   1   4  -5  219.88   11.10
   1   4  -5  238.08   11.70
  -1   4   5  241.58   11.20
   1   4  -5  229.18   10.60
  -1   4   5  229.18   11.50
  -1   4   5  235.98   11.80
   1   4  -5  222.38   10.50
   1   4  -5  226.38   11.30
  -1   4   5  241.38   12.20
   0  -4  -5  287.37   12.60
   0  -4  -5  290.87   14.30
   0  -4   5  260.37   12.40
   0  -4   5  273.37   13.20
   0  -4  -5  281.17   13.70
   0  -4   5  289.87   13.20
   0  -4  -5  281.47   13.40
   0  -4   5  262.97   12.70
   0  -4  -5  268.57   13.30
   0  -4  -5  276.57   13.70
   0   4  -5  256.07   12.90
   0   4  -5  254.47   14.50
   0   4   5  275.97   13.10
   0   4   5  279.07   13.50
   0   4  -5  264.17   12.50
   0   4   5  282.57   13.80
   0   4  -5  261.17   12.60
   0   4   5  265.07   13.30
   0   4  -5  250.87   12.30
   0   4  -5  256.27   12.50
   0   4  -5  255.47   12.50
   0   4  -5  268.87   13.10
   0   4  -5  255.97   13.20
   0   4   5  283.17   13.10
  -1  -4  -5    4.90    2.40
  -1  -4  -5    3.60    2.20
  -1  -4  -5    5.40    2.60
   1  -4   5    4.10    1.90
   1  -4   5    8.20    1.70
   1  -4   5    5.70    1.50
   1  -4   5    7.00    2.10
  -1  -4  -5    5.00    2.30
   1  -4   5    4.80    1.30
  -1  -4  -5    4.70    2.00
  -1   4  -5    6.40    2.20
  -1   4  -5    4.90    2.20
   1   4   5   10.90    2.40
   1   4   5    5.20    2.10
  -1   4  -5    7.10    1.90
  -1   4  -5    9.40    1.80
   1   4   5    8.10    2.40
  -1   4  -5    6.10    1.90
  -1   4  -5    4.30    1.50
   1   4   5    6.60    1.30
  -1   4  -5    7.70    3.30
   1   4   5    8.10    2.30
   2  -4   5  298.57   14.90
   2  -4   5  306.17   14.60
   2  -4   5  284.97   13.90
  -2  -4  -5  303.17   14.20
  -2  -4  -5  310.17   15.60
  -2  -4  -5  336.37   15.30
   2  -4   5  296.67   14.70
  -2  -4  -5  304.17   14.90
   2  -4   5  295.17   14.50
  -2  -4  -5  301.77   15.30
   2  -4   5  301.37   14.10
   2   4   5  301.97   14.70
  -2   4  -5  292.17   16.20
  -2   4  -5  279.47   14.70
  -2   4  -5  289.17   14.50
   2   4   5  302.77   15.20
  -2   4  -5  278.67   14.60
  -2   4  -5  281.27   14.40
   2   4   5  306.27   14.90
   2   4   5  302.67   14.10
  -3  -4  -5   68.99    6.00
   3  -4   5   63.29    5.50
  -3  -4  -5   84.09    5.10
   3  -4   5   74.89    5.30
  -3  -4  -5   71.19    5.60
   3  -4   5   73.79    5.80
   3  -4   5   78.49    5.90
  -3  -4  -5   79.39    6.70
   3  -4   5   69.49    4.90
  -3  -4  -5   79.99    6.60
   3  -4   5   73.99    6.00
  -3  -4  -5   75.69    5.40
  -3   4  -5   73.89    5.30
   3   4   5   74.89    5.20
   3   4   5   76.39    6.40
   3   4   5   63.29    5.70
  -3   4  -5   71.49    6.10
  -3   4  -5   64.39    5.80
   3   4   5   63.09    5.60
  -3   4  -5   70.59    7.20
  -3   4  -5   71.69    5.70
  -4  -4  -5    8.00    3.80
   4  -4   5    6.20    2.80
   4  -4   5    1.60    2.70
   4  -4   5    9.00    3.00
  -4  -4  -5    9.80    3.20
  -4  -4  -5    8.30    3.10
  -4  -4  -5    7.20    2.30
  -4  -4  -5    4.00    3.00
   4  -4   5    5.70    2.70
  -4   4  -5   -0.70    2.50
  -4   4  -5    5.90    4.00
  -4   4  -5    3.70    2.80
   4   4   5    7.90    3.20
   4   4   5    3.40    2.40
  -4   4  -5    4.30    2.70
   4   4   5    4.20    2.60
   4   4   5   10.30    3.10
   5  -4   5   66.69    6.30
   5  -4   5   49.99    6.00
   5  -4   5   59.69    6.50
  -5  -4  -5   49.10    6.90
  -5  -4  -5   78.39    7.40
  -5  -4  -5   46.50    5.70
   5  -4   5   62.49    5.80
  -5   4  -5   60.09    8.30
   5   4   5   55.29    5.70
   5   4   5   57.79    6.10
  -5   4  -5   48.90    6.00
   5   4   5   51.09    6.20
   5   4   5   60.79    6.20
   5   4   5   65.59    6.60
  -5   4  -5   62.49    6.30
  -5   4  -5   62.99    6.80
   6  -4   5   31.50    5.40
  -6  -4  -5   45.60    5.90
  -6  -4  -5   46.50    6.30
  -6  -4  -5   38.50    6.80
   6  -4   5   57.79    6.50
   6  -4   5   36.70    5.40
  -6   4  -5   27.40    6.70
   6   4   5   37.30    5.10
   6   4   5   39.50    5.60
   6   4   5   30.00    6.10
   6   4   5   37.90    5.50
  -6   4  -5   38.60    5.60
   7  -5  -5    0.90    3.30
   7  -5  -5    7.50    3.90
   7   5  -5    5.00    2.70
   7   5  -5   -2.40    3.50
   6  -5  -5  159.78   10.30
  -6  -5   5  157.78   11.30
   6  -5  -5  163.38   10.50
   6  -5  -5  158.28   10.40
   6  -5  -5  169.58   10.70
  -6  -5   5  157.38   10.60
   6  -5  -5  146.69   11.40
   6   5  -5  163.18    9.00
  -6   5   5  173.58   10.20
   6   5  -5  147.69   11.30
  -6   5   5  147.69   11.30
  -6   5   5  167.38   10.00
   6   5  -5  145.79   10.60
   6   5  -5  167.48   10.50
   5  -5  -5  211.98   13.00
   5  -5  -5  224.48   12.10
   5  -5  -5  218.08   11.90
   5  -5  -5  208.08   12.00
   5  -5  -5  212.38   11.90
  -5  -5   5  241.68   13.10
  -5  -5   5  192.48   12.10
  -5   5   5  211.08   12.90
   5   5  -5  206.78   12.50
  -5   5   5  226.68   11.80
  -5   5   5  179.08   11.30
   5   5  -5  216.18   12.00
   5   5  -5  225.58   13.00
  -5   5   5  220.68   12.20
   5   5  -5  199.18   10.50
   4  -5  -5   80.99    5.80
  -4  -5   5   57.59    5.70
   4  -5  -5   56.49    5.50
   4  -5  -5   66.09    5.90
  -4  -5   5   58.59    5.90
   4  -5  -5   61.19    6.20
   4  -5  -5   64.99    5.20
   4   5  -5   69.39    5.90
  -4   5   5   68.39    5.60
  -4   5   5   58.59    6.30
  -4   5   5   68.19    5.50
   4   5  -5   54.29    4.10
  -4   5   5   60.59    5.20
   4   5  -5   51.79    4.40
   4   5  -5   52.89    5.00
   4   5  -5   58.69    3.80
   4   5  -5   56.19    4.30
   4   5  -5   52.89    5.80
  -4   5   5   56.89    4.90
   3  -5  -5  426.86   19.80
   3  -5  -5  407.86   19.50
  -3  -5   5  410.86   18.80
   3  -5  -5  439.86   19.00
  -3  -5   5  412.96   20.10
  -3  -5   5  383.16   19.60
   3  -5  -5  418.36   19.60
   3  -5  -5  404.96   19.90
  -3   5   5  381.76   19.60
  -3   5   5  418.16   19.30
   3   5  -5  365.56   19.50
  -3   5   5  418.36   18.40
   3   5  -5  384.16   19.10
  -3   5   5  419.46   19.60
  -3   5   5  408.16   19.80
   3   5  -5  415.76   19.80
   3   5  -5  374.46   18.90
  -2  -5   5 1069.09   48.50
   2  -5  -5 1084.39   48.00
   2  -5  -5 1114.39   48.20
  -2  -5   5 1121.59   47.60
   2  -5  -5 1085.59   48.20
   2  -5  -5 1077.39   48.00
   2  -5  -5 1078.39   46.80
  -2  -5   5 1081.89   47.80
  -2  -5   5 1003.60   48.00
   2   5  -5 1009.80   47.50
  -2   5   5 1054.89   48.00
   2   5  -5 1015.60   49.00
   2   5  -5 1068.79   47.60
   2   5  -5 1080.09   48.00
  -2   5   5 1078.19   48.30
  -2   5   5 1050.09   47.10
  -2   5   5 1105.49   48.20
  -2   5   5 1075.09   47.70
   2   5  -5 1096.49   47.90
  -1  -5   5  259.67   12.60
   1  -5  -5  226.08   12.90
  -1  -5   5  243.48   12.60
   1  -5  -5  281.37   13.90
  -1  -5   5  252.77   13.00
   1  -5  -5  256.67   13.40
  -1  -5   5  250.77   13.40
   1  -5  -5  264.67   13.10
   1  -5  -5  263.07   12.90
   1  -5  -5  272.87   13.20
   1   5  -5  242.48   14.00
   1   5  -5  250.57   12.40
   1   5  -5  244.08   12.30
  -1   5   5  243.58   13.20
  -1   5   5  260.07   12.70
  -1   5   5  270.57   11.70
  -1   5   5  277.47   13.20
   1   5  -5  262.07   12.80
  -1   5   5  252.07   12.60
  -1   5   5  262.17   12.30
   1   5  -5  247.98   12.60
   0  -5  -5  855.51   36.10
   0  -5   5  760.62   34.90
   0  -5  -5  808.32   35.40
   0  -5  -5  860.81   34.80
   0  -5   5  769.82   35.10
   0  -5  -5  791.12   35.60
   0  -5  -5  759.32   35.50
   0  -5   5  783.82   35.10
   0  -5   5  773.72   34.30
   0  -5  -5  763.82   35.30
   0   5  -5  780.12   34.90
   0   5  -5  733.93   34.40
   0   5  -5  727.63   34.30
   0   5  -5  730.33   36.30
   0   5   5  745.03   35.00
   0   5   5  791.32   35.70
   0   5   5  822.72   35.60
   0   5  -5  780.32   34.30
   0   5   5  822.82   35.10
   0   5  -5  732.23   34.40
   0   5  -5  793.32   35.20
   0   5   5  778.92   35.10
  -1  -5  -5  865.11   40.40
   1  -5   5  844.52   39.30
  -1  -5  -5  916.31   38.90
   1  -5   5  917.91   39.90
  -1  -5  -5  860.41   40.00
  -1  -5  -5  913.71   40.20
   1  -5   5  879.91   39.30
  -1  -5  -5  896.41   40.30
  -1  -5  -5  948.41   40.60
   1   5   5  927.81   40.10
  -1   5  -5  860.01   39.80
  -1   5  -5  843.62   39.30
   1   5   5  915.51   39.00
  -1   5  -5  886.81   41.20
   1   5   5  943.81   40.10
   1   5   5  858.71   39.70
  -1   5  -5  899.51   39.30
   1   5   5  871.31   40.20
  -1   5  -5  832.12   39.70
  -1   5  -5  834.72   39.30
  -2  -5  -5  317.57   14.90
   2  -5   5  329.17   15.80
  -2  -5  -5  327.77   16.20
   2  -5   5  316.47   15.50
  -2  -5  -5  312.47   15.60
   2  -5   5  311.37   14.80
   2  -5   5  306.47   15.50
   2  -5   5  329.27   15.30
   2  -5   5  303.97   15.00
  -2  -5  -5  318.37   16.10
  -2  -5  -5  332.27   16.10
   2   5   5  322.47   16.00
   2   5   5  303.87   15.50
   2   5   5  334.87   16.00
   2   5   5  330.47   14.90
   2   5   5  313.37   15.80
  -2   5  -5  296.77   15.20
  -2   5  -5  298.87   16.90
  -2   5  -5  306.67   15.60
  -2   5  -5  308.37   15.20
  -2   5  -5  308.67   15.40
  -3  -5  -5  179.18   10.20
   3  -5   5  167.98    9.90
   3  -5   5  159.98    9.20
  -3  -5  -5  183.98   10.60
   3  -5   5  173.88    9.70
   3  -5   5  173.78    9.30
  -3  -5  -5  163.58    9.50
   3  -5   5  177.58   10.10
  -3  -5  -5  187.98   10.80
  -3  -5  -5  164.38    9.80
  -3  -5  -5  178.88    8.90
   3  -5   5  159.58    9.50
  -3   5  -5  184.08   10.20
   3   5   5  165.68    9.70
  -3   5  -5  173.38   10.00
   3   5   5  177.98    9.30
   3   5   5  169.48    9.90
  -3   5  -5  163.58    9.70
  -3   5  -5  155.68    9.00
   3   5   5  182.58   10.40
  -3   5  -5  191.38   11.70
   4  -5   5  373.76   19.60
  -4  -5  -5  404.86   20.90
   4  -5   5  405.76   19.50
  -4  -5  -5  411.56   20.00
   4  -5   5  400.36   20.00
  -4  -5  -5  427.16   20.50
   4  -5   5  379.16   19.80
  -4  -5  -5  395.56   19.90
   4  -5   5  395.86   19.40
  -4  -5  -5  384.26   19.20
  -4   5  -5  375.26   19.80
   4   5   5  397.46   20.40
  -4   5  -5  397.26   20.30
   4   5   5  397.46   19.80
   4   5   5  422.66   20.00
  -4   5  -5  416.86   20.10
   4   5   5  408.86   19.50
  -4   5  -5  383.86   19.80
  -4   5  -5  389.26   21.50
  -5  -5  -5  175.58   11.10
  -5  -5  -5  179.08   12.20
  -5  -5  -5  172.98   13.00
   5  -5   5  174.08   10.80
   5  -5   5  172.68    9.60
   5  -5   5  176.38   11.30
   5  -5   5  177.48   11.30
   5  -5   5  176.48   11.20
  -5  -5  -5  169.38   11.10
  -5   5  -5  161.98   11.00
  -5   5  -5  183.58   11.40
   5   5   5  189.08   11.20
   5   5   5  200.28   11.30
  -5   5  -5  172.58   11.20
  -5   5  -5  190.38   11.60
   5   5   5  180.78   11.80
   5   5   5  192.38   10.90
  -5   5  -5  193.98   13.40
  -6  -5  -5   22.70    4.90
   6  -5   5   21.60    4.60
  -6  -5  -5   22.00    5.20
   6  -5   5   17.30    4.60
  -6  -5  -5   16.30    5.10
   6  -5   5   23.80    4.90
   6   5   5   17.20    4.10
   6   5   5   18.80    4.50
  -6   5  -5   20.10    4.80
   6  -6  -5   54.69    6.40
  -6  -6   5   41.30    5.70
   6  -6  -5   51.89    6.10
  -6  -6   5   55.69    6.70
   6  -6  -5   55.59    6.10
   6  -6  -5   39.90    5.40
   6  -6  -5   48.90    6.80
  -6   6   5   37.70    6.20
   6   6  -5   49.60    6.20
   6   6  -5   46.30    6.70
   6   6  -5   39.60    4.10
  -6   6   5   47.30    5.70
  -6   6   5   44.60    5.90
   6   6  -5   40.60    5.50
   5  -6  -5   20.30    3.70
  -5  -6   5   16.60    4.00
   5  -6  -5   20.40    3.90
   5  -6  -5   19.60    3.80
   5  -6  -5   20.00    4.00
   5  -6  -5   14.90    4.20
  -5  -6   5   16.80    3.50
  -5   6   5   22.40    4.60
  -5   6   5   17.40    4.00
   5   6  -5   24.40    4.50
  -5   6   5   16.20    4.10
  -5   6   5   17.10    3.30
   5   6  -5   12.40    3.60
   5   6  -5   20.90    2.50
  -5   6   5   18.20    3.70
   5   6  -5   14.30    3.50
   4  -6  -5  288.57   14.10
   4  -6  -5  276.97   13.60
   4  -6  -5  251.97   13.90
  -4  -6   5  259.87   14.00
   4  -6  -5  264.37   14.00
  -4  -6   5  263.07   14.50
   4  -6  -5  267.27   14.70
  -4  -6   5  239.08   14.00
  -4   6   5  258.07   14.00
  -4   6   5  273.87   14.60
   4   6  -5  278.67   14.60
   4   6  -5  254.37   13.80
  -4   6   5  276.77   13.80
  -4   6   5  276.27   14.20
  -4   6   5  274.97   13.60
  -4   6   5  281.67   14.40
   4   6  -5  247.18   13.10
   4   6  -5  255.07   14.20
   4   6  -5  259.57   13.40
   3  -6  -5  161.88    9.40
  -3  -6   5  165.08    8.70
  -3  -6   5  149.09    9.10
  -3  -6   5  172.38    9.90
   3  -6  -5  160.68    9.30
  -3  -6   5  158.78    9.50
   3  -6  -5  164.68    9.40
   3  -6  -5  177.48    8.70
   3  -6  -5  171.38   10.00
  -3   6   5  141.59    9.30
   3   6  -5  149.79    8.80
  -3   6   5  146.09    9.50
  -3   6   5  168.78    9.20
   3   6  -5  169.68    9.60
   3   6  -5  149.59    8.90
   3   6  -5  162.98    8.80
   3   6  -5  152.88    9.30
  -3   6   5  162.88    9.40
  -2  -6   5   14.40    2.50
   2  -6  -5   10.10    2.90
  -2  -6   5   14.70    3.40
   2  -6  -5   10.80    2.70
   2  -6  -5   15.00    3.00
  -2  -6   5   17.30    3.00
   2  -6  -5   18.20    3.10
   2  -6  -5   14.60    1.80
   2  -6  -5   16.10    3.00
  -2  -6   5   17.80    2.70
  -2  -6   5   11.80    2.70
  -2   6   5   10.40    1.80
  -2   6   5    9.60    2.70
   2   6  -5   14.20    2.30
   2   6  -5   13.00    2.50
   2   6  -5   17.70    3.50
  -2   6   5   18.80    3.10
  -2   6   5   13.00    3.00
   2   6  -5   12.10    2.50
  -2   6   5   14.20    2.80
   2   6  -5   10.20    2.30
   1  -6  -5  378.26   18.40
   1  -6  -5  396.56   18.70
  -1  -6   5  382.06   18.10
   1  -6  -5  376.66   19.00
  -1  -6   5  392.16   18.60
   1  -6  -5  402.66   18.70
   1  -6  -5  397.96   19.10
  -1  -6   5  369.06   18.80
  -1  -6   5  359.76   18.20
  -1   6   5  394.76   17.80
  -1   6   5  382.66   18.20
  -1   6   5  376.96   18.90
  -1   6   5  363.76   18.00
   1   6  -5  376.46   17.90
   1   6  -5  368.66   18.00
   1   6  -5  384.36   19.60
  -1   6   5  406.86   17.30
   1   6  -5  362.96   18.00
   1   6  -5  395.16   18.20
   0  -6  -5  466.75   21.30
   0  -6  -5  485.95   21.60
   0  -6   5  443.16   19.90
   0  -6  -5  440.16   21.40
   0  -6   5  434.26   20.70
   0  -6  -5  448.36   21.10
   0  -6  -5  502.35   20.70
   0  -6  -5  449.76   21.30
   0  -6   5  453.15   20.90
   0  -6   5  431.76   20.90
   0   6   5  458.55   21.60
   0   6   5  454.25   20.00
   0   6   5  457.35   21.30
   0   6  -5  459.15   19.90
   0   6   5  437.66   20.60
   0   6  -5  431.86   19.90
   0   6  -5  419.96   20.00
   0   6  -5  448.96   20.90
   0   6  -5  422.76   20.10
   0   6  -5  403.96   20.20
   0   6  -5  419.86   22.00
   0   6   5  465.65   20.90
   0   6  -5  441.06   20.50
   0   6   5  425.96   20.90
   1  -6   5    0.30    1.40
  -1  -6  -5    0.10    1.90
   1  -6   5    3.80    2.10
   1  -6   5    1.30    1.50
  -1  -6  -5    2.60    2.40
  -1  -6  -5   -1.10    1.20
  -1  -6  -5   -0.50    2.20
   1  -6   5    0.60    1.90
  -1  -6  -5   -0.90    2.20
  -1  -6  -5    2.10    2.10
   1   6   5   -1.10    1.80
  -1   6  -5    0.00    2.50
  -1   6  -5    1.90    1.70
   1   6   5   -3.20    1.90
   1   6   5    3.90    2.20
  -1   6  -5   -0.40    1.40
   1   6   5   -0.10    1.10
   1   6   5    1.60    1.90
  -1   6  -5    5.70    2.00
  -1   6  -5    1.40    1.50
  -1   6  -5   -0.20    2.00
   2  -6   5  319.57   15.90
   2  -6   5  322.57   15.50
  -2  -6  -5  334.77   14.80
   2  -6   5  314.37   15.00
  -2  -6  -5  317.47   16.40
   2  -6   5  302.27   15.40
  -2  -6  -5  355.06   16.30
  -2  -6  -5  330.57   15.10
  -2  -6  -5  328.37   16.50
   2  -6   5  319.07   16.10
  -2  -6  -5  332.17   16.50
  -2   6  -5  305.37   17.00
  -2   6  -5  313.87   15.60
  -2   6  -5  324.57   15.60
  -2   6  -5  296.67   15.30
   2   6   5  323.17   16.20
   2   6   5  331.97   16.30
   2   6   5  313.97   15.80
  -2   6  -5  316.17   16.00
   2   6   5  330.37   16.40
   2   6   5  323.37   15.20
   3  -6   5  277.67   14.20
  -3  -6  -5  290.57   15.40
  -3  -6  -5  298.57   15.40
   3  -6   5  271.77   14.70
   3  -6   5  280.47   14.90
   3  -6   5  299.87   14.70
  -3  -6  -5  282.27   14.40
  -3  -6  -5  306.37   15.10
   3  -6   5  281.77   14.00
  -3  -6  -5  286.87   14.80
   3  -6   5  292.97   14.40
  -3   6  -5  283.47   14.70
  -3   6  -5  301.57   15.00
  -3   6  -5  254.87   13.50
   3   6   5  292.67   14.70
  -3   6  -5  294.97   15.40
  -3   6  -5  260.67   15.90
   3   6   5  295.47   14.20
  -3   6  -5  245.38   14.40
   3   6   5  306.27   15.10
   3   6   5  302.17   15.20
  -4  -6  -5   13.70    3.70
   4  -6   5    9.30    3.30
  -4  -6  -5    7.90    3.10
  -4  -6  -5    8.20    2.80
   4  -6   5    8.60    2.80
  -4  -6  -5    6.80    3.60
  -4  -6  -5    5.40    2.90
   4  -6   5    9.40    3.20
   4  -6   5    6.30    3.00
   4  -6   5    6.20    3.10
  -4   6  -5   14.60    3.60
  -4   6  -5    6.10    3.00
  -4   6  -5    7.10    3.00
  -4   6  -5    5.20    3.10
   4   6   5   10.10    2.80
   4   6   5    4.10    2.70
   4   6   5   11.00    3.60
   4   6   5    5.90    2.90
  -4   6  -5    5.00    4.10
  -5  -6  -5   60.59    6.70
  -5  -6  -5   64.89    5.70
  -5  -6  -5   59.29    7.20
  -5  -6  -5   64.89    6.80
   5  -6   5   75.99    6.70
   5  -6   5   77.39    6.70
   5  -6   5   64.99    7.10
   5  -6   5   49.20    6.30
  -5   6  -5   66.79    6.80
  -5   6  -5   76.39    8.70
  -5   6  -5   87.49    8.20
   5   6   5   72.29    7.40
   5   6   5   70.29    7.00
   5   6   5   69.09    6.50
   5   6   5   67.49    6.80
  -5   6  -5   77.59    7.30
  -5   6  -5   60.19    6.80
  -6  -6  -5   63.99    8.10
   6  -6   5   59.39    7.10
  -6  -6  -5   68.89    7.50
   6  -6   5   65.09    7.10
   6  -6   5   77.59    7.90
   6   6   5   54.89    6.60
  -6   6  -5   49.30    6.60
   6  -7  -5    0.90    3.80
   6  -7  -5    5.10    3.50
   6  -7  -5    1.20    3.00
   6  -7  -5    4.30    3.20
  -6  -7   5   -0.50    2.80
  -6  -7   5    4.00    4.00
   6  -7  -5    2.20    2.90
  -6   7   5    5.20    3.80
   6   7  -5    0.90    3.30
   6   7  -5    7.70    4.00
  -6   7   5    3.60    3.40
  -6   7   5    6.20    3.90
   6   7  -5   -2.00    2.90
   5  -7  -5    6.00    3.30
  -5  -7   5    6.80    3.60
  -5  -7   5    0.60    2.50
   5  -7  -5    3.00    3.50
  -5  -7   5    2.80    2.80
   5  -7  -5    5.50    3.10
   5  -7  -5    7.60    2.90
   5  -7  -5    6.10    3.00
   5   7  -5    5.20    2.80
  -5   7   5    2.80    3.10
   5   7  -5    4.50    1.90
  -5   7   5    7.30    3.80
  -5   7   5   11.60    3.90
  -5   7   5    8.60    3.20
   5   7  -5   -1.60    2.60
  -5   7   5    2.80    2.30
   5   7  -5    4.50    3.40
  -4  -7   5    0.20    2.90
   4  -7  -5    0.40    2.30
   4  -7  -5    0.90    2.30
  -4  -7   5    3.70    2.70
   4  -7  -5    2.70    2.50
  -4  -7   5   -2.50    2.10
   4  -7  -5    0.30    2.50
   4  -7  -5    1.80    2.90
   4   7  -5    0.60    2.70
   4   7  -5    2.50    2.30
  -4   7   5    6.10    3.40
  -4   7   5   -0.30    2.30
   4   7  -5    1.00    1.90
  -4   7   5    3.20    3.20
  -4   7   5    1.20    2.40
  -4   7   5   -0.10    2.50
   4   7  -5    2.00    2.50
  -3  -7   5    5.50    3.00
   3  -7  -5    8.20    3.20
  -3  -7   5    4.40    2.50
  -3  -7   5    4.60    2.20
   3  -7  -5   10.50    2.40
   3  -7  -5    8.30    3.00
   3  -7  -5    9.00    2.90
  -3  -7   5    6.80    2.60
   3  -7  -5    6.80    2.50
   3   7  -5    8.90    2.80
  -3   7   5    6.00    2.80
  -3   7   5    7.60    2.80
  -3   7   5    8.60    2.80
  -3   7   5    5.30    2.50
   3   7  -5    2.80    2.00
   3   7  -5   12.20    3.10
   3   7  -5    6.80    2.40
   3   7  -5    7.50    2.20
  -3   7   5    7.20    3.00
  -2  -7   5   36.40    3.60
   2  -7  -5   31.80    4.10
   2  -7  -5   28.30    3.90
  -2  -7   5   30.80    4.00
  -2  -7   5   36.00    4.20
  -2  -7   5   29.70    3.80
   2  -7  -5   38.10    4.60
  -2  -7   5   22.60    3.10
   2  -7  -5   30.60    3.90
   2  -7  -5   25.50    3.90
  -2  -7   5   32.60    4.40
  -2   7   5   29.60    3.80
  -2   7   5   34.00    4.30
   2   7  -5   26.70    3.30
  -2   7   5   26.50    3.90
   2   7  -5   28.00    3.40
   2   7  -5   32.80    3.60
   2   7  -5   27.60    3.40
  -2   7   5   32.50    2.90
   2   7  -5   27.50    4.30
   2   7  -5   26.70    3.40
   2   7  -5   32.20    3.80
  -2   7   5   32.70    3.80
   1  -7  -5    7.20    2.50
  -1  -7   5    7.80    2.30
  -1  -7   5    5.10    2.50
   1  -7  -5   -0.20    2.60
  -1  -7   5    6.70    2.20
   1  -7  -5    3.60    2.30
  -1  -7   5    4.80    1.90
   1  -7  -5    3.10    2.50
  -1  -7   5    1.50    2.50
   1  -7  -5    7.90    2.40
   1   7  -5   -1.80    1.80
  -1   7   5    7.30    1.70
   1   7  -5    5.40    1.80
  -1   7   5    2.70    1.90
   1   7  -5    9.10    3.10
  -1   7   5    6.70    2.50
  -1   7   5    6.10    2.30
  -1   7   5    5.80    2.10
   1   7  -5    6.10    2.00
   0  -7   5   32.50    3.70
   0  -7  -5   32.60    4.10
   0  -7  -5   35.60    4.10
   0  -7  -5   41.20    3.70
   0  -7  -5   36.70    4.20
   0  -7  -5   37.90    4.20
   0  -7   5   37.70    3.70
   0  -7   5   29.60    3.90
   0  -7  -5   43.50    4.30
   0   7   5   38.20    4.10
   0   7  -5   35.30    3.40
   0   7   5   35.80    4.30
   0   7   5   41.40    4.40
   0   7  -5   33.50    2.90
   0   7   5   34.10    3.80
   0   7  -5   33.40    2.60
   0   7   5   37.50    3.00
   0   7  -5   31.50    2.60
   0   7  -5   39.60    4.10
   0   7  -5   40.10    4.90
   0   7  -5   37.10    3.20
   1  -7   5   31.90    3.80
  -1  -7  -5   35.00    4.50
   1  -7   5   37.30    3.70
  -1  -7  -5   37.60    3.40
  -1  -7  -5   40.40    4.50
   1  -7   5   36.40    4.10
  -1  -7  -5   30.10    4.20
   1  -7   5   36.00    3.20
  -1  -7  -5   42.20    4.30
  -1  -7  -5   41.20    4.40
  -1   7  -5   34.80    3.20
  -1   7  -5   31.40    4.70
   1   7   5   30.20    3.80
   1   7   5   38.10    3.10
   1   7   5   36.10    4.30
  -1   7  -5   31.50    3.90
  -1   7  -5   37.60    3.50
   1   7   5   38.10    4.30
  -1   7  -5   39.30    3.80
  -1   7  -5   36.20    3.20
   1   7   5   38.80    4.20
   2  -7   5   -0.50    1.90
  -2  -7  -5    0.90    2.60
   2  -7   5   -0.40    1.80
  -2  -7  -5   -2.80    2.50
  -2  -7  -5    0.30    2.20
  -2  -7  -5   -0.90    2.10
  -2  -7  -5    0.10    1.40
   2  -7   5    0.10    2.20
   2  -7   5    0.70    1.50
   2  -7   5    1.40    2.40
   2   7   5    1.20    1.60
  -2   7  -5   -1.80    2.00
  -2   7  -5   -1.10    1.90
   2   7   5   -4.50    2.20
  -2   7  -5    0.20    2.70
   2   7   5    3.20    2.40
  -2   7  -5    1.00    2.40
   2   7   5    0.30    2.20
  -2   7  -5   -1.60    2.30
   2   7   5   -0.70    2.10
  -2   7  -5   -1.50    1.60
   3  -7   5    7.30    2.30
  -3  -7  -5    5.00    3.00
   3  -7   5    4.70    3.00
   3  -7   5    3.60    3.00
   3  -7   5    2.80    2.50
  -3  -7  -5    9.60    3.40
  -3  -7  -5    5.80    3.00
  -3  -7  -5   11.80    3.00
  -3  -7  -5    6.10    2.50
   3  -7   5    6.10    2.40
   3  -7   5   10.60    3.00
   3   7   5    4.50    2.40
   3   7   5    6.60    2.70
  -3   7  -5   11.40    3.20
  -3   7  -5    6.70    2.90
   3   7   5    2.50    2.80
   3   7   5    6.80    3.00
   3   7   5    3.30    2.10
  -3   7  -5    1.10    2.70
  -3   7  -5    1.60    3.30
  -3   7  -5    4.30    2.50
  -4  -7  -5   12.90    3.20
  -4  -7  -5    5.70    3.50
   4  -7   5   12.70    3.60
   4  -7   5   10.80    3.60
  -4  -7  -5   14.30    3.60
  -4  -7  -5   11.40    3.70
   4  -7   5    9.60    3.20
  -4  -7  -5   13.90    3.40
   4  -7   5   14.00    3.20
   4  -7   5   14.50    3.40
  -4   7  -5    3.70    3.20
   4   7   5   14.70    3.80
  -4   7  -5   16.50    3.80
   4   7   5   13.90    3.40
   4   7   5    7.80    3.20
  -4   7  -5   13.90    5.00
  -4   7  -5    6.10    3.20
   4   7   5   16.60    3.30
  -4   7  -5    8.00    3.50
  -5  -7  -5    4.00    3.10
   5  -7   5    2.90    3.20
   5  -7   5    1.90    3.10
  -5  -7  -5   -0.20    3.50
  -5  -7  -5    4.00    3.20
   5  -7   5    2.00    2.90
  -5  -7  -5    3.80    2.50
   5  -7   5    4.80    3.00
   5   7   5    4.90    3.00
  -5   7  -5   -2.10    3.40
   5   7   5    1.40    2.90
  -5   7  -5   -1.10    2.80
  -5   7  -5   -0.30    3.00
  -5   7  -5    8.10    4.70
   5   7   5    2.30    3.10
  -5   7  -5    5.70    3.70
   5   7   5    0.50    3.30
  -6  -7  -5    0.60    3.00
   6  -7   5    2.50    3.20
  -6  -7  -5   -1.20    4.00
  -6   7  -5   -1.50    4.00
   6   7   5    3.30    3.50
  -6  -8   5   48.80    6.60
   6  -8  -5   51.79    6.20
   6  -8  -5   49.50    6.20
   6  -8  -5   55.59    7.50
  -6  -8   5   39.90    5.80
   6  -8  -5   51.79    6.70
  -6  -8   5   37.30    5.80
  -6   8   5   63.49    7.40
   6   8  -5   40.60    6.40
  -6   8   5   50.39    7.30
   6   8  -5   45.40    5.90
   6   8  -5   43.20    6.10
  -6   8   5   53.19    6.50
  -5  -8   5   19.60    4.10
   5  -8  -5   20.80    4.80
   5  -8  -5   15.50    3.80
   5  -8  -5   22.50    4.00
   5  -8  -5   14.80    3.60
  -5  -8   5   18.20    4.30
   5  -8  -5   17.50    4.20
  -5  -8   5   21.20    4.00
   5   8  -5   23.70    4.40
  -5   8   5   21.10    4.30
  -5   8   5   19.00    4.40
  -5   8   5   21.30    4.10
   5   8  -5   23.20    4.10
   5   8  -5   20.30    4.70
  -5   8   5   25.20    5.00
   4  -8  -5  290.47   14.80
   4  -8  -5  277.67   14.30
   4  -8  -5  301.77   14.90
  -4  -8   5  277.27   15.10
   4  -8  -5  302.97   14.70
  -4  -8   5  271.47   14.80
   4  -8  -5  285.47   15.60
  -4  -8   5  245.28   14.40
  -4   8   5  245.98   14.70
  -4   8   5  311.77   15.40
  -4   8   5  263.97   15.00
   4   8  -5  285.77   14.70
   4   8  -5  255.77   14.20
   4   8  -5  277.77   15.20
   4   8  -5  255.67   14.90
  -4   8   5  273.17   15.00
  -4   8   5  283.27   14.60
  -3  -8   5  286.77   14.40
  -3  -8   5  284.07   15.00
   3  -8  -5  291.17   15.20
   3  -8  -5  305.77   15.80
  -3  -8   5  286.07   14.90
   3  -8  -5  300.87   15.00
   3  -8  -5  301.17   15.20
  -3  -8   5  284.67   15.50
   3   8  -5  308.57   15.10
   3   8  -5  296.67   14.60
   3   8  -5  285.77   14.90
  -3   8   5  293.37   15.30
  -3   8   5  297.37   15.00
  -3   8   5  270.07   14.90
   3   8  -5  285.97   15.10
  -3   8   5  309.87   15.30
   3   8  -5  277.97   14.80
  -3   8   5  262.17   15.20
  -2  -8   5   56.99    5.20
  -2  -8   5   44.90    4.90
  -2  -8   5   51.69    4.80
   2  -8  -5   51.79    5.10
   2  -8  -5   52.59    5.20
   2  -8  -5   59.29    6.00
   2  -8  -5   48.10    5.10
  -2  -8   5   57.29    4.80
  -2  -8   5   55.29    5.70
  -2  -8   5   46.80    5.10
   2  -8  -5   51.39    5.20
   2   8  -5   48.40    4.60
   2   8  -5   48.70    4.70
   2   8  -5   48.30    4.80
   2   8  -5   43.40    4.20
  -2   8   5   49.70    5.20
  -2   8   5   50.99    4.90
   2   8  -5   46.90    4.60
  -2   8   5   49.80    4.90
  -2   8   5   43.50    5.00
  -2   8   5   53.19    4.00
   2   8  -5   42.70    5.60
   2   8  -5   45.40    4.60
   1  -8  -5  519.55   23.80
  -1  -8   5  488.65   23.70
   1  -8  -5  517.25   24.10
  -1  -8   5  483.75   23.60
   1  -8  -5  518.15   23.80
  -1  -8   5  489.65   22.90
  -1  -8   5  501.85   23.30
   1  -8  -5  494.45   23.60
   1   8  -5  486.55   24.50
   1   8  -5  492.45   23.00
   1   8  -5  506.95   23.20
  -1   8   5  472.65   22.80
  -1   8   5  508.35   24.20
  -1   8   5  538.05   23.10
  -1   8   5  477.75   23.40
   1   8  -5  486.95   23.80
   1   8  -5  470.85   22.90
   0  -8  -5  690.23   31.00
   0  -8   5  620.64   30.40
   0  -8  -5  710.33   30.60
   0  -8  -5  696.13   30.90
   0  -8  -5  719.93   30.40
   0  -8  -5  683.63   30.90
   0  -8   5  607.24   30.50
   0  -8   5  647.64   30.40
   0  -8  -5  642.14   30.80
   0   8   5  687.03   31.30
   0   8   5  683.03   30.50
   0   8  -5  617.24   29.10
   0   8   5  653.63   30.50
   0   8  -5  654.03   29.40
   0   8  -5  643.74   29.80
   0   8   5  642.54   30.80
   0   8  -5  645.54   29.10
   0   8  -5  650.03   31.10
   0   8  -5  679.33   30.40
   0   8  -5  667.23   31.50
   0   8  -5  657.33   29.70
   0   8   5  691.63   29.80
  -1  -8  -5   19.30    3.50
   1  -8   5   19.00    3.10
  -1  -8  -5   17.80    2.70
  -1  -8  -5   19.30    3.70
  -1  -8  -5   21.80    3.30
   1  -8   5   18.80    3.10
  -1  -8  -5   13.50    3.70
   1  -8   5   13.70    3.10
  -1   8  -5   14.90    2.40
   1   8   5   16.10    3.30
  -1   8  -5   15.30    2.30
   1   8   5   17.30    3.30
   1   8   5   19.00    2.50
  -1   8  -5   15.40    3.70
  -1   8  -5   18.60    3.50
   1   8   5   19.50    3.60
  -1   8  -5   19.10    2.80
  -1   8  -5   15.80    3.60
   1   8   5   16.10    2.90
  -2  -8  -5  429.56   19.30
  -2  -8  -5  438.76   20.40
   2  -8   5  404.46   20.40
   2  -8   5  432.56   20.20
   2  -8   5  393.76   19.90
  -2  -8  -5  404.66   20.30
  -2  -8  -5  426.76   20.70
  -2  -8  -5  424.96   20.70
  -2   8  -5  387.06   21.00
  -2   8  -5  407.86   20.90
   2   8   5  414.36   19.50
   2   8   5  420.76   20.60
  -2   8  -5  387.76   19.60
  -2   8  -5  400.86   19.70
  -2   8  -5  427.76   20.40
   2   8   5  415.66   20.20
   2   8   5  415.56   20.50
   2   8   5  434.86   20.60
  -3  -8  -5  301.97   16.00
  -3  -8  -5  305.37   15.90
   3  -8   5  296.57   15.70
   3  -8   5  295.17   14.50
   3  -8   5  275.97   15.00
  -3  -8  -5  275.77   15.10
  -3  -8  -5  315.57   15.70
  -3  -8  -5  311.47   15.80
   3  -8   5  285.97   15.20
  -3   8  -5  288.07   16.60
  -3   8  -5  291.67   15.20
  -3   8  -5  310.77   15.70
   3   8   5  304.97   15.70
   3   8   5  323.27   16.20
   3   8   5  292.77   15.50
   3   8   5  290.77   15.30
   3   8   5  295.97   14.80
  -3   8  -5  291.67   16.20
  -3   8  -5  290.17   15.20
   4  -8   5    7.20    3.20
   4  -8   5    5.40    2.70
  -4  -8  -5    5.90    3.40
  -4  -8  -5    6.00    3.10
  -4  -8  -5    3.00    3.00
  -4  -8  -5    7.30    3.40
   4  -8   5    5.40    3.20
   4  -8   5    4.10    2.80
  -4  -8  -5    3.70    2.70
  -4   8  -5    1.60    3.10
   4   8   5    1.30    2.90
  -4   8  -5   11.10    3.80
  -4   8  -5    5.60    3.30
   4   8   5    5.00    3.00
  -4   8  -5    5.20    3.10
  -4   8  -5    7.20    4.10
   4   8   5    7.80    2.90
   4   8   5    2.60    3.10
   5  -8   5   83.99    8.10
  -5  -8  -5  103.59    7.90
  -5  -8  -5   98.19    7.10
   5  -8   5   89.79    7.40
  -5  -8  -5   95.79    8.70
  -5  -8  -5  102.69    8.20
   5  -8   5   93.09    8.70
   5  -8   5   88.09    7.50
   5   8   5   87.99    8.20
  -5   8  -5   96.59    8.40
  -5   8  -5   99.49    8.60
   5   8   5   75.99    7.90
  -5   8  -5   82.79    7.90
   5   8   5   86.59    7.30
  -5   8  -5   71.99    9.10
   5   8   5   89.99    8.30
  -5   8  -5   89.29    8.40
   6  -9  -5   91.59    7.80
  -6  -9   5   76.19    8.00
   6   9  -5   65.99    7.30
  -6   9   5   68.49    8.50
  -6   9   5   76.49    7.80
  -5  -9   5  112.09    8.60
   5  -9  -5  125.59    8.40
   5  -9  -5  116.49    8.30
   5  -9  -5  119.19    8.70
   5  -9  -5  111.79    8.80
   5  -9  -5  128.39   10.20
  -5  -9   5  111.19    9.10
  -5  -9   5  101.39    8.20
  -5   9   5  119.79    9.20
   5   9  -5  107.39    9.20
   5   9  -5  106.59    8.80
   5   9  -5  110.79    8.60
  -5   9   5  118.49    8.80
  -5   9   5  106.19    9.10
  -5   9   5  121.69    9.60
   4  -9  -5   48.40    5.60
   4  -9  -5   49.90    6.20
  -4  -9   5   40.70    5.20
  -4  -9   5   48.90    5.80
   4  -9  -5   45.50    5.00
   4  -9  -5   40.50    4.70
  -4  -9   5   38.80    5.10
   4  -9  -5   41.30    5.30
  -4   9   5   39.60    5.40
  -4   9   5   34.70    5.10
   4   9  -5   29.30    4.30
  -4   9   5   43.80    5.50
   4   9  -5   36.80    4.10
  -4   9   5   43.10    5.20
   4   9  -5   33.30    4.70
  -4   9   5   33.80    5.00
   4   9  -5   42.40    5.60
   4   9  -5   42.00    5.10
   3  -9  -5  131.29    8.40
   3  -9  -5  140.59    9.70
   3  -9  -5  127.19    8.70
  -3  -9   5  128.09    8.50
  -3  -9   5  137.39    9.10
   3  -9  -5  122.99    8.70
  -3  -9   5  123.19    8.20
   3   9  -5  131.79    8.70
   3   9  -5  128.59    7.70
   3   9  -5  154.68    9.70
   3   9  -5  137.29    8.50
   3   9  -5  120.99    8.20
  -3   9   5  142.09    8.90
   3   9  -5  127.99    8.00
   3   9  -5  119.09    8.30
  -3   9   5  132.49    8.60
  -3   9   5  128.19    9.10
  -3   9   5  116.79    8.70
  -3   9   5  125.29    8.40
  -2  -9   5  671.23   32.30
   2  -9  -5  767.32   33.10
  -2  -9   5  633.94   32.20
  -2  -9   5  700.13   31.70
  -2  -9   5  692.73   32.40
   2  -9  -5  730.93   32.30
   2  -9  -5  713.73   32.20
  -2  -9   5  647.24   31.60
   2  -9  -5  709.23   32.20
   2  -9  -5  679.53   32.50
  -2  -9   5  654.43   31.80
   2   9  -5  700.13   31.90
  -2   9   5  720.03   32.40
  -2   9   5  685.23   31.60
  -2   9   5  703.33   32.70
  -2   9   5  705.43   31.20
  -2   9   5  703.73   32.00
   2   9  -5  684.73   32.00
   2   9  -5  628.44   31.80
   2   9  -5  672.63   33.10
   2   9  -5  709.33   31.50
   2   9  -5  681.83   31.70
   2   9  -5  669.43   32.00
   1  -9  -5  144.19    8.50
   1  -9  -5  131.49    8.60
  -1  -9   5  127.39    8.70
  -1  -9   5  132.59    8.50
   1  -9  -5  148.89    8.50
   1  -9  -5  149.39    9.30
   1  -9  -5  143.09    8.80
  -1  -9   5  133.89    8.30
  -1  -9   5  130.89    7.80
   1  -9  -5  141.59    9.00
   1   9  -5  137.99    8.80
  -1   9   5  140.39    9.30
  -1   9   5  143.89    8.10
  -1   9   5  129.09    7.60
   1   9  -5  137.69    8.00
  -1   9   5  145.49    8.50
   1   9  -5  137.39    8.20
   1   9  -5  143.19    7.90
   1   9  -5  129.69    9.10
   0  -9  -5  385.36   19.30
   0  -9  -5  381.86   19.00
   0  -9   5  355.26   17.70
   0  -9   5  382.06   18.80
   0  -9  -5  419.36   18.80
   0  -9  -5  386.56   18.40
   0  -9   5  363.26   18.70
   0  -9  -5  394.96   19.10
   0  -9   5  383.26   18.70
   0  -9  -5  390.26   19.00
   0   9  -5  382.36   17.90
   0   9   5  391.06   18.70
   0   9   5  400.56   19.10
   0   9  -5  375.46   19.40
   0   9   5  405.06   18.00
   0   9   5  380.56   18.70
   0   9  -5  354.96   17.80
   0   9   5  399.76   19.60
   0   9  -5  361.56   19.20
   0   9  -5  388.86   18.60
  -1  -9  -5  431.26   20.00
  -1  -9  -5  411.56   20.00
  -1  -9  -5  434.66   19.30
  -1  -9  -5  406.06   19.80
   1  -9   5  393.46   19.40
   1  -9   5  391.76   19.50
  -1  -9  -5  408.06   19.20
   1  -9   5  374.36   19.20
  -1   9  -5  393.76   20.30
  -1   9  -5  378.76   18.30
  -1   9  -5  336.57   18.40
  -1   9  -5  421.36   19.60
   1   9   5  403.06   18.70
  -1   9  -5  380.26   20.10
   1   9   5  415.56   19.80
   1   9   5  421.16   20.30
   1   9   5  394.96   19.90
   1   9   5  390.96   19.40
  -1   9  -5  409.76   18.60
   2  -9   5  174.48   10.50
  -2  -9  -5  183.78    9.40
  -2  -9  -5  179.48   10.40
  -2  -9  -5  174.98   10.60
   2  -9   5  172.48   10.20
  -2  -9  -5  157.78   10.50
   2  -9   5  165.08    9.90
  -2  -9  -5  192.98   10.10
   2   9   5  165.98   10.60
   2   9   5  190.88    9.60
   2   9   5  190.98   10.70
  -2   9  -5  174.78   10.60
   2   9   5  177.58   10.20
   2   9   5  186.38   10.80
  -2   9  -5  172.58    9.60
  -2   9  -5  175.08   11.10
  -2   9  -5  165.68    9.60
  -2   9  -5  145.29   10.70
   3  -9   5   42.80    5.00
  -3  -9  -5   56.59    5.60
  -3  -9  -5   45.20    5.20
   3  -9   5   43.80    4.50
  -3  -9  -5   47.10    4.80
   3  -9   5   40.40    4.90
   3  -9   5   50.59    5.60
  -3  -9  -5   46.30    5.70
  -3  -9  -5   44.00    5.30
  -3   9  -5   37.30    5.20
   3   9   5   49.70    5.30
  -3   9  -5   46.00    5.00
   3   9   5   56.09    5.80
   3   9   5   40.50    5.40
  -3   9  -5   48.70    5.40
   3   9   5   50.39    5.30
  -3   9  -5   47.90    6.30
   3   9   5   49.90    4.80
  -3   9  -5   36.50    5.10
  -4  -9  -5  211.98   12.90
  -4  -9  -5  252.57   13.70
   4  -9   5  204.08   11.90
   4  -9   5  219.88   12.60
  -4  -9  -5  234.98   13.00
  -4  -9  -5  223.68   12.50
   4  -9   5  217.28   13.10
  -4  -9  -5  239.58   13.30
   4  -9   5  230.88   13.50
  -4   9  -5  220.28   12.90
  -4   9  -5  225.48   14.30
   4   9   5  225.48   13.60
  -4   9  -5  227.38   13.60
   4   9   5  203.48   12.60
  -4   9  -5  217.68   12.90
   4   9   5  233.68   13.20
  -4   9  -5  228.88   13.50
   4   9   5  234.48   12.50
  -5  -9  -5  113.29    8.10
  -5  -9  -5  124.39    8.60
   5  -9   5  102.79    9.10
  -5  -9  -5  110.49    9.20
  -5  -9  -5  103.99    8.70
   5  -9   5  109.79    8.40
   5  -9   5  108.79    8.30
   5  -9   5  112.49    9.10
  -5   9  -5   99.99    9.10
   5   9   5  105.99    8.70
  -5   9  -5  103.99    9.40
  -5   9  -5   92.39    8.40
   5   9   5  108.49    9.20
  -5   9  -5  102.59   10.20
  -5   9  -5  100.59    9.10
   5   9   5  122.49    8.80
   5   9   5  123.59    8.30
  -6 -10   5    4.10    3.80
   6 -10  -5    5.90    3.60
  -6  10   5    0.90    3.50
   6  10  -5    1.90    3.20
  -6  10   5   -2.60    4.50
  -6  10   5    6.10    4.30
  -5 -10   5    8.10    3.20
  -5 -10   5    1.60    3.40
   5 -10  -5    2.00    2.80
   5 -10  -5    0.50    3.00
   5 -10  -5   -0.70    3.60
  -5 -10   5    2.50    2.80
   5 -10  -5   -5.20    2.80
   5  10  -5    4.30    3.10
  -5  10   5    2.60    3.70
  -5  10   5    2.60    3.50
   5  10  -5    4.90    3.60
  -5  10   5    2.70    3.50
  -5  10   5    0.20    3.30
   5  10  -5   -5.30    2.70
  -4 -10   5    5.40    3.20
  -4 -10   5    9.70    3.70
   4 -10  -5   12.30    3.90
  -4 -10   5   13.20    3.50
   4 -10  -5    7.10    3.00
   4 -10  -5   10.70    4.20
   4 -10  -5    8.10    3.60
   4  10  -5    9.90    3.50
  -4  10   5   10.10    3.70
  -4  10   5   15.10    4.20
   4  10  -5    6.70    3.00
  -4  10   5   10.80    3.90
   4  10  -5    6.40    3.40
  -4  10   5   11.00    3.50
   4  10  -5   14.00    3.90
  -4  10   5   14.40    3.80
  -3 -10   5   12.10    3.20
   3 -10  -5   13.60    4.20
   3 -10  -5   10.80    3.20
  -3 -10   5   13.50    3.50
  -3 -10   5    8.90    3.60
   3 -10  -5    7.40    3.30
   3 -10  -5   16.60    3.70
  -3 -10   5   12.90    3.60
   3  10  -5   14.70    3.30
  -3  10   5   16.20    3.60
  -3  10   5   16.00    3.90
   3  10  -5   12.70    3.50
   3  10  -5   11.10    2.60
  -3  10   5   18.60    4.10
   3  10  -5    9.10    3.00
  -3  10   5   16.30    3.90
   3  10  -5   18.00    3.20
  -3  10   5   12.10    3.70
   3  10  -5    9.40    3.40
   3  10  -5   13.10    3.20
   2 -10  -5    3.70    2.80
  -2 -10   5    3.20    3.10
   2 -10  -5    5.60    2.70
   2 -10  -5    4.70    3.30
   2 -10  -5    4.60    3.30
   2 -10  -5    5.00    2.90
  -2 -10   5    8.80    2.60
  -2 -10   5   10.60    2.90
  -2 -10   5    5.20    2.80
  -2 -10   5    4.50    2.60
  -2 -10   5    6.00    3.10
   2  10  -5    2.60    2.90
  -2  10   5    6.10    2.90
  -2  10   5    6.50    3.20
   2  10  -5    4.00    2.30
   2  10  -5    2.40    2.20
  -2  10   5    2.40    2.80
   2  10  -5    2.50    2.60
  -2  10   5    5.00    2.80
  -2  10   5    3.50    2.40
   2  10  -5    6.40    2.70
  -2  10   5    6.40    2.40
   2  10  -5    8.80    2.30
   2  10  -5    2.90    2.30
  -1 -10   5   32.50    4.10
   1 -10  -5   34.40    3.90
   1 -10  -5   32.60    4.30
  -1 -10   5   24.30    4.00
  -1 -10   5   30.50    4.50
   1 -10  -5   31.50    4.30
  -1 -10   5   34.80    3.70
   1 -10  -5   29.10    4.60
   1 -10  -5   35.00    4.80
   1 -10  -5   29.60    4.20
  -1  10   5   31.80    3.90
  -1  10   5   28.00    4.40
   1  10  -5   32.10    4.30
   1  10  -5   31.30    4.50
   1  10  -5   27.70    3.40
   1  10  -5   25.90    4.00
  -1  10   5   26.50    4.00
   1  10  -5   33.80    3.90
   1  10  -5   32.80    3.90
  -1  10   5   23.00    4.10
   0 -10  -5   37.80    4.70
   0 -10  -5   34.20    4.70
   0 -10  -5   37.40    3.80
   0 -10  -5   33.60    4.30
   0 -10   5   38.40    4.50
   0 -10  -5   45.00    4.70
   0 -10   5   32.50    3.30
   0 -10   5   39.50    4.60
   0 -10   5   33.80    4.30
   0 -10  -5   37.40    4.90
   0  10   5   31.40    3.60
   0  10  -5   28.80    4.40
   0  10  -5   35.00    4.50
   0  10   5   33.70    4.60
   0  10  -5   32.70    3.00
   0  10  -5   27.30    3.10
   0  10   5   31.10    4.20
   0  10   5   32.60    4.30
   0  10   5   32.30    4.80
   0  10  -5   35.80    4.20
  -1 -10  -5    3.70    2.70
  -1 -10  -5    4.50    2.40
  -1 -10  -5    0.50    2.60
   1 -10   5   -0.30    2.40
  -1 -10  -5    2.40    2.70
   1 -10   5   -0.70    2.20
  -1 -10  -5    1.20    1.90
   1 -10   5   -1.50    2.50
   1  10   5   -1.40    2.40
   1  10   5    3.80    2.90
  -1  10  -5   -0.30    1.80
   1  10   5    4.00    2.00
  -1  10  -5    2.70    2.70
   1  10   5    3.20    2.90
   1  10   5    0.50    2.30
  -1  10  -5    4.20    1.70
  -1  10  -5   -0.80    2.60
  -1  10  -5    3.60    2.70
  -2 -10  -5    9.40    3.00
   2 -10   5   10.00    3.20
  -2 -10  -5   16.00    3.70
   2 -10   5    8.30    2.90
   2 -10   5    7.50    3.10
  -2 -10  -5   11.60    2.60
  -2 -10  -5   14.20    3.30
  -2 -10  -5   14.80    3.70
  -2 -10  -5    9.40    2.80
  -2  10  -5   12.10    2.70
  -2  10  -5   12.00    2.90
   2  10   5    8.70    3.00
  -2  10  -5    9.90    3.50
  -2  10  -5    7.20    3.40
   2  10   5   13.70    3.50
  -2  10  -5   11.70    3.20
   2  10   5    7.70    3.20
   2  10   5   12.00    2.80
   2  10   5    8.80    3.60
  -3 -10  -5   14.50    3.70
  -3 -10  -5   18.40    3.90
   3 -10   5   11.70    3.30
  -3 -10  -5   17.70    4.10
   3 -10   5   15.20    3.70
   3 -10   5    7.20    3.60
  -3 -10  -5   13.40    3.20
  -3 -10  -5   11.90    3.40
  -3  10  -5   17.80    3.70
   3  10   5    9.90    3.40
   3  10   5   12.60    3.90
   3  10   5   13.10    3.50
  -3  10  -5    9.40    3.70
  -3  10  -5   11.30    3.90
  -3  10  -5    8.70    3.00
  -3  10  -5   12.00    4.20
   3  10   5   15.40    3.40
   3  10   5   13.80    3.00
  -4 -10  -5    9.70    3.50
   4 -10   5   12.50    3.90
  -4 -10  -5   16.30    3.50
   4 -10   5    7.00    3.30
  -4 -10  -5    9.50    3.60
  -4 -10  -5    6.80    3.50
  -4 -10  -5   13.20    4.60
  -4  10  -5    8.70    3.90
   4  10   5    8.90    3.00
  -4  10  -5    8.70    3.70
  -4  10  -5    6.50    3.30
  -4  10  -5    6.90    3.80
   4  10   5   10.30    3.90
   4  10   5    9.10    3.20
  -4  10  -5    4.90    4.20
   4  10   5   10.50    3.50
  -5 -10  -5    5.10    3.20
   5 -10   5   -2.40    3.00
  -5 -10  -5    3.90    2.90
  -5 -10  -5    3.70    3.50
   5 -10   5    7.40    3.80
  -5 -10  -5   -3.90    3.50
   5  10   5   -0.70    2.90
  -5  10  -5    3.30    4.40
  -5  10  -5   -6.10    3.90
  -5  10  -5    1.40    3.60
   6 -11  -5   26.80    5.20
  -6  11   5   28.20    6.10
  -5 -11   5   57.49    6.90
  -5 -11   5   56.69    6.60
  -5 -11   5   48.70    6.10
   5 -11  -5   56.49    6.60
   5 -11  -5   53.09    7.50
   5 -11  -5   57.59    7.30
  -5  11   5   67.09    7.70
   5  11  -5   55.29    6.50
   5  11  -5   57.89    7.20
  -5  11   5   50.89    6.40
  -5  11   5   54.59    6.90
   5  11  -5   54.89    6.70
  -5  11   5   60.89    7.20
  -4 -11   5    4.70    2.90
   4 -11  -5    7.50    3.10
  -4 -11   5    3.20    3.10
   4 -11  -5    3.00    3.30
  -4 -11   5   13.70    4.10
   4 -11  -5    7.90    4.40
   4 -11  -5   10.10    3.60
   4  11  -5    2.90    2.90
  -4  11   5    1.20    3.10
   4  11  -5    9.00    3.60
   4  11  -5    5.60    3.00
  -4  11   5    3.90    3.30
   4  11  -5    7.20    3.50
  -4  11   5    8.00    3.50
  -4  11   5   11.00    3.90
  -4  11   5    8.60    3.90
   3 -11  -5   87.79    8.50
   3 -11  -5   86.39    7.60
  -3 -11   5   79.09    6.70
  -3 -11   5   84.89    6.60
  -3 -11   5   95.29    7.90
   3 -11  -5   84.29    7.60
   3 -11  -5   80.29    7.00
  -3 -11   5   83.69    7.30
  -3  11   5   75.89    6.60
   3  11  -5   79.09    6.00
   3  11  -5   91.89    7.30
  -3  11   5   75.39    7.00
   3  11  -5   79.19    6.70
  -3  11   5   91.69    7.30
  -3  11   5   87.79    7.40
   3  11  -5   92.29    6.70
   3  11  -5   70.59    6.70
   3  11  -5   87.89    7.10
  -3  11   5   64.69    7.10
   3  11  -5   84.19    7.60
   2 -11  -5  170.28   10.40
   2 -11  -5  178.78   10.40
  -2 -11   5  159.88   10.40
   2 -11  -5  181.28   11.40
  -2 -11   5  161.28    9.90
  -2 -11   5  169.38   10.70
   2 -11  -5  161.28   11.00
   2 -11  -5  164.38   10.00
  -2 -11   5  171.38   10.00
  -2 -11   5  143.89    9.50
  -2  11   5  154.48    9.30
   2  11  -5  160.48    9.50
   2  11  -5  160.68   10.90
   2  11  -5  173.48    9.50
  -2  11   5  174.98   10.80
   2  11  -5  173.98   10.20
   2  11  -5  183.78   10.20
  -2  11   5  181.28   10.20
  -2  11   5  179.58    9.60
  -2  11   5  169.18   10.30
   2  11  -5  155.18   10.30
  -2  11   5  174.38   11.30
   2  11  -5  176.88   10.30
   1 -11  -5   41.10    4.80
  -1 -11   5   32.80    4.60
  -1 -11   5   31.70    4.30
   1 -11  -5   33.30    4.60
   1 -11  -5   39.10    4.80
  -1 -11   5   43.90    5.20
   1 -11  -5   34.00    4.60
  -1 -11   5   30.80    3.70
   1 -11  -5   40.60    5.50
   1 -11  -5   33.30    4.00
  -1  11   5   31.80    5.00
   1  11  -5   36.70    3.80
   1  11  -5   34.40    4.60
  -1  11   5   30.50    4.30
  -1  11   5   41.20    4.60
   1  11  -5   32.50    4.00
   1  11  -5   30.30    4.40
   1  11  -5   25.40    4.10
   1  11  -5   39.30    4.20
  -1  11   5   28.30    4.60
   0 -11   5  115.49    8.40
   0 -11  -5  145.09    8.70
   0 -11   5  126.99    8.50
   0 -11   5  118.69    7.30
   0 -11  -5  148.29    9.40
   0 -11  -5  131.69    8.70
   0 -11  -5  138.29    9.10
   0 -11  -5  133.29    8.80
   0 -11   5  122.19    8.40
   0  11   5  143.59    8.60
   0  11   5  136.59    8.80
   0  11  -5  116.79    7.10
   0  11   5  137.29    7.80
   0  11  -5  137.99    8.50
   0  11  -5  124.99    8.60
   0  11   5  134.89    8.80
   0  11   5  151.98    9.70
   0  11  -5  131.29    9.40
  -1 -11  -5  185.48   11.40
   1 -11   5  184.38   11.00
  -1 -11  -5  196.38   11.20
  -1 -11  -5  208.98   11.20
  -1 -11  -5  195.08   10.80
   1 -11   5  182.78   10.80
   1 -11   5  160.78   10.60
   1  11   5  191.28   11.30
  -1  11  -5  182.48    9.90
   1  11   5  201.78   11.80
  -1  11  -5  208.68   11.30
  -1  11  -5  180.08    9.50
   1  11   5  199.68   10.30
   1  11   5  196.48   11.30
  -1  11  -5  181.18   11.80
  -1  11  -5  161.28   10.90
   1  11   5  180.38   10.90
  -2 -11  -5   36.00    4.20
   2 -11   5   24.40    4.40
  -2 -11  -5   36.20    4.80
   2 -11   5   39.60    4.90
   2 -11   5   32.80    4.50
  -2 -11  -5   39.60    5.00
  -2 -11  -5   26.90    4.60
  -2 -11  -5   33.10    4.70
   2  11   5   37.50    5.10
   2  11   5   33.00    4.60
  -2  11  -5   32.50    4.80
  -2  11  -5   33.90    3.80
   2  11   5   42.20    5.40
  -2  11  -5   44.30    4.50
  -2  11  -5   37.80    5.40
   2  11   5   36.60    4.10
  -2  11  -5   25.40    4.60
   2  11   5   29.90    4.80
  -3 -11  -5   46.30    5.60
  -3 -11  -5   38.80    4.70
  -3 -11  -5   42.60    5.30
  -3 -11  -5   42.70    5.40
   3 -11   5   38.80    5.60
   3 -11   5   32.80    4.70
   3 -11   5   32.90    4.80
   3  11   5   32.20    4.70
   3  11   5   38.30    5.10
  -3  11  -5   40.80    5.70
   3  11   5   37.30    4.50
   3  11   5   31.30    5.40
  -3  11  -5   38.60    5.80
  -3  11  -5   35.40    4.60
   3  11   5   39.60    5.40
  -3  11  -5   37.50    4.90
  -3  11  -5   24.00    5.00
  -4 -11  -5   79.19    6.70
  -4 -11  -5   66.49    6.60
   4 -11   5   78.19    7.10
   4 -11   5   65.79    7.20
  -4 -11  -5   62.89    6.90
  -4 -11  -5   88.19    7.80
  -4  11  -5   71.99    6.80
   4  11   5   75.89    7.20
  -4  11  -5   56.59    7.00
   4  11   5   82.39    7.00
   4  11   5   76.89    6.50
  -4  11  -5   67.39    8.20
  -4  11  -5   68.59    7.60
   4  11   5   77.79    7.70
   4  11   5   74.19    7.80
   5 -11   5   27.20    5.10
  -5 -11  -5   38.30    5.20
  -5 -11  -5   28.50    4.60
  -5  11  -5   38.20    8.20
  -5  11  -5   22.40    5.70
  -5  11  -5   29.80    5.70
   5  11   5   29.50    5.00
   5 -12  -5   17.70    5.70
   5 -12  -5   11.30    4.20
  -5 -12   5   12.90    6.20
  -5 -12   5   20.30    4.50
  -5 -12   5   10.40    4.10
   5  12  -5   21.30    4.80
  -5  12   5   13.20    4.20
  -5  12   5   19.10    5.20
  -5  12   5   15.10    4.50
  -5  12   5   18.50    7.20
   5  12  -5   11.50    4.00
   5  12  -5   15.10    4.50
   4 -12  -5  170.68   11.00
  -4 -12   5  154.48   10.20
  -4 -12   5  154.98   10.50
  -4 -12   5  166.68   11.00
   4 -12  -5  164.68   10.90
   4 -12  -5  172.08   12.20
   4  12  -5  149.88   10.40
  -4  12   5  191.48   11.40
   4  12  -5  163.98   11.00
  -4  12   5  129.49   10.20
  -4  12   5  170.28   11.40
   4  12  -5  155.38   10.60
  -4  12   5  170.18   10.80
  -4  12   5  161.88   11.30
   4  12  -5  153.78   11.10
   4  12  -5  138.19   10.50
  -3 -12   5  216.78   12.50
   3 -12  -5  220.48   12.60
   3 -12  -5  199.88   12.80
  -3 -12   5  211.98   13.20
   3 -12  -5  251.87   14.40
  -3 -12   5  204.48   12.30
  -3 -12   5  242.58   13.30
   3 -12  -5  223.08   13.40
   3  12  -5  223.28   13.10
   3  12  -5  225.38   12.80
  -3  12   5  222.98   12.90
   3  12  -5  222.98   11.70
   3  12  -5  234.58   13.80
  -3  12   5  186.98   12.10
   3  12  -5  226.78   12.50
  -3  12   5  222.78   13.30
   3  12  -5  228.08   13.10
  -3  12   5  223.98   12.80
  -3  12   5  235.48   13.90
   3  12  -5  202.88   12.30
   2 -12  -5   30.60    5.30
  -2 -12   5   34.50    5.10
   2 -12  -5   34.50    5.70
  -2 -12   5   25.70    4.60
  -2 -12   5   34.20    4.50
  -2 -12   5   31.60    4.30
   2 -12  -5   30.40    5.00
   2 -12  -5   37.30    4.80
   2 -12  -5   27.10    4.50
   2  12  -5   29.20    3.90
   2  12  -5   33.50    4.60
  -2  12   5   32.30    3.90
   2  12  -5   25.20    4.60
   2  12  -5   26.40    3.70
  -2  12   5   31.80    4.50
  -2  12   5   30.20    4.90
  -2  12   5   26.20    4.70
   2  12  -5   26.70    4.70
   2  12  -5   29.40    4.50
  -2  12   5   26.60    4.50
  -2  12   5   31.50    5.00
   2  12  -5   22.70    3.90
   1 -12  -5  343.07   17.50
   1 -12  -5  315.37   16.70
  -1 -12   5  310.57   16.30
  -1 -12   5  296.57   16.70
  -1 -12   5  293.47   16.50
   1 -12  -5  323.37   16.60
  -1 -12   5  297.67   15.50
   1 -12  -5  340.67   16.70
   1 -12  -5  302.87   16.50
   1  12  -5  328.87   15.90
  -1  12   5  333.17   16.30
   1  12  -5  318.97   16.90
  -1  12   5  305.17   16.30
   1  12  -5  325.57   17.00
  -1  12   5  321.47   16.80
   1  12  -5  288.07   16.30
  -1  12   5  320.97   17.50
   1  12  -5  321.17   15.50
   0 -12  -5  362.96   19.10
   0 -12   5  368.96   19.10
   0 -12   5  342.57   19.00
   0 -12  -5  415.66   19.60
   0 -12   5  340.47   17.90
   0 -12  -5  395.56   19.50
   0 -12  -5  382.96   19.90
   0 -12  -5  402.06   19.40
   0 -12   5  352.46   19.30
   0  12  -5  397.56   20.10
   0  12   5  410.16   19.60
   0  12   5  391.66   18.60
   0  12   5  388.06   19.20
   0  12   5  395.06   20.30
   0  12  -5  400.46   19.00
   0  12  -5  362.16   19.20
   0  12   5  396.06   19.40
   1 -12   5    2.00    2.90
  -1 -12  -5    6.20    2.90
   1 -12   5    7.10    3.00
  -1 -12  -5    4.10    3.00
  -1 -12  -5    6.30    3.00
  -1 -12  -5    5.70    3.30
   1 -12   5    2.70    2.60
   1  12   5    2.90    2.70
  -1  12  -5    0.80    2.20
   1  12   5    3.80    2.50
   1  12   5    6.40    3.10
   1  12   5    2.50    3.10
  -1  12  -5    4.50    2.00
  -1  12  -5    8.40    3.30
  -1  12  -5    6.80    3.00
  -1  12  -5    5.50    3.30
   1  12   5    6.90    3.60
  -2 -12  -5  181.68   11.40
   2 -12   5  178.88   11.60
  -2 -12  -5  185.28   11.20
   2 -12   5  203.08   11.60
   2 -12   5  177.38   11.50
  -2 -12  -5  185.98   11.70
  -2 -12  -5  197.98   11.10
  -2 -12  -5  206.78   12.00
  -2  12  -5  189.78   11.90
  -2  12  -5  180.08   10.40
  -2  12  -5  186.28   10.80
   2  12   5  185.58   11.90
  -2  12  -5  196.58   11.90
   2  12   5  229.38   12.60
   2  12   5  193.28   11.40
   2  12   5  219.98   12.50
   2  12   5  202.18   11.00
  -2  12  -5  194.08   12.60
  -3 -12  -5  236.18   14.20
  -3 -12  -5  259.07   14.50
   3 -12   5  241.58   14.00
  -3 -12  -5  238.18   13.60
   3 -12   5  257.87   14.00
  -3 -12  -5  226.98   13.60
   3 -12   5  236.58   14.30
  -3  12  -5  246.58   13.40
  -3  12  -5  262.47   14.60
  -3  12  -5  237.78   15.00
   3  12   5  253.47   14.30
   3  12   5  240.28   14.30
   3  12   5  265.47   13.50
  -3  12  -5  226.28   14.70
   3  12   5  278.17   15.10
   3  12   5  248.48   13.90
  -4 -12  -5   -1.80    3.30
   4 -12   5    4.80    3.30
  -4 -12  -5    0.60    3.00
   4 -12   5    9.10    3.80
  -4 -12  -5    6.50    3.30
  -4 -12  -5    3.60    3.10
  -4  12  -5    0.30    3.20
   4  12   5    7.30    3.50
  -4  12  -5   -0.70    3.50
  -4  12  -5    1.50    4.00
  -4  12  -5   -0.80    3.00
  -4  12  -5   -1.50    3.90
   4  12   5    2.00    4.00
   4  12   5    1.40    3.40
   4  12   5    2.00    3.00
   4  12   5    8.30    3.20
  -5 -12  -5   46.80    6.00
  -5 -12  -5   64.09   10.00
   5  12   5   55.29    6.60
  -5  12  -5   53.59    7.40
  -5  12  -5   47.80    7.50
  -5 -13   5   32.70    6.90
   5  13  -5   21.40    4.90
   5  13  -5   20.40    5.50
  -5  13   5   24.30    5.70
  -5  13   5   29.90    5.70
  -4 -13   5    5.00    3.30
  -4 -13   5   11.30    3.80
   4 -13  -5   11.00    4.30
   4 -13  -5    8.80    4.60
  -4 -13   5   14.10    4.40
   4 -13  -5    9.20    4.00
   4  13  -5   15.80    3.90
  -4  13   5   11.10    4.20
  -4  13   5   10.20    3.90
  -4  13   5   18.90    4.60
   4  13  -5   11.50    4.00
  -4  13   5    8.70    4.30
  -4  13   5    4.80    4.00
   4  13  -5   15.10    4.30
   4  13  -5   12.30    3.90
   3 -13  -5   13.10    3.80
   3 -13  -5   10.70    4.10
  -3 -13   5   14.70    3.70
  -3 -13   5   14.50    4.30
   3 -13  -5   21.10    5.00
  -3 -13   5   16.60    4.30
  -3 -13   5   13.20    3.50
   3 -13  -5   11.30    4.50
   3  13  -5   17.50    4.60
   3  13  -5   13.30    4.20
  -3  13   5   19.80    4.30
  -3  13   5   18.70    4.40
  -3  13   5   14.80    4.30
  -3  13   5   26.90    4.60
   3  13  -5   20.00    4.40
   3  13  -5   17.10    3.80
   3  13  -5   12.90    3.50
   3  13  -5   15.80    4.10
  -2 -13   5  151.78   10.60
   2 -13  -5  174.38   10.50
  -2 -13   5  159.18   10.90
   2 -13  -5  176.78   11.80
  -2 -13   5  157.98    9.90
   2 -13  -5  161.28   10.40
  -2 -13   5  160.68    9.80
   2 -13  -5  181.08   11.40
   2  13  -5  160.98   10.80
   2  13  -5  169.28   10.30
  -2  13   5  169.78   11.70
   2  13  -5  157.48   10.60
   2  13  -5  158.98   10.50
  -2  13   5  168.08   10.50
   2  13  -5  159.98    9.40
  -2  13   5  153.58   10.70
   2  13  -5  173.58   11.30
  -2  13   5  171.18   10.30
   2  13  -5  143.89    9.40
  -1 -13   5   34.10    5.20
   1 -13  -5   41.50    5.30
   1 -13  -5   36.30    5.50
   1 -13  -5   31.20    4.70
   1 -13  -5   44.50    5.50
   1 -13  -5   40.50    5.30
  -1 -13   5   36.20    4.90
  -1 -13   5   39.40    4.40
  -1 -13   5   34.80    5.00
   1  13  -5   33.10    4.40
  -1  13   5   31.40    5.40
   1  13  -5   33.40    4.70
  -1  13   5   41.90    5.50
  -1  13   5   41.80    5.00
   1  13  -5   38.60    4.70
  -1  13   5   36.40    4.80
   1  13  -5   31.30    4.80
   1  13  -5   44.70    5.50
   0 -13  -5   65.89    6.50
   0 -13  -5   56.39    6.30
   0 -13  -5   59.09    6.00
   0 -13   5   51.69    4.60
   0 -13   5   57.99    6.10
   0 -13  -5   57.49    5.70
   0 -13  -5   58.29    6.00
   0 -13   5   54.59    6.10
   0 -13   5   57.39    5.90
   0  13   5   64.89    6.50
   0  13  -5   67.99    6.90
   0  13  -5   56.39    5.60
   0  13   5   66.59    6.40
   0  13  -5   55.29    6.40
   0  13   5   53.99    5.30
   0  13   5   62.19    6.20
   0  13   5   58.19    6.70
   0  13  -5   48.50    5.50
  -1 -13  -5   83.19    6.80
   1 -13   5   79.69    7.00
   1 -13   5   79.79    7.30
  -1 -13  -5   76.39    7.20
  -1 -13  -5   86.89    7.50
  -1 -13  -5   91.79    7.10
   1 -13   5   76.89    7.10
   1  13   5   77.49    6.80
  -1  13  -5   96.39    7.80
  -1  13  -5   84.99    5.50
   1  13   5  102.29    8.00
   1  13   5   89.99    8.20
   1  13   5   79.29    7.40
   1  13   5   83.99    6.40
  -1  13  -5   82.99    8.10
  -1  13  -5   69.09    6.60
   2 -13   5   42.80    5.40
  -2 -13  -5   49.40    5.50
  -2 -13  -5   50.69    6.10
  -2 -13  -5   50.49    5.40
   2 -13   5   53.29    6.10
  -2 -13  -5   41.70    5.60
   2 -13   5   42.80    5.90
  -2 -13  -5   48.30    5.40
  -2  13  -5   52.29    4.80
   2  13   5   51.39    5.40
  -2  13  -5   47.70    5.20
  -2  13  -5   45.70    5.80
   2  13   5   42.80    5.90
   2  13   5   53.79    5.90
  -2  13  -5   47.10    6.40
   2  13   5   56.19    6.60
  -2  13  -5   47.90    5.80
   2  13   5   46.70    6.10
   3 -13   5    6.70    3.30
  -3 -13  -5   -0.30    2.80
   3 -13   5    3.80    3.10
  -3 -13  -5    2.40    3.50
   3 -13   5    2.30    3.20
  -3 -13  -5    1.90    2.70
  -3 -13  -5    2.10    3.10
   3  13   5    0.70    3.20
  -3  13  -5    1.80    3.10
  -3  13  -5    2.10    2.90
   3  13   5   -0.40    3.50
  -3  13  -5   -0.60    3.60
   3  13   5    4.70    3.40
  -3  13  -5    1.80    3.70
   3  13   5    6.60    3.00
  -3  13  -5    3.70    3.70
   3  13   5    0.30    2.90
  -4 -13  -5   37.90    5.10
  -4 -13  -5   46.40    5.60
   4 -13   5   36.60    5.40
  -4 -13  -5   49.30    6.20
  -4  13  -5   55.29    6.70
  -4  13  -5   46.40    6.80
  -4  13  -5   35.30    5.30
   4  13   5   41.10    6.20
  -4  13  -5   40.50    6.20
   4  13   5   52.79    5.90
   4 -14  -5    9.10    4.30
   4 -14  -5   16.60    4.50
  -4 -14   5   23.00    4.70
  -4 -14   5    8.50    3.60
   4 -14  -5    9.10    4.80
   4  14  -5    7.90    4.10
   4  14  -5    5.60    3.80
  -4  14   5   13.80    4.50
  -4  14   5    8.40    4.00
   4  14  -5    9.10    3.90
   4  14  -5    8.10    3.90
  -4  14   5    4.80    4.40
  -4  14   5    4.00    4.20
   3 -14  -5   -0.30    4.00
   3 -14  -5    1.10    3.90
   3 -14  -5    0.10    3.80
  -3 -14   5    0.60    2.90
  -3 -14   5   -1.40    2.70
  -3 -14   5    1.70    3.40
   3 -14  -5   -1.70    3.30
   3  14  -5   -1.20    2.50
   3  14  -5    3.60    3.30
  -3  14   5   -3.10    3.30
   3  14  -5    1.20    3.30
   3  14  -5    3.90    2.80
  -3  14   5    0.30    3.30
   3  14  -5   -4.00    2.70
  -3  14   5    1.10    3.10
  -2 -14   5    7.20    3.60
   2 -14  -5    0.60    3.50
  -2 -14   5    4.60    2.80
   2 -14  -5    7.50    3.30
  -2 -14   5    3.90    3.60
  -2 -14   5    7.70    3.00
   2 -14  -5    3.50    3.30
   2 -14  -5    6.60    3.90
   2 -14  -5    0.90    3.10
  -2  14   5    9.00    3.50
   2  14  -5    3.00    3.00
   2  14  -5    5.90    2.80
  -2  14   5    3.50    3.70
   2  14  -5    4.60    3.00
  -2  14   5    5.20    3.60
   2  14  -5    6.50    3.50
   2  14  -5    0.00    2.40
  -2  14   5    2.70    3.60
   2  14  -5    1.20    3.50
   1 -14  -5   14.10    4.40
  -1 -14   5   14.30    4.00
   1 -14  -5   10.90    3.50
  -1 -14   5   12.10    3.10
   1 -14  -5   12.50    3.70
  -1 -14   5   12.50    3.70
   1 -14  -5   17.80    4.10
   1 -14  -5   18.90    4.20
  -1  14   5   14.30    3.90
  -1  14   5   17.10    4.50
   1  14  -5    9.90    3.80
  -1  14   5    8.20    3.50
  -1  14   5   11.60    3.80
   1  14  -5   11.50    3.80
   1  14  -5   10.40    3.10
   0 -14  -5    1.60    2.50
   0 -14   5    5.40    3.10
   0 -14   5    5.20    3.20
   0 -14  -5    0.70    3.10
   0 -14  -5    4.60    3.40
   0 -14  -5    0.10    2.90
   0 -14   5    1.20    2.90
   0 -14  -5   -2.10    2.70
   0  14  -5    1.30    3.20
   0  14   5    0.60    2.30
   0  14   5    2.90    3.10
   0  14   5    2.60    3.40
   0  14   5    0.40    3.50
   0  14   5   -2.20    2.50
   0  14  -5   -2.40    2.80
   0  14  -5    2.50    3.40
   1 -14   5    0.10    3.00
  -1 -14  -5   -0.50    2.90
  -1 -14  -5   -0.90    2.80
  -1 -14  -5    3.60    3.10
   1 -14   5   -0.90    3.00
  -1 -14  -5   -1.10    2.60
   1 -14   5   -0.70    2.70
  -1 -14  -5    3.90    3.20
  -1  14  -5    1.20    3.40
   1  14   5    3.00    3.20
   1  14   5   -4.40    2.60
   1  14   5    2.50    3.60
  -1  14  -5   -2.50    1.80
   1  14   5   -2.90    2.30
   1  14   5   -3.80    3.20
  -1  14  -5    0.10    3.20
   2 -14   5   14.30    4.10
  -2 -14  -5   12.20    3.50
  -2 -14  -5   11.90    3.90
   2 -14   5   18.20    4.30
  -2 -14  -5   16.10    3.70
  -2 -14  -5   14.00    4.10
  -2 -14  -5   13.20    4.70
   2 -14   5   18.70    4.20
   2  14   5   20.80    4.70
   2  14   5   20.10    3.90
   2  14   5   19.00    4.00
   2  14   5   11.70    4.20
  -2  14  -5   17.30    4.80
  -2  14  -5   19.40    3.40
   2  14   5   18.60    4.70
  -2  14  -5   18.70    4.60
  -3 -14  -5   -0.40    2.90
  -3 -14  -5   10.10    3.60
   3 -14   5    6.60    3.60
   3 -14   5    0.30    3.20
  -3 -14  -5    9.20    3.30
   3 -14   5    6.70    3.50
   3  14   5   -1.40    3.70
  -3  14  -5    8.20    3.70
   3  14   5    3.30    3.60
  -3  14  -5    0.80    4.00
  -3  14  -5    2.10    2.80
  -3  14  -5    4.30    4.10
   3  14   5    2.80    3.30
   3  14   5    2.90    3.00
   3  14   5    2.20    2.90
  -4 -14  -5   -0.30    2.70
  -4 -14  -5   -0.80    3.60
   4 -14   5    0.00    3.50
  -4  14  -5    2.00    3.70
   4 -15  -5    7.00    4.10
  -4 -15   5    7.10    3.70
  -4  15   5    2.60    3.80
   4  15  -5    1.40    3.40
   4  15  -5    3.80    3.90
   4  15  -5    2.20    4.20
  -4  15   5    5.20    4.70
   4  15  -5    3.60    3.70
  -3 -15   5   58.09    6.30
   3 -15  -5   63.79    7.90
   3 -15  -5   78.79    9.10
  -3 -15   5   59.59    6.30
   3 -15  -5   55.49    7.00
  -3 -15   5   55.89    7.00
   3 -15  -5   55.69    7.50
   3  15  -5   56.19    6.80
   3  15  -5   68.19    7.40
   3  15  -5   60.99    6.40
  -3  15   5   73.49    6.90
  -3  15   5   61.69    7.20
  -3  15   5   66.49    7.50
   3  15  -5   43.70    6.50
  -3  15   5   46.80    6.80
   3  15  -5   56.39    6.30
  -2 -15   5  101.69    7.80
   2 -15  -5   95.69    8.50
  -2 -15   5   83.39    7.20
  -2 -15   5   86.39    8.30
   2 -15  -5  101.29    8.60
   2 -15  -5  106.59    9.10
  -2 -15   5   99.69    8.80
   2 -15  -5   91.59    9.50
  -2  15   5  112.69    8.10
   2  15  -5   90.59    8.90
  -2  15   5  109.19    8.80
  -2  15   5   96.19    8.20
  -2  15   5   99.99    9.50
   2  15  -5   90.69    8.60
   2  15  -5   88.69    8.40
   2  15  -5  112.59    8.30
   1 -15  -5   23.40    4.40
  -1 -15   5   20.20    4.50
   1 -15  -5   19.60    4.30
  -1 -15   5   21.60    4.40
   1 -15  -5   10.60    4.50
  -1 -15   5   19.20    3.50
   1 -15  -5   28.00    4.50
   1 -15  -5   36.10    5.40
   1  15  -5   21.30    4.70
   1  15  -5   13.30    3.60
  -1  15   5   20.20    4.40
  -1  15   5   20.90    4.50
  -1  15   5   24.80    4.90
  -1  15   5    9.50    4.50
   1  15  -5   15.90    4.30
   0 -15  -5   73.29    7.00
   0 -15  -5   64.79    6.80
   0 -15   5   52.69    6.30
   0 -15   5   65.69    7.10
   0 -15  -5   68.09    7.10
   0 -15  -5   73.19    6.30
   0 -15   5   57.89    6.50
   0  15  -5   80.59    8.10
   0  15   5   67.79    6.10
   0  15  -5   62.29    6.40
   0  15  -5   72.89    7.80
   0  15   5   67.89    7.20
   0  15   5   60.79    6.50
   0  15   5   84.19    7.70
   0  15   5   55.79    7.10
  -1 -15  -5  102.49    8.10
  -1 -15  -5  117.29    8.80
   1 -15   5   96.29    8.50
  -1 -15  -5  105.99    7.70
   1 -15   5   87.09    8.20
   1 -15   5   87.29    8.10
  -1 -15  -5  115.49    8.50
  -1 -15  -5  107.89    8.30
  -1  15  -5  101.99    8.60
   1  15   5  101.59    8.50
   1  15   5  109.79    7.80
  -1  15  -5  101.59    9.60
   1  15   5   90.69    7.80
  -1  15  -5  116.69    6.70
   1  15   5   96.99    9.60
   1  15   5  113.19    9.20
  -2 -15  -5   28.90    4.60
  -2 -15  -5   30.60    5.10
   2 -15   5   33.70    5.30
  -2 -15  -5   48.00    5.90
   2 -15   5   32.20    5.40
   2 -15   5   32.70    5.50
  -2 -15  -5   32.70    4.90
  -2  15  -5   31.10    5.90
   2  15   5   38.30    5.80
  -2  15  -5   37.50    4.30
   2  15   5   34.10    5.70
   2  15   5   36.70    5.60
   2  15   5   35.30    5.20
   2  15   5   39.70    5.10
  -2  15  -5   35.00    5.80
  -3 -15  -5   25.20    6.70
  -3 -15  -5   28.20    4.90
  -3 -15  -5   30.20    5.30
   3 -15   5   16.10    4.50
  -3 -15  -5   29.70    4.40
   3 -15   5   29.90    5.10
   3  15   5   32.60    5.60
  -3  15  -5   27.00    5.10
  -3  15  -5   23.70    6.80
   3  15   5   23.60    5.00
  -3  15  -5   21.00    4.10
   3  15   5   33.00    7.50
   4  16  -5   28.20    5.50
  -3 -16   5   35.70    5.40
   3 -16  -5    9.90    5.00
  -3 -16   5   37.30    7.00
   3 -16  -5   42.40    6.90
   3 -16  -5   40.60    6.10
  -3  16   5   28.80    6.00
  -3  16   5   52.69    7.40
  -3  16   5   41.80    5.70
   3  16  -5   35.90    5.70
   3  16  -5   56.49    7.50
   3  16  -5   35.80    5.90
  -2 -16   5    4.50    3.70
   2 -16  -5   11.00    3.90
   2 -16  -5    5.20    3.60
  -2 -16   5    5.30    3.70
   2 -16  -5    7.10    4.30
  -2 -16   5    0.80    2.90
   2 -16  -5   -1.30    3.90
   2  16  -5    1.80    4.00
   2  16  -5    3.90    3.50
  -2  16   5    0.90    3.10
  -2  16   5    1.70    4.00
  -2  16   5   -2.50    3.00
   2  16  -5    3.80    3.70
   1 -16  -5   66.49    7.40
   1 -16  -5   70.19    6.90
  -1 -16   5   62.29    7.00
   1 -16  -5   54.79    7.00
  -1 -16   5   62.49    5.80
   1 -16  -5   62.39    6.40
  -1 -16   5   52.69    6.80
  -1  16   5   61.69    7.10
  -1  16   5   63.69    6.70
   1  16  -5   57.19    5.90
  -1  16   5   66.59    7.00
   1  16  -5   54.09    6.90
   1  16  -5   51.99    6.80
  -1  16   5   66.39    7.70
   0 -16  -5   64.99    7.10
   0 -16   5   46.10    6.10
   0 -16  -5   58.59    6.50
   0 -16   5   62.99    7.10
   0 -16  -5   45.20    5.60
   0 -16  -5   58.99    6.50
   0  16  -5   59.49    7.40
   0  16   5   63.59    6.50
   0  16   5   61.39    7.30
   0  16  -5   55.59    7.30
   0  16  -5   56.19    6.20
   0  16   5   74.69    7.60
   0  16   5   70.19    7.60
   0  16   5   59.49    6.70
   1 -16   5    1.20    3.10
   1 -16   5   -2.00    3.30
  -1 -16  -5    4.20    3.40
  -1 -16  -5    1.50    3.00
  -1 -16  -5    1.60    2.60
  -1 -16  -5    1.40    3.20
  -1 -16  -5   -6.10    2.50
   1 -16   5    7.60    3.60
   1  16   5   -3.20    3.50
  -1  16  -5    0.70    3.80
   1  16   5    0.60    4.70
   1  16   5    4.50    3.60
  -1  16  -5   -4.40    3.10
   1  16   5    1.00    3.00
   1  16   5   -1.30    3.70
  -1  16  -5   -0.70    3.40
  -2 -16  -5   48.10    5.40
  -2 -16  -5   36.60    5.60
   2 -16   5   45.00    6.10
   2 -16   5   47.80    6.30
  -2 -16  -5   42.40    5.90
   2 -16   5   50.09    7.00
   2  16   5   35.50    5.40
  -2  16  -5   33.30    5.80
   2  16   5   45.00    6.40
  -2  16  -5   37.60    4.50
   2  16   5   45.00    9.40
   2  16   5   37.30    5.80
  -2  16  -5   42.40    7.90
   3 -16   5   60.49    7.20
  -3 -16  -5   65.59    9.20
  -3  16  -5   48.10    5.60
   3  16   5   55.79    6.90
   3 -17  -5   -5.10    3.60
  -3 -17   5   -0.90    4.00
  -3  17   5    6.50    3.90
   3  17  -5    0.00    3.70
  -2 -17   5    3.00    3.00
   2 -17  -5   -0.60    3.20
  -2 -17   5   -2.00    3.40
   2 -17  -5    4.00    4.00
   2 -17  -5    3.80    3.40
   2  17  -5   -2.40    3.20
   2  17  -5    0.50    3.80
   2  17  -5    2.20    3.80
  -2  17   5    3.10    3.30
   1 -17  -5    2.70    3.20
   1 -17  -5    5.20    3.90
   1 -17  -5    5.90    3.60
  -1 -17   5    2.00    3.20
  -1 -17   5    6.80    3.60
   1 -17  -5    6.90    4.10
  -1  17   5   11.60    4.90
   1  17  -5   -4.40    3.30
   1  17  -5   -0.90    3.50
  -1  17   5    4.30    3.60
  -1  17   5    6.50    3.80
  -1  17   5    0.10    4.00
   0 -17  -5    1.20    3.10
   0 -17  -5   -1.90    3.10
   0 -17   5   -1.10    3.00
   0 -17  -5   -0.70    3.20
   0 -17  -5    1.50    2.70
   0 -17   5   -0.70    3.30
   0 -17  -5   -2.00    3.40
   0  17   5   -3.40    3.60
   0  17  -5    5.40    4.00
   0  17  -5   -5.90    3.20
   0  17   5    1.70    3.50
   0  17  -5   -3.00    3.60
   0  17   5    0.90    3.30
   0  17   5    6.70    4.50
  -1 -17  -5    4.30    3.70
   1 -17   5   -2.60    3.10
  -1 -17  -5    0.00    2.40
  -1 -17  -5    0.30    3.50
   1  17   5   -3.30    4.00
   1  17   5   -1.20    3.10
   1  17   5    0.80    4.00
  -1  17  -5   -9.60    3.30
  -2 -17  -5    3.10    2.80
  -2 -17  -5    2.40    3.60
   2 -17   5    5.00    3.60
   2  17   5    2.60    4.20
  -2  17  -5   -0.10    2.70
  -2 -18   5    5.10    3.30
   2 -18  -5   -3.10    3.60
  -2  18   5    3.50    3.70
   2  18  -5   -2.90    3.50
   1 -18  -5   23.90    5.20
   1 -18  -5   25.20    4.30
   1  18  -5   17.30    6.00
   0 -18  -5   13.00    3.60
   0 -18   5   12.50    4.40
   0 -18  -5    8.50    4.40
   0  18   5   21.70    5.40
   0  18  -5   14.50    4.40
   1 -18   5   -3.20    3.40
  -1 -18  -5    0.70    4.40
  -1 -18  -5    1.30    2.60
  -1 -18  -5    0.60    3.40
   1  18   5    3.40    7.40
  -1  18  -5    3.70    4.30
   7   0  -6   25.90    4.90
   7   0  -6   17.90    4.60
  -6   0   6  264.47   15.40
   6   0  -6  291.27   14.70
   6   0  -6  285.97   14.90
  -6   0   6  272.17   16.40
   6   0  -6  290.67   15.10
   6   0  -6  246.88   15.40
   6   0  -6  268.07   16.30
   5   0  -6   82.29    6.10
   5   0  -6   78.79    7.50
  -5   0   6   80.19    6.80
   5   0  -6   87.59    6.30
   5   0  -6   86.39    8.10
  -5   0   6   83.49    7.80
   5   0  -6   74.99    6.40
  -4   0   6   21.10    4.10
   4   0  -6   29.40    4.60
  -4   0   6   19.70    3.50
   4   0  -6   25.70    4.10
   4   0  -6   22.10    3.20
   4   0  -6   24.10    3.30
   4   0  -6   25.70    3.40
  -3   0   6  563.84   24.80
  -3   0   6  531.55   25.90
   3   0  -6  544.15   26.10
   3   0  -6  551.34   25.10
   3   0  -6  575.64   24.90
  -3   0   6  529.85   25.50
  -3   0   6  540.05   26.30
   3   0  -6  576.64   26.10
   3   0  -6  527.95   25.20
   2   0  -6  649.83   30.00
   2   0  -6  650.33   29.90
   2   0  -6  664.93   30.70
   2   0  -6  633.34   31.80
   2   0  -6  677.23   29.40
  -2   0   6  667.93   31.00
  -2   0   6  715.13   30.00
   2   0  -6  656.63   30.00
   2   0  -6  662.23   30.50
  -1   0   6    5.80    1.40
  -1   0   6    2.50    1.80
   1   0  -6    2.50    2.00
   1   0  -6    2.80    2.70
   1   0  -6    5.10    1.90
   1   0  -6    4.90    1.90
  -1   0   6    3.70    1.10
   1   0  -6    3.00    1.80
  -1   0   6    2.60    2.30
   1   0  -6    0.70    2.30
  -1   0   6    4.40    2.00
   0   0  -6 1445.46   61.89
   0   0  -6 1404.66   62.39
   0   0  -6 1347.87   62.29
   0   0   6 1434.76   62.29
   0   0   6 1477.65   61.69
   0   0  -6 1442.16   62.69
   0   0   6 1400.46   62.09
   0   0   6 1416.36   61.69
   0   0  -6 1295.97   63.69
   0   0   6 1385.66   62.89
   0   0  -6 1430.26   62.09
  -1   0  -6  713.23   32.50
   1   0   6  680.73   32.20
   1   0   6  728.13   32.00
  -1   0  -6  702.43   32.30
   1   0   6  712.13   31.90
   1   0   6  724.43   32.50
  -1   0  -6  671.53   32.20
  -1   0  -6  746.13   33.00
   1   0   6  762.32   32.70
  -1   0  -6  676.43   34.20
  -2   0  -6   13.30    2.90
  -2   0  -6   12.40    2.60
   2   0   6   12.60    3.20
  -2   0  -6   12.20    3.40
   2   0   6   10.30    2.30
  -2   0  -6    9.60    2.60
   2   0   6   19.90    3.10
   2   0   6   14.70    2.60
   2   0   6   12.70    2.90
  -2   0  -6   10.90    4.00
   3   0   6  406.96   19.10
   3   0   6  412.56   19.40
  -3   0  -6  391.06   19.90
   3   0   6  415.36   20.00
   3   0   6  374.06   19.30
  -3   0  -6  409.36   19.60
  -3   0  -6  368.36   21.00
  -3   0  -6  404.16   19.20
  -3   0  -6  376.96   19.30
   3   0   6  403.56   18.80
  -3   0  -6  388.96   18.50
  -4   0  -6  388.66   20.50
   4   0   6  403.56   20.10
   4   0   6  423.36   20.60
  -4   0  -6  398.76   22.30
   4   0   6  422.86   20.30
  -4   0  -6  423.26   20.30
  -4   0  -6  422.06   20.70
   4   0   6  385.46   20.90
   4   0   6  416.36   20.20
  -4   0  -6  434.96   20.90
   5   0   6   54.99    6.20
  -5   0  -6   53.69    6.20
   5   0   6   50.59    5.90
   5   0   6   45.10    6.10
   5   0   6   54.29    5.70
   5   0   6   58.29    6.20
  -5   0  -6   50.89    6.20
  -5   0  -6   51.29    7.70
   6   0   6   85.39    8.20
   6   0   6   92.89    7.50
   6   0   6   82.79    8.20
   7  -1  -6   44.40    6.00
   7  -1  -6   29.40    6.60
   7   1  -6   42.30    5.90
  -7   1   6   38.30    8.00
   6  -1  -6    3.70    3.10
   6  -1  -6    1.10    3.60
   6  -1  -6    6.20    3.20
   6  -1  -6    1.20    3.00
   6  -1  -6    4.20    3.00
  -6  -1   6    3.10    3.00
  -6  -1   6    7.70    4.20
   6   1  -6    1.50    3.70
   6   1  -6   -0.30    2.40
  -6   1   6    2.90    3.70
   6   1  -6    4.00    3.10
   6   1  -6    3.80    3.00
  -6   1   6    3.80    3.00
   6   1  -6    7.50    3.10
  -5  -1   6   72.89    7.90
   5  -1  -6   60.89    7.00
   5  -1  -6   78.29    6.00
   5  -1  -6   61.39    6.40
   5  -1  -6   60.99    5.70
   5  -1  -6   64.19    5.80
  -5  -1   6   62.09    6.30
   5   1  -6   62.79    5.40
   5   1  -6   61.19    7.00
   5   1  -6   64.89    5.80
   5   1  -6   69.29    6.80
  -5   1   6   74.09    7.60
  -5   1   6   70.19    6.50
   5   1  -6   65.59    5.30
   4  -1  -6  202.08   10.90
   4  -1  -6  215.58   12.10
   4  -1  -6  201.68   11.60
  -4  -1   6  189.38   11.40
   4  -1  -6  211.28   10.80
  -4  -1   6  200.98   12.00
   4  -1  -6  210.18   10.70
  -4   1   6  205.18   12.10
   4   1  -6  178.58   10.40
   4   1  -6  204.88   12.10
   4   1  -6  209.68   10.70
   4   1  -6  210.18   10.60
   4   1  -6  197.28   11.60
  -4   1   6  204.78   11.50
   3  -1  -6   21.60    3.40
  -3  -1   6   18.00    3.70
   3  -1  -6   16.00    3.30
   3  -1  -6   25.60    3.20
   3  -1  -6   16.70    2.40
  -3  -1   6   17.40    3.20
  -3  -1   6   21.50    2.60
   3  -1  -6   17.80    2.90
   3   1  -6   23.50    3.70
   3   1  -6   22.60    3.60
   3   1  -6   22.90    2.60
   3   1  -6   23.00    2.80
   3   1  -6   25.70    2.80
  -3   1   6   20.40    2.40
  -3   1   6   23.70    3.10
  -3   1   6   20.10    3.70
  -3   1   6   16.30    3.10
  -2  -1   6  109.79    7.70
   2  -1  -6  126.89    8.60
   2  -1  -6  122.39    7.20
   2  -1  -6  110.89    6.70
   2  -1  -6  116.99    6.50
  -2  -1   6  106.99    6.30
   2  -1  -6  109.59    6.70
  -2  -1   6  112.89    6.50
   2  -1  -6  109.49    7.30
   2   1  -6  113.79    5.80
   2   1  -6  109.49    6.00
   2   1  -6  104.79    5.70
  -2   1   6  125.89    6.60
   2   1  -6  114.49    8.50
  -2   1   6  110.19    5.90
   2   1  -6  110.79    7.20
  -2   1   6  120.59    7.70
   2   1  -6  114.99    6.10
   2   1  -6  111.39    7.00
   2   1  -6  116.09    6.40
   2   1  -6  120.79    6.40
  -2   1   6  107.99    5.80
   1  -1  -6  420.26   22.50
  -1  -1   6  480.25   21.10
   1  -1  -6  445.46   21.00
   1  -1  -6  472.75   21.10
  -1  -1   6  477.15   20.80
  -1  -1   6  442.56   20.70
   1  -1  -6  362.56   21.30
   1  -1  -6  451.35   21.20
  -1  -1   6  455.95   21.90
   1  -1  -6  457.55   21.50
   1   1  -6  487.95   21.60
  -1   1   6  465.95   21.70
  -1   1   6  475.35   21.70
  -1   1   6  451.05   20.40
   1   1  -6  418.26   20.80
  -1   1   6  488.55   21.10
   1   1  -6  429.66   22.70
   1   1  -6  436.76   20.60
  -1   1   6  455.05   21.00
   1   1  -6  458.35   20.90
   0  -1   6   83.09    5.10
   0  -1   6   83.19    4.70
   0  -1   6   79.09    5.70
   0  -1  -6   74.39    5.30
   0  -1  -6   76.09    5.30
   0  -1   6   83.29    5.20
   0  -1  -6   85.89    7.10
   0  -1   6   90.29    4.60
   0  -1  -6   77.19    6.10
   0  -1  -6   81.59    5.90
   0  -1   6   79.29    4.70
   0  -1  -6   82.99    6.10
   0   1  -6   75.29    4.40
   0   1  -6   83.59    5.80
   0   1   6   86.59    6.30
   0   1  -6   88.79    4.90
   0   1  -6   76.49    5.10
   0   1  -6   84.19    5.60
   0   1  -6   81.39    7.20
   0   1   6   99.79    5.90
   0   1   6   84.29    5.00
   0   1  -6   80.99    5.40
   0   1   6   84.69    5.40
   0   1   6   78.89    4.70
   0   1   6   91.59    5.60
  -1  -1  -6   52.89    4.40
   1  -1   6   55.59    4.30
  -1  -1  -6   61.89    5.50
  -1  -1  -6   61.59    6.80
   1  -1   6   58.49    4.40
  -1  -1  -6   56.49    4.90
   1  -1   6   63.49    4.10
  -1  -1  -6   54.69    4.70
   1  -1   6   61.39    5.10
  -1  -1  -6   50.29    4.50
   1  -1   6   53.89    4.70
  -1   1  -6   58.79    5.40
  -1   1  -6   46.40    6.10
  -1   1  -6   56.79    3.50
   1   1   6   54.29    4.20
  -1   1  -6   59.09    4.70
   1   1   6   56.49    5.00
   1   1   6   54.09    4.20
   1   1   6   55.49    3.70
   1   1   6   58.09    4.90
  -1   1  -6   58.19    4.50
  -1   1  -6   56.79    4.80
   1   1   6   56.09    4.50
   2  -1   6  495.35   23.10
  -2  -1  -6  469.85   22.60
  -2  -1  -6  482.05   22.40
   2  -1   6  456.25   22.50
  -2  -1  -6  431.96   24.00
   2  -1   6  513.55   22.00
  -2  -1  -6  492.85   22.80
   2  -1   6  494.85   22.50
   2  -1   6  489.85   22.60
  -2  -1  -6  500.35   23.40
   2  -1   6  483.55   22.20
  -2   1  -6  455.85   22.40
   2   1   6  475.75   22.60
  -2   1  -6  469.25   22.50
   2   1   6  483.55   22.70
  -2   1  -6  462.75   23.20
   2   1   6  510.85   21.80
   2   1   6  460.45   22.30
  -2   1  -6  428.86   24.20
  -2   1  -6  452.05   22.40
   2   1   6  511.25   23.10
  -3  -1  -6   79.79    7.70
   3  -1   6   86.19    6.00
   3  -1   6   85.79    6.00
   3  -1   6   80.79    7.00
   3  -1   6   70.19    5.90
  -3  -1  -6   71.39    5.40
   3  -1   6   81.99    6.20
  -3  -1  -6   71.69    6.10
  -3  -1  -6   81.49    6.50
  -3  -1  -6   79.29    6.00
  -3  -1  -6   95.59    7.30
  -3   1  -6   78.89    6.70
  -3   1  -6   77.89    6.20
   3   1   6   73.89    5.90
   3   1   6   73.89    6.20
  -3   1  -6   75.39    8.20
  -3   1  -6   86.89    6.60
   3   1   6   88.29    5.80
   3   1   6   79.19    6.80
   3   1   6   80.09    6.30
  -3   1  -6   79.39    6.10
   4  -1   6   15.40    3.40
  -4  -1  -6   11.30    3.00
   4  -1   6   13.70    3.30
   4  -1   6   12.20    3.60
  -4  -1  -6    8.30    3.20
  -4  -1  -6   16.30    4.80
   4  -1   6    6.50    3.00
  -4  -1  -6   18.60    4.00
   4  -1   6   15.80    4.10
  -4  -1  -6   10.50    3.60
  -4   1  -6    7.40    3.00
  -4   1  -6   10.50    4.60
  -4   1  -6   12.60    3.50
   4   1   6   11.50    3.10
  -4   1  -6   12.60    3.70
  -4   1  -6   13.50    3.50
   4   1   6    7.20    3.20
   4   1   6   10.80    3.80
   4   1   6   10.10    3.10
   4   1   6   11.00    3.10
   5  -1   6   95.99    7.90
   5  -1   6   95.89    8.60
  -5  -1  -6  104.39   10.70
   5  -1   6  112.49    7.90
   5  -1   6  105.09    8.40
  -5  -1  -6  103.99    8.20
  -5  -1  -6  109.29    8.60
   5  -1   6  110.79    8.10
  -5   1  -6  100.79    8.20
   5   1   6   97.89    7.70
  -5   1  -6   95.19   10.20
   5   1   6  110.59    8.50
  -5   1  -6  122.19    8.80
  -5   1  -6  103.29    8.10
   5   1   6   93.99    8.80
   5   1   6  111.09    8.10
   5   1   6  107.39    8.20
   6  -1   6   44.20    6.20
   6  -1   6   44.50    6.10
   6  -1   6   41.20    5.90
   6   1   6   44.30    6.00
   6   1   6   36.40    5.90
   6   1   6   38.00    5.10
   7  -2  -6   -2.10    3.20
   7   2  -6   -0.60    3.40
  -7   2   6    1.90    3.30
   6  -2  -6    8.10    3.70
  -6  -2   6   16.00    4.60
   6  -2  -6    8.70    3.60
   6  -2  -6   11.50    3.70
   6  -2  -6   11.20    3.40
  -6  -2   6   11.10    3.80
   6  -2  -6   14.30    4.60
   6   2  -6   12.90    3.00
   6   2  -6   12.50    3.80
  -6   2   6    8.00    3.30
   6   2  -6   13.00    3.60
   6   2  -6   11.20    4.40
  -6   2   6   13.50    4.40
   5  -2  -6   13.20    3.30
   5  -2  -6    9.60    3.30
   5  -2  -6    8.50    3.80
  -5  -2   6   14.60    4.40
   5  -2  -6   10.00    3.00
  -5  -2   6    9.90    3.30
   5  -2  -6   10.10    3.00
  -5   2   6   13.60    3.30
   5   2  -6   13.90    2.90
   5   2  -6   11.40    3.10
   5   2  -6   16.10    4.30
   5   2  -6   11.20    2.60
   5   2  -6   15.50    3.80
  -5   2   6   12.80    4.10
  -4  -2   6    2.00    2.30
   4  -2  -6   -0.30    2.10
   4  -2  -6   -2.20    2.50
  -4  -2   6    0.60    2.80
   4  -2  -6   -1.10    2.00
   4  -2  -6    5.90    2.40
   4  -2  -6    5.40    2.60
  -4   2   6    5.40    1.90
   4   2  -6    0.80    2.90
  -4   2   6    2.20    2.30
   4   2  -6   -0.30    2.20
   4   2  -6    1.70    1.80
  -4   2   6    2.70    3.00
   4   2  -6    2.20    2.10
   4   2  -6    3.00    1.80
   3  -2  -6   32.60    4.30
   3  -2  -6   36.50    4.00
   3  -2  -6   41.80    4.60
   3  -2  -6   35.70    3.10
  -3  -2   6   39.70    3.40
   3  -2  -6   26.40    3.60
  -3  -2   6   29.30    3.90
  -3  -2   6   39.20    5.10
   3   2  -6   34.60    3.20
   3   2  -6   33.60    4.10
   3   2  -6   35.60    3.20
   3   2  -6   35.50    3.30
  -3   2   6   32.50    3.10
  -3   2   6   35.20    3.10
   3   2  -6   40.30    4.60
  -3   2   6   46.10    5.20
  -3   2   6   34.30    3.90
  -2  -2   6   46.50    5.10
   2  -2  -6   39.90    5.00
   2  -2  -6   43.70    4.40
   2  -2  -6   42.40    4.10
   2  -2  -6   47.50    4.40
   2  -2  -6   44.30    4.00
  -2  -2   6   38.30    3.30
  -2  -2   6   48.00    3.90
   2  -2  -6   40.20    4.30
   2   2  -6   42.50    3.60
  -2   2   6   41.90    3.40
   2   2  -6   43.30    3.50
  -2   2   6   46.20    3.80
   2   2  -6   42.20    3.10
   2   2  -6   38.70    3.30
  -2   2   6   49.00    4.40
   2   2  -6   39.20    3.10
   2   2  -6   58.49    6.10
  -2   2   6   44.00    4.80
   2   2  -6   47.40    4.40
   2   2  -6   43.60    4.30
   1  -2  -6    2.50    2.00
   1  -2  -6    0.80    2.50
  -1  -2   6    3.30    1.40
  -1  -2   6    3.20    2.10
  -1  -2   6    1.40    2.30
  -1  -2   6    1.60    1.90
   1  -2  -6    4.50    2.10
   1  -2  -6    1.50    1.90
   1  -2  -6    4.80    3.00
   1  -2  -6    2.20    2.00
   1   2  -6    6.80    1.70
   1   2  -6    3.10    1.70
  -1   2   6    4.10    1.90
  -1   2   6    5.70    2.50
  -1   2   6    4.40    1.70
  -1   2   6    1.70    1.60
   1   2  -6    4.40    2.10
   1   2  -6    4.70    2.20
   1   2  -6    2.10    2.60
   1   2  -6    5.00    1.70
  -1   2   6    1.70    2.10
   0  -2  -6    9.50    2.80
   0  -2  -6   11.00    2.30
   0  -2   6   15.50    2.20
   0  -2   6   12.00    2.60
   0  -2  -6   11.30    3.30
   0  -2  -6   12.00    2.80
   0  -2   6   12.90    1.80
   0  -2   6   12.30    2.20
   0  -2  -6   10.00    2.30
   0   2  -6   14.70    1.90
   0   2  -6   17.20    2.90
   0   2   6   14.10    3.00
   0   2   6   10.30    2.40
   0   2  -6   15.30    3.80
   0   2  -6   15.10    2.50
   0   2   6   13.20    2.50
   0   2   6   11.10    2.10
   0   2  -6   15.10    2.20
   0   2  -6   12.90    1.80
   0   2   6   13.20    2.50
  -1  -2  -6   58.29    5.20
   1  -2   6   53.69    4.30
   1  -2   6   44.50    4.50
   1  -2   6   57.09    3.80
  -1  -2  -6   60.79    4.60
  -1  -2  -6   55.39    4.70
   1  -2   6   51.29    4.30
  -1  -2  -6   56.39    5.20
  -1  -2  -6   73.29    7.00
  -1   2  -6   50.29    4.30
  -1   2  -6   50.69    4.60
   1   2   6   52.29    4.70
  -1   2  -6   46.20    5.90
  -1   2  -6   52.19    3.40
   1   2   6   58.19    4.90
  -1   2  -6   48.00    4.20
  -1   2  -6   49.60    4.50
  -1   2  -6   61.29    5.30
   1   2   6   51.39    4.20
   1   2   6   52.09    4.80
   2  -2   6    3.50    2.50
   2  -2   6    1.50    2.00
  -2  -2  -6    3.70    2.30
  -2  -2  -6    4.10    3.00
  -2  -2  -6    4.10    2.10
  -2  -2  -6    1.10    3.20
   2  -2   6    2.10    1.90
  -2  -2  -6    2.60    2.40
   2  -2   6    1.30    2.30
   2  -2   6    4.10    2.20
  -2   2  -6    5.30    3.00
   2   2   6    1.80    2.20
   2   2   6    1.70    1.60
   2   2   6    3.60    2.40
  -2   2  -6    6.10    2.40
   2   2   6    3.40    2.60
  -2   2  -6    2.10    2.20
  -2   2  -6    2.50    3.30
  -2   2  -6    3.00    2.10
   2   2   6    4.80    2.30
  -3  -2  -6   11.90    3.20
  -3  -2  -6   20.00    3.70
  -3  -2  -6    9.60    2.70
   3  -2   6   15.70    3.00
   3  -2   6    9.40    2.80
  -3  -2  -6   10.70    2.60
   3  -2   6   11.80    3.50
   3  -2   6   13.70    3.10
   3  -2   6    8.90    2.70
  -3  -2  -6   21.30    4.10
  -3  -2  -6   14.60    4.30
   3   2   6   11.60    2.70
  -3   2  -6   16.10    3.20
   3   2   6   21.10    3.40
  -3   2  -6   14.60    3.30
   3   2   6   13.90    3.10
   3   2   6   10.90    3.60
  -3   2  -6   10.10    3.00
  -3   2  -6    7.30    4.30
   3   2   6   13.80    3.20
  -3   2  -6   18.40    3.50
  -4  -2  -6   36.80    5.10
   4  -2   6   32.60    4.30
  -4  -2  -6   32.40    4.50
  -4  -2  -6   39.20    5.10
  -4  -2  -6   26.90    5.50
   4  -2   6   25.70    4.20
   4  -2   6   27.30    4.80
   4  -2   6   29.90    4.30
  -4  -2  -6   24.00    3.80
   4  -2   6   33.00    4.40
  -4   2  -6   39.60    5.00
  -4   2  -6   39.90    4.70
   4   2   6   36.20    4.90
   4   2   6   23.10    4.50
   4   2   6   34.10    4.30
  -4   2  -6   25.20    4.20
  -4   2  -6   24.80    5.90
   4   2   6   28.40    4.30
   4   2   6   22.00    3.90
  -4   2  -6   34.20    4.50
  -5  -2  -6    2.40    3.20
  -5  -2  -6    1.80    4.20
  -5  -2  -6    0.70    2.90
  -5  -2  -6    5.20    3.20
   5  -2   6    9.90    3.20
   5  -2   6    4.20    3.00
   5  -2   6    2.90    3.30
   5  -2   6    9.70    3.60
   5   2   6    5.30    3.30
  -5   2  -6    4.90    3.30
   5   2   6    5.20    3.10
  -5   2  -6    7.00    4.70
   5   2   6    0.40    3.30
  -5   2  -6    0.50    3.00
   5   2   6    5.30    3.40
  -5   2  -6    4.10    3.20
   5   2   6    2.00    3.00
   6  -2   6    3.50    3.50
   6  -2   6    4.70    3.80
   6   2   6    3.20    4.40
   6   2   6    8.20    3.50
   6  -3  -6   12.10    3.80
  -6  -3   6   15.30    4.60
   6  -3  -6    9.20    3.70
   6  -3  -6    2.90    3.30
   6  -3  -6   16.70    4.70
  -6  -3   6   12.60    3.90
   6  -3  -6   12.90    3.60
  -6   3   6   12.50    3.50
  -6   3   6   12.40    4.50
   6   3  -6    9.70    3.60
   6   3  -6    8.20    2.70
   6   3  -6    9.50    3.60
   6   3  -6    9.00    4.30
   5  -3  -6  117.49    8.70
   5  -3  -6  132.99    8.30
   5  -3  -6  116.79    7.90
  -5  -3   6  118.59    8.60
   5  -3  -6  124.49    8.20
  -5  -3   6  113.39    9.10
   5  -3  -6  145.69    9.80
  -5   3   6  113.59    8.10
  -5   3   6  112.09    9.20
   5   3  -6  107.19    7.80
   5   3  -6  122.79    9.30
   5   3  -6  119.49    8.70
   5   3  -6  118.49    7.00
   4  -3  -6  394.46   19.10
   4  -3  -6  370.66   18.20
  -4  -3   6  381.56   19.20
   4  -3  -6  368.76   18.70
  -4  -3   6  349.67   18.50
   4  -3  -6  373.86   18.10
   4  -3  -6  396.46   17.70
  -4   3   6  370.46   17.50
   4   3  -6  363.56   17.30
   4   3  -6  350.46   18.60
   4   3  -6  349.17   17.20
  -4   3   6  374.96   19.10
   4   3  -6  385.36   19.00
   4   3  -6  357.36   17.80
  -4   3   6  354.56   18.30
   3  -3  -6   91.59    5.10
  -3  -3   6   78.39    6.90
  -3  -3   6   81.89    6.20
  -3  -3   6   77.79    5.20
   3  -3  -6   81.89    6.00
   3  -3  -6   83.99    6.70
   3  -3  -6   84.89    5.90
   3  -3  -6   83.79    6.30
   3   3  -6   82.89    6.50
   3   3  -6   73.19    4.70
  -3   3   6   78.09    5.30
   3   3  -6   71.19    5.20
   3   3  -6   80.89    4.80
   3   3  -6   84.79    6.30
  -3   3   6   85.59    5.00
  -3   3   6   79.89    6.10
  -3   3   6   90.59    6.10
   3   3  -6   74.09    4.90
  -3   3   6   74.39    6.40
   2  -3  -6  276.17   14.20
   2  -3  -6  269.07   13.90
   2  -3  -6  304.77   15.50
  -2  -3   6  287.87   14.80
  -2  -3   6  284.87   13.60
   2  -3  -6  288.07   14.50
  -2  -3   6  273.17   13.40
   2  -3  -6  279.37   14.00
  -2   3   6  275.17   14.10
  -2   3   6  277.67   14.40
   2   3  -6  274.97   14.20
  -2   3   6  282.87   13.40
   2   3  -6  286.87   13.10
   2   3  -6  274.07   12.90
   2   3  -6  269.37   13.90
   2   3  -6  281.27   15.60
   2   3  -6  268.47   13.10
  -2   3   6  301.57   13.50
  -2   3   6  242.88   14.10
   2   3  -6  280.37   12.80
  -1  -3   6  768.72   33.60
   1  -3  -6  740.43   33.80
  -1  -3   6  743.33   33.70
  -1  -3   6  748.83   34.50
   1  -3  -6  751.42   34.20
   1  -3  -6  764.02   35.20
  -1  -3   6  701.33   32.90
   1  -3  -6  755.82   33.80
  -1   3   6  733.33   34.20
  -1   3   6  738.43   33.30
  -1   3   6  802.32   33.20
  -1   3   6  751.42   34.10
  -1   3   6  751.42   33.80
   1   3  -6  707.23   32.80
   1   3  -6  696.23   35.30
   1   3  -6  734.33   32.90
   1   3  -6  723.23   33.30
   1   3  -6  732.33   33.80
   1   3  -6  730.93   33.00
  -1   3   6  788.42   33.60
   0  -3   6  164.08    8.80
   0  -3  -6  173.38    9.60
   0  -3  -6  181.38    9.80
   0  -3  -6  180.18   10.60
   0  -3   6  167.38    9.10
   0  -3  -6  174.98    9.20
   0  -3   6  169.28    8.50
   0  -3  -6  157.28    9.00
   0   3   6  166.38    9.20
   0   3  -6  158.98    8.50
   0   3   6  170.28    8.80
   0   3  -6  140.59   10.30
   0   3  -6  158.68    8.10
   0   3  -6  168.38    9.30
   0   3   6  165.68    9.50
   0   3  -6  166.08    8.70
   0   3  -6  170.18    8.00
   0   3   6  181.38    9.00
   0   3  -6  167.98    9.20
   0   3  -6  157.38    8.40
  -1  -3  -6   69.69    5.30
  -1  -3  -6   68.29    6.60
   1  -3   6   73.49    5.10
   1  -3   6   75.29    4.90
  -1  -3  -6   72.99    5.90
   1  -3   6   72.19    5.30
   1  -3   6   66.49    4.20
  -1  -3  -6   61.29    5.70
   1  -3   6   75.09    5.50
  -1  -3  -6   71.99    5.50
  -1   3  -6   63.69    7.20
  -1   3  -6   70.09    5.00
  -1   3  -6   62.29    5.60
   1   3   6   77.89    5.40
   1   3   6   74.39    5.70
  -1   3  -6   66.59    4.70
  -1   3  -6   72.79    5.50
  -1   3  -6   67.89    4.90
   1   3   6   64.29    4.90
  -2  -3  -6  630.24   30.70
   2  -3   6  645.84   29.40
  -2  -3  -6  622.94   29.40
   2  -3   6  660.43   28.70
  -2  -3  -6  660.93   29.80
  -2  -3  -6  632.14   28.90
   2  -3   6  627.04   29.00
   2  -3   6  642.44   29.40
  -2  -3  -6  635.74   30.00
   2  -3   6  652.83   28.90
   2   3   6  642.34   29.50
   2   3   6  673.33   28.50
   2   3   6  653.33   29.80
  -2   3  -6  584.44   29.60
   2   3   6  609.44   29.10
  -2   3  -6  599.64   29.10
  -2   3  -6  656.13   31.50
  -2   3  -6  618.74   29.30
  -2   3  -6  595.84   29.00
   3  -3   6  325.97   16.00
  -3  -3  -6  315.87   16.10
   3  -3   6  339.17   16.70
   3  -3   6  331.97   16.20
  -3  -3  -6  330.67   16.00
  -3  -3  -6  332.27   16.90
   3  -3   6  325.07   16.40
   3  -3   6  329.27   16.50
  -3  -3  -6  316.27   16.60
  -3  -3  -6  333.37   18.00
  -3  -3  -6  366.56   17.60
   3   3   6  328.27   16.40
  -3   3  -6  321.97   16.50
  -3   3  -6  316.87   16.40
   3   3   6  321.97   16.50
   3   3   6  325.07   17.00
   3   3   6  335.07   15.80
   3   3   6  310.17   16.60
  -3   3  -6  327.87   18.70
  -3   3  -6  316.37   16.50
  -3   3  -6  324.77   16.70
   4  -3   6   36.60    4.60
   4  -3   6   35.20    4.40
  -4  -3  -6   34.00    4.80
  -4  -3  -6   31.50    5.90
  -4  -3  -6   35.40    4.20
   4  -3   6   44.10    5.20
   4  -3   6   35.80    5.10
  -4  -3  -6   40.90    5.50
   4  -3   6   36.30    4.70
  -4  -3  -6   37.40    5.40
  -4   3  -6   38.90    6.80
  -4   3  -6   43.60    5.30
  -4   3  -6   37.00    4.40
   4   3   6   40.30    4.80
   4   3   6   35.60    5.00
  -4   3  -6   28.70    4.40
   4   3   6   25.90    4.10
   4   3   6   33.50    4.30
   4   3   6   36.90    5.40
  -4   3  -6   33.70    4.60
   5  -3   6  185.08   11.60
   5  -3   6  182.08   11.50
   5  -3   6  186.78   11.20
  -5  -3  -6  189.88   11.70
   5  -3   6  203.68   11.40
  -5  -3  -6  196.48   11.90
  -5  -3  -6  179.28   11.80
  -5  -3  -6  171.18   13.10
   5   3   6  193.48   11.80
  -5   3  -6  193.78   12.00
   5   3   6  187.28   12.10
  -5   3  -6  176.68   11.50
   5   3   6  198.68   11.70
   5   3   6  177.08   11.10
  -5   3  -6  186.28   11.70
   5   3   6  197.58   11.40
  -5   3  -6  188.28   13.90
   6  -3   6   79.99    8.10
   6  -3   6   88.29    8.60
   6   3   6   77.09    7.20
   6  -4  -6  166.38   10.20
   6  -4  -6  124.49    9.60
   6  -4  -6  156.18   10.30
   6  -4  -6  150.78   10.00
   6  -4  -6  140.19   11.30
  -6  -4   6  135.19   10.30
  -6  -4   6  156.08   11.10
   6   4  -6  141.69   11.10
  -6   4   6  152.28    9.80
   6   4  -6  141.79   10.40
   6   4  -6  155.58    9.90
   6   4  -6  141.19    8.50
  -6   4   6  146.49   11.10
   5  -4  -6   50.59    6.50
   5  -4  -6   63.99    6.40
   5  -4  -6   65.79    5.80
  -5  -4   6   61.79    6.80
   5  -4  -6   74.19    6.30
   5  -4  -6   59.49    5.90
  -5  -4   6   68.49    6.80
  -5   4   6   61.39    5.90
   5   4  -6   50.49    6.10
   5   4  -6   63.39    6.90
  -5   4   6   69.09    5.90
  -5   4   6   69.99    7.60
   5   4  -6   55.29    5.50
   5   4  -6   53.49    4.40
   4  -4  -6   12.10    2.70
   4  -4  -6   10.20    3.10
   4  -4  -6    9.50    3.50
  -4  -4   6   11.60    3.00
  -4  -4   6   19.50    4.30
   4  -4  -6   14.10    3.20
   4  -4  -6   10.20    3.10
   4   4  -6    9.70    1.90
  -4   4   6    9.70    2.80
  -4   4   6   14.20    3.80
   4   4  -6   12.50    3.70
   4   4  -6    7.70    2.90
   4   4  -6    8.40    2.50
  -4   4   6    9.90    2.60
  -4   4   6   12.90    2.80
  -4   4   6    7.60    2.80
  -3  -4   6  304.17   15.90
   3  -4  -6  323.17   14.70
   3  -4  -6  341.17   16.40
   3  -4  -6  315.67   15.70
   3  -4  -6  319.07   15.70
  -3  -4   6  305.27   16.40
  -3  -4   6  317.27   15.00
   3  -4  -6  311.77   16.00
   3   4  -6  296.37   14.80
   3   4  -6  330.77   16.10
  -3   4   6  308.27   16.20
  -3   4   6  277.27   15.70
  -3   4   6  316.87   14.60
  -3   4   6  317.97   15.20
   3   4  -6  303.17   15.10
   3   4  -6  308.37   14.20
  -3   4   6  342.47   15.90
   3   4  -6  306.77   14.40
   3   4  -6  300.97   15.90
  -2  -4   6  395.66   20.20
   2  -4  -6  428.26   20.80
   2  -4  -6  415.06   19.70
   2  -4  -6  424.06   19.90
   2  -4  -6  382.16   19.50
  -2  -4   6  403.06   19.20
   2  -4  -6  406.46   19.90
  -2  -4   6  427.16   19.20
  -2   4   6  384.26   19.80
   2   4  -6  396.96   19.70
   2   4  -6  394.76   18.10
  -2   4   6  425.36   19.00
   2   4  -6  396.86   18.80
  -2   4   6  416.56   19.90
   2   4  -6  391.96   21.10
   2   4  -6  433.06   19.50
  -2   4   6  393.56   19.60
  -2   4   6  413.46   19.10
  -1  -4   6    9.10    1.30
   1  -4  -6    7.00    2.60
   1  -4  -6    6.10    2.40
   1  -4  -6   13.20    3.30
  -1  -4   6    9.40    2.70
  -1  -4   6   10.20    3.10
  -1  -4   6    9.50    2.40
   1  -4  -6    9.60    2.60
   1  -4  -6   15.00    3.60
   1   4  -6   10.50    2.10
   1   4  -6    9.00    3.40
   1   4  -6    8.40    1.60
  -1   4   6    7.80    2.60
  -1   4   6    4.80    2.10
   1   4  -6    7.30    2.00
   1   4  -6    8.60    2.30
  -1   4   6    6.70    2.50
   1   4  -6    9.60    1.50
  -1   4   6    5.10    1.80
  -1   4   6    7.50    2.50
   1   4  -6    9.00    1.60
   0  -4  -6  648.84   29.80
   0  -4  -6  732.23   31.20
   0  -4  -6  650.43   28.80
   0  -4   6  647.44   29.70
   0  -4   6  667.03   29.60
   0  -4   6  635.54   29.00
   0  -4  -6  645.64   29.90
   0  -4  -6  660.73   30.20
   0  -4  -6  670.93   30.30
   0   4   6  652.43   30.30
   0   4   6  640.44   29.90
   0   4  -6  621.24   29.60
   0   4  -6  644.24   29.10
   0   4   6  671.03   29.50
   0   4   6  676.63   30.00
   0   4   6  683.43   29.60
   0   4  -6  606.14   31.20
   0   4  -6  629.64   28.90
   0   4  -6  610.34   28.70
   0   4  -6  635.74   28.90
   0   4  -6  655.53   29.80
   0   4  -6  603.54   29.10
   1  -4   6  514.55   24.50
  -1  -4  -6  569.94   25.90
   1  -4   6  538.95   24.50
   1  -4   6  502.05   24.00
  -1  -4  -6  562.74   24.80
   1  -4   6  478.45   23.40
  -1  -4  -6  525.95   24.60
  -1  -4  -6  519.65   25.10
  -1  -4  -6  497.35   25.00
  -1   4  -6  522.25   26.50
   1   4   6  556.74   24.80
   1   4   6  507.25   24.30
   1   4   6  569.94   24.90
  -1   4  -6  540.35   24.70
  -1   4  -6  525.65   24.00
  -1   4  -6  493.95   24.70
  -1   4  -6  527.65   24.10
  -1   4  -6  526.05   24.60
  -2  -4  -6   10.70    3.30
   2  -4   6    8.50    2.40
  -2  -4  -6    6.50    3.40
   2  -4   6    2.50    2.50
  -2  -4  -6   17.30    3.60
  -2  -4  -6    9.40    2.30
  -2  -4  -6    6.00    2.60
   2  -4   6   10.10    2.20
   2  -4   6    5.40    2.60
   2   4   6   12.10    2.60
   2   4   6   13.50    3.20
  -2   4  -6   11.30    3.10
   2   4   6   10.80    2.00
   2   4   6    8.00    2.60
  -2   4  -6    6.70    2.60
  -2   4  -6   12.90    4.20
  -2   4  -6    7.80    2.50
  -2   4  -6   11.10    2.60
  -3  -4  -6  204.88   11.30
   3  -4   6  179.48   10.80
   3  -4   6  180.28   10.40
   3  -4   6  197.88   10.70
  -3  -4  -6  200.08   10.90
   3  -4   6  192.78   10.10
  -3  -4  -6  194.58   10.10
  -3  -4  -6  191.38   12.00
   3  -4   6  178.98   10.70
  -3  -4  -6  192.68   11.60
  -3  -4  -6  187.38   10.40
   3   4   6  183.08   10.50
   3   4   6  181.18   11.30
   3   4   6  199.38   11.00
  -3   4  -6  174.38   10.40
  -3   4  -6  180.48   10.80
  -3   4  -6  159.48   10.30
   3   4   6  187.78    9.90
  -3   4  -6  214.78   13.40
  -3   4  -6  197.18   10.90
   4  -4   6  271.17   14.20
   4  -4   6  281.97   14.20
  -4  -4  -6  272.17   14.40
   4  -4   6  253.67   14.30
   4  -4   6  249.68   14.10
   4  -4   6  269.37   13.80
  -4  -4  -6  252.67   15.50
  -4  -4  -6  271.17   14.50
  -4  -4  -6  282.87   15.10
  -4  -4  -6  266.77   13.50
  -4   4  -6  257.47   16.60
  -4   4  -6  234.08   14.00
  -4   4  -6  256.67   14.40
   4   4   6  273.87   14.30
  -4   4  -6  245.58   14.10
   4   4   6  261.07   14.90
   4   4   6  253.27   14.00
   4   4   6  250.47   14.30
   4   4   6  268.17   13.70
   5  -4   6   40.80    5.50
  -5  -4  -6   34.80    5.40
   5  -4   6   48.40    5.30
  -5  -4  -6   33.30    5.20
   5  -4   6   42.00    5.30
  -5  -4  -6   52.29    6.30
   5  -4   6   50.89    6.00
  -5  -4  -6   30.20    6.10
   5  -4   6   36.80    5.60
  -5   4  -6   42.60    5.70
  -5   4  -6   51.69    7.90
   5   4   6   37.80    5.00
   5   4   6   41.80    5.70
   5   4   6   39.10    5.80
   5   4   6   44.80    5.40
   5   4   6   40.30    5.60
  -5   4  -6   36.30    5.60
  -5   4  -6   48.10    6.00
  -5   4  -6   43.20    5.60
   6  -4   6   43.10    6.00
  -6   4  -6   48.20    7.60
   6   4   6   42.60    5.60
   6  -5  -6    1.50    5.40
   6  -5  -6    2.90    3.40
  -6  -5   6   -1.00    3.00
   6  -5  -6    3.70    3.20
   6  -5  -6    3.50    3.30
  -6  -5   6    4.30    3.50
   6  -5  -6   -1.30    3.80
   6   5  -6   -2.30    3.40
  -6   5   6    4.30    3.60
   6   5  -6    2.50    2.90
   6   5  -6   -0.40    3.10
  -6   5   6    1.30    2.70
  -5  -5   6    1.40    2.80
   5  -5  -6    0.30    2.60
   5  -5  -6    3.00    2.70
   5  -5  -6    3.50    3.70
   5  -5  -6    0.70    2.60
   5  -5  -6    3.10    2.80
  -5  -5   6   -4.10    3.00
   5   5  -6    4.80    2.70
   5   5  -6    1.00    2.80
  -5   5   6    5.50    2.90
  -5   5   6    1.20    2.40
  -5   5   6    3.00    3.40
   5   5  -6    2.90    3.40
   5   5  -6    3.00    1.70
   4  -5  -6    6.80    2.40
   4  -5  -6    4.60    2.80
  -4  -5   6    7.50    2.90
   4  -5  -6    6.90    3.10
   4  -5  -6    4.40    2.90
  -4  -5   6   10.20    3.70
   4  -5  -6    3.20    3.00
   4   5  -6    4.40    2.20
   4   5  -6    7.30    3.40
  -4   5   6    7.50    2.70
   4   5  -6    5.20    2.70
  -4   5   6    6.90    2.90
  -4   5   6    3.10    2.70
  -4   5   6    3.10    2.30
   3  -5  -6    4.00    2.80
   3  -5  -6   -0.60    1.60
   3  -5  -6    1.70    2.40
   3  -5  -6   -0.30    2.20
   3  -5  -6    2.40    2.40
  -3  -5   6    2.60    2.80
  -3  -5   6   -3.40    1.80
  -3  -5   6    2.40    1.90
  -3   5   6    1.60    2.40
   3   5  -6    2.70    2.70
   3   5  -6    2.40    1.90
   3   5  -6    1.10    1.70
  -3   5   6   -0.10    2.40
   3   5  -6   -0.70    2.70
  -3   5   6    2.00    2.20
  -3   5   6    0.80    2.10
   3   5  -6    0.80    2.10
  -3   5   6   -0.40    1.80
  -2  -5   6   -0.10    2.20
  -2  -5   6   -0.90    1.80
  -2  -5   6    3.00    2.20
   2  -5  -6    0.20    2.40
  -2  -5   6    2.10    2.70
   2  -5  -6    0.80    2.20
   2  -5  -6   -0.70    2.10
   2  -5  -6   -1.50    2.30
   2  -5  -6    3.70    2.50
   2   5  -6    0.10    1.50
  -2   5   6    1.10    2.00
  -2   5   6   -0.70    2.10
   2   5  -6    0.70    2.00
   2   5  -6    1.20    2.00
   2   5  -6    1.50    2.70
  -2   5   6    2.20    1.20
   2   5  -6    0.30    1.60
  -2   5   6   -0.20    2.10
  -2   5   6    2.40    2.30
   1  -5  -6   15.60    3.10
   1  -5  -6   19.20    3.30
   1  -5  -6   21.10    4.00
  -1  -5   6   15.90    3.20
   1  -5  -6   16.10    3.40
   1  -5  -6   15.10    3.00
  -1  -5   6   16.40    3.50
  -1  -5   6   17.50    2.90
   1   5  -6   19.70    2.20
   1   5  -6   15.90    2.70
   1   5  -6   20.10    4.30
  -1   5   6   21.60    3.40
   1   5  -6   16.20    2.30
  -1   5   6   13.50    2.30
   1   5  -6   15.40    2.50
   1   5  -6   19.50    2.30
   1   5  -6   12.90    2.90
  -1   5   6   15.70    2.90
  -1   5   6   19.20    3.30
  -1   5   6   17.50    3.10
   0  -5   6   21.20    3.20
   0  -5  -6   23.30    3.40
   0  -5   6   27.10    3.40
   0  -5   6   18.40    2.50
   0  -5  -6   24.00    3.70
   0  -5  -6   21.20    3.50
   0  -5  -6   30.30    4.20
   0  -5  -6   22.40    2.50
   0  -5   6   24.50    2.30
   0  -5  -6   22.70    3.40
   0   5  -6   14.20    3.70
   0   5  -6   22.10    2.30
   0   5   6   23.80    3.20
   0   5   6   23.90    3.20
   0   5   6   29.30    3.30
   0   5   6   27.50    3.60
   0   5  -6   15.60    3.10
   0   5  -6   24.70    2.60
   0   5  -6   20.70    3.00
   0   5  -6   22.80    2.50
   0   5   6   15.70    3.20
   0   5  -6   21.10    2.20
  -1  -5  -6    5.00    2.70
   1  -5   6    0.00    2.00
   1  -5   6    4.90    1.80
   1  -5   6    3.70    1.50
  -1  -5  -6    1.90    2.60
  -1  -5  -6    2.20    2.50
  -1  -5  -6   -2.90    2.20
   1  -5   6    3.50    2.20
  -1  -5  -6    5.50    2.40
  -1   5  -6    2.90    1.80
  -1   5  -6    0.50    1.70
  -1   5  -6    2.20    2.30
   1   5   6   -0.80    2.20
  -1   5  -6    4.30    2.40
   1   5   6    2.30    2.10
   1   5   6    4.30    2.40
   1   5   6    4.60    1.20
   1   5   6    3.50    2.40
  -1   5  -6    0.30    3.00
  -2  -5  -6   29.30    4.60
  -2  -5  -6   26.30    3.20
   2  -5   6   36.80    3.30
  -2  -5  -6   27.90    3.90
   2  -5   6   35.70    3.80
   2  -5   6   28.10    4.00
   2  -5   6   28.50    3.80
  -2  -5  -6   32.10    4.50
  -2  -5  -6   40.70    5.00
  -2   5  -6   28.70    4.10
  -2   5  -6   25.40    3.50
  -2   5  -6   32.50    5.60
   2   5   6   35.60    3.10
   2   5   6   34.40    4.10
  -2   5  -6   35.00    4.20
   2   5   6   30.60    4.20
   2   5   6   27.20    3.90
  -2   5  -6   30.20    3.60
   3  -5   6   -2.60    2.30
   3  -5   6    0.00    2.10
  -3  -5  -6   -0.90    1.90
  -3  -5  -6    3.50    2.50
   3  -5   6    3.00    2.60
   3  -5   6    2.70    2.90
  -3  -5  -6   -1.10    2.70
  -3  -5  -6   -3.80    2.50
   3  -5   6    0.70    2.30
  -3  -5  -6    1.30    3.00
  -3  -5  -6    0.80    2.30
  -3   5  -6   -0.20    2.60
   3   5   6    6.30    2.70
   3   5   6   -0.60    2.70
   3   5   6   -4.50    2.10
  -3   5  -6    1.90    3.70
  -3   5  -6    0.90    2.70
   3   5   6    1.20    2.00
  -3   5  -6   -0.50    2.30
  -3   5  -6   -1.20    2.00
  -4  -5  -6    9.40    3.90
  -4  -5  -6    1.80    3.00
   4  -5   6    6.50    3.10
  -4  -5  -6   -0.70    3.40
   4  -5   6    0.50    2.40
  -4  -5  -6    2.80    2.40
   4  -5   6    4.90    2.90
   4  -5   6    1.90    2.90
   4  -5   6    4.50    2.80
  -4  -5  -6    4.10    3.10
  -4   5  -6    3.30    3.10
  -4   5  -6   -1.50    4.00
   4   5   6    2.80    2.80
   4   5   6    2.70    2.80
  -4   5  -6   -3.00    2.60
  -4   5  -6    2.00    2.70
   4   5   6    0.10    3.10
   4   5   6    1.50    2.50
   5  -5   6   -2.60    3.20
  -5  -5  -6   -1.00    3.20
   5  -5   6    1.90    3.10
  -5  -5  -6    2.00    3.20
   5  -5   6    0.00    3.00
  -5  -5  -6   -0.60    3.80
  -5  -5  -6   -3.00    2.90
  -5   5  -6    3.10    4.80
   5   5   6    0.90    3.00
   5   5   6   -4.30    2.70
   5   5   6    3.50    3.20
   5   5   6    3.30    4.60
  -5   5  -6   -0.40    3.00
   5   5   6   -2.50    3.20
  -5   5  -6    0.60    3.00
  -5   5  -6   -3.00    3.20
  -5   5  -6    4.30    3.30
   6  -6  -6   77.09    9.40
   6  -6  -6   65.59    7.40
  -6  -6   6   60.89    7.50
   6  -6  -6   71.39    7.40
   6  -6  -6   81.09    7.70
  -6  -6   6   63.09    7.60
   6   6  -6   63.99    6.60
   6   6  -6   59.79    8.80
  -6   6   6   52.19    7.30
   6   6  -6   73.29    8.30
   5  -6  -6   50.79    5.30
   5  -6  -6   60.19    6.50
   5  -6  -6   47.20    5.80
   5  -6  -6   52.89    6.80
   5  -6  -6   66.99    6.90
  -5  -6   6   61.99    6.80
  -5  -6   6   59.09    6.30
   5   6  -6   49.10    5.50
  -5   6   6   59.29    7.10
  -5   6   6   63.29    6.00
  -5   6   6   56.69    5.70
   5   6  -6   44.30    5.80
   5   6  -6   51.99    6.60
  -4  -6   6    1.90    2.50
   4  -6  -6    4.00    3.30
   4  -6  -6    6.90    3.10
   4  -6  -6    8.60    3.20
   4  -6  -6    9.60    3.20
   4  -6  -6    3.60    2.30
  -4  -6   6    9.40    3.70
   4   6  -6    2.90    3.10
   4   6  -6    6.90    2.90
  -4   6   6    5.20    3.30
   4   6  -6    7.60    2.50
  -4   6   6    6.80    3.20
  -4   6   6    2.70    2.70
  -4   6   6    4.50    2.50
  -3  -6   6  233.18   13.10
  -3  -6   6  211.18   11.60
   3  -6  -6  243.88   13.20
   3  -6  -6  243.58   12.60
   3  -6  -6  245.98   12.80
   3  -6  -6  233.58   12.60
  -3  -6   6  204.68   12.40
  -3   6   6  238.28   12.70
   3   6  -6  248.88   12.70
   3   6  -6  230.68   12.50
  -3   6   6  234.88   12.10
  -3   6   6  225.68   12.70
   3   6  -6  220.28   11.80
  -3   6   6  241.28   11.40
   3   6  -6  211.78   11.80
   3   6  -6  224.58   13.80
  -3   6   6  213.68   12.50
  -2  -6   6  208.18   10.80
   2  -6  -6  210.88   12.10
   2  -6  -6  220.18   11.30
  -2  -6   6  195.68   11.20
  -2  -6   6  199.28   11.90
  -2  -6   6  202.08   11.20
   2  -6  -6  223.68   11.60
   2  -6  -6  211.38   11.70
   2  -6  -6  220.28   11.70
   2   6  -6  205.58   10.90
   2   6  -6  181.58   10.30
  -2   6   6  214.98   11.50
  -2   6   6  186.58   11.50
  -2   6   6  201.68   10.80
   2   6  -6  194.78   10.90
  -2   6   6  205.08   10.00
   2   6  -6  192.68   12.70
   2   6  -6  196.48   10.60
  -2   6   6  192.48   11.00
   1  -6  -6   13.40    3.00
   1  -6  -6    5.90    2.90
  -1  -6   6   10.30    3.30
   1  -6  -6   11.80    3.00
  -1  -6   6    5.70    2.30
   1  -6  -6    8.10    2.90
   1  -6  -6    6.20    2.60
  -1  -6   6    9.30    2.50
  -1  -6   6    8.30    2.90
   1   6  -6   10.50    2.10
   1   6  -6   10.90    2.50
  -1   6   6    7.00    2.70
  -1   6   6    6.60    2.10
   1   6  -6   10.10    2.80
  -1   6   6   10.50    2.80
   1   6  -6    7.50    2.20
  -1   6   6   10.80    3.00
  -1   6   6    7.60    2.50
   1   6  -6    9.30    3.40
   0  -6  -6  189.28   10.80
   0  -6   6  171.18    9.80
   0  -6   6  185.88   10.40
   0  -6   6  193.18   10.40
   0  -6  -6  206.98   11.20
   0  -6  -6  202.78    9.70
   0  -6  -6  189.38   10.70
   0  -6  -6  197.58   10.60
   0  -6  -6  186.78   10.80
   0   6  -6  192.98   10.50
   0   6  -6  180.88    9.70
   0   6  -6  187.58   10.00
   0   6  -6  180.98   11.60
   0   6  -6  178.08    9.40
   0   6  -6  196.88    9.20
   0   6   6  178.48   10.90
   0   6   6  203.58   10.80
   0   6   6  193.58   10.20
   0   6   6  208.78   10.30
   0   6   6  193.78   10.20
   0   6  -6  179.58    9.20
  -1  -6  -6  273.17   15.00
  -1  -6  -6  282.37   13.10
  -1  -6  -6  276.17   14.60
  -1  -6  -6  306.87   14.90
   1  -6   6  293.27   14.50
  -1  -6  -6  293.57   15.10
   1  -6   6  279.77   14.50
   1  -6   6  259.97   13.60
  -1  -6  -6  271.67   15.00
  -1   6  -6  300.97   14.50
   1   6   6  279.37   14.30
  -1   6  -6  286.77   13.80
  -1   6  -6  279.47   15.90
  -1   6  -6  286.07   13.70
   1   6   6  288.87   15.00
   1   6   6  283.57   14.70
   1   6   6  289.17   14.60
  -1   6  -6  292.57   14.60
   1   6   6  285.77   13.20
   2  -6   6   12.80    2.00
  -2  -6  -6    6.50    3.10
   2  -6   6   10.40    3.10
  -2  -6  -6   14.40    3.50
  -2  -6  -6    8.20    2.90
  -2  -6  -6   14.40    2.50
   2  -6   6   12.10    3.20
  -2  -6  -6   13.30    3.70
   2   6   6   12.90    2.90
  -2   6  -6   13.30    4.30
   2   6   6    8.90    2.90
   2   6   6   14.70    3.30
   2   6   6   11.70    3.30
  -2   6  -6   12.50    2.90
   2   6   6   18.30    2.30
  -2   6  -6    6.40    2.80
  -2   6  -6    6.90    2.50
  -2   6  -6   12.30    3.20
  -3  -6  -6  127.79    8.80
   3  -6   6  130.19    7.80
   3  -6   6  133.59    8.80
  -3  -6  -6  135.99    9.60
  -3  -6  -6  125.19    8.30
   3  -6   6  171.88    8.40
  -3  -6  -6  139.49    9.40
   3  -6   6  131.19    9.10
  -3  -6  -6  129.19    9.50
  -3   6  -6  131.19    8.60
   3   6   6  136.29    8.60
   3   6   6  134.29    7.80
  -3   6  -6  134.39   10.80
  -3   6  -6  128.79    9.10
   3   6   6  148.59    9.20
   3   6   6  128.99    9.20
  -3   6  -6  133.19    8.80
   4  -6   6  153.88    9.80
  -4  -6  -6  148.99    9.10
   4  -6   6  161.48    9.10
  -4  -6  -6  146.79    9.80
  -4  -6  -6  141.99   10.40
   4  -6   6  155.18    9.60
  -4  -6  -6  140.09   10.20
  -4  -6  -6  163.08   10.30
   4  -6   6  135.59    9.80
  -4   6  -6  132.89   10.00
  -4   6  -6  139.29   11.80
   4   6   6  155.48    9.80
  -4   6  -6  139.89    9.90
   4   6   6  148.59    9.60
   4   6   6  148.49    9.00
  -4   6  -6  124.69    9.20
   4   6   6  138.39   10.10
  -4   6  -6  148.99    9.90
   5  -6   6   17.10    3.90
  -5  -6  -6   14.10    4.40
  -5  -6  -6    5.50    3.60
   5  -6   6   14.50    4.10
  -5  -6  -6   14.10    4.70
   5  -6   6    5.70    3.70
  -5  -6  -6   19.70    4.60
   5  -6   6   15.80    4.00
   5   6   6   19.30    4.30
   5   6   6   16.60    4.70
  -5   6  -6    9.80    4.10
   5   6   6   15.80    4.20
  -5   6  -6   14.30    5.70
  -5   6  -6   12.40    3.90
  -5   6  -6   14.70    4.20
  -5   6  -6   14.90    4.20
  -6  -7   6    8.10    4.10
   6  -7  -6   10.40    4.00
   6  -7  -6   14.60    4.00
   6   7  -6   12.70    3.80
  -6   7   6   12.80    4.70
   5  -7  -6   85.79    8.60
   5  -7  -6   94.09    7.70
   5  -7  -6   95.99    8.70
   5  -7  -6   85.99    7.50
  -5  -7   6   76.79    7.60
  -5  -7   6   77.99    8.00
   5  -7  -6   87.49    7.60
  -5   7   6   93.59    7.30
  -5   7   6   84.79    8.00
   5   7  -6   88.09    8.30
   5   7  -6   85.19    7.70
   5   7  -6   86.89    7.00
   4  -7  -6  316.67   16.80
   4  -7  -6  335.07   16.20
   4  -7  -6  312.47   15.10
   4  -7  -6  326.97   16.10
  -4  -7   6  292.77   16.30
  -4  -7   6  275.37   15.80
   4  -7  -6  311.77   16.00
   4   7  -6  281.87   15.90
  -4   7   6  309.97   15.60
  -4   7   6  269.37   15.70
   4   7  -6  302.07   16.20
  -4   7   6  307.67   16.10
   4   7  -6  275.67   15.30
  -4   7   6  287.87   16.00
  -3  -7   6   65.39    5.50
   3  -7  -6   75.59    6.30
  -3  -7   6   78.49    7.00
   3  -7  -6   82.29    6.60
   3  -7  -6   66.79    6.20
  -3  -7   6   64.79    6.20
   3  -7  -6   59.79    6.40
  -3   7   6   70.79    6.50
  -3   7   6   66.49    6.10
   3   7  -6   66.79    6.20
   3   7  -6   55.29    5.40
   3   7  -6   63.79    5.50
   3   7  -6   67.89    6.10
   3   7  -6   86.49    8.20
  -3   7   6   69.49    5.90
  -3   7   6   77.89    7.00
   3   7  -6   63.69    5.30
  -2  -7   6  180.88   11.10
   2  -7  -6  182.98   11.60
  -2  -7   6  202.18   10.80
   2  -7  -6  212.88   11.50
   2  -7  -6  191.28   11.10
  -2  -7   6  180.78   11.20
   2  -7  -6  223.28   12.00
   2  -7  -6  199.18   11.90
  -2  -7   6  200.18   11.90
   2   7  -6  190.88   10.40
  -2   7   6  210.48   11.00
   2   7  -6  195.78   10.80
   2   7  -6  187.18   12.60
  -2   7   6  200.88   10.90
   2   7  -6  207.28   11.00
   2   7  -6  214.28   10.90
  -2   7   6  210.38   11.40
   2   7  -6  197.18   10.80
  -2   7   6  194.28   11.70
   1  -7  -6  513.65   25.10
  -1  -7   6  521.45   25.30
  -1  -7   6  505.15   24.30
  -1  -7   6  508.45   24.40
   1  -7  -6  548.05   25.50
   1  -7  -6  526.65   25.00
   1  -7  -6  560.04   25.20
  -1  -7   6  526.45   24.80
   1  -7  -6  533.45   24.80
  -1   7   6  508.65   24.40
  -1   7   6  530.55   24.90
   1   7  -6  494.05   24.20
   1   7  -6  537.75   24.40
  -1   7   6  546.75   24.00
  -1   7   6  488.85   24.10
  -1   7   6  529.15   25.30
   1   7  -6  515.85   23.90
   1   7  -6  503.65   24.20
   1   7  -6  485.05   25.90
   0  -7  -6  198.78   11.10
   0  -7   6  189.48   10.60
   0  -7   6  182.78   10.20
   0  -7  -6  200.28   11.10
   0  -7  -6  214.08   10.10
   0  -7   6  194.18   10.70
   0  -7  -6  215.78   11.20
   0  -7  -6  204.58   11.10
   0  -7  -6  181.58   10.60
   0   7  -6  195.48   10.70
   0   7  -6  186.58    9.10
   0   7  -6  176.98    9.40
   0   7   6  183.78   10.40
   0   7   6  181.58    9.20
   0   7  -6  189.88   11.90
   0   7  -6  185.38    9.40
   0   7  -6  191.48   10.10
   0   7   6  200.98   11.00
   0   7   6  203.68   10.60
   0   7   6  198.18   11.40
   0   7   6  185.48   10.10
   1  -7   6   50.19    4.90
   1  -7   6   36.90    4.70
  -1  -7  -6   53.39    3.70
  -1  -7  -6   55.19    5.40
  -1  -7  -6   61.69    5.40
  -1  -7  -6   49.90    5.60
  -1  -7  -6   60.09    5.70
  -1  -7  -6   50.89    5.60
   1  -7   6   43.40    4.00
   1   7   6   46.10    5.20
   1   7   6   49.60    4.80
   1   7   6   53.49    5.30
  -1   7  -6   55.39    5.00
   1   7   6   49.00    5.20
  -1   7  -6   52.69    4.40
  -1   7  -6   52.89    4.20
  -1   7  -6   44.80    5.90
   1   7   6   49.00    3.50
  -1   7  -6   56.19    5.40
   2  -7   6  425.66   20.70
  -2  -7  -6  426.16   20.90
  -2  -7  -6  410.56   21.20
  -2  -7  -6  420.46   19.70
  -2  -7  -6  430.86   21.10
  -2  -7  -6  423.96   21.00
   2  -7   6  402.46   20.40
   2  -7   6  424.36   20.80
  -2   7  -6  401.66   22.00
   2   7   6  415.96   20.50
   2   7   6  424.06   20.90
   2   7   6  433.76   19.60
  -2   7  -6  400.36   20.10
  -2   7  -6  441.86   20.10
  -2   7  -6  404.86   19.90
   2   7   6  431.16   20.90
  -2   7  -6  416.96   20.60
   2   7   6  433.76   21.00
  -3  -7  -6  313.37   17.20
   3  -7   6  319.17   16.70
  -3  -7  -6  323.47   17.10
   3  -7   6  332.77   16.60
  -3  -7  -6  313.47   16.70
   3  -7   6  306.27   15.40
  -3  -7  -6  340.57   17.20
  -3  -7  -6  302.77   16.10
  -3   7  -6  325.17   16.50
  -3   7  -6  302.67   16.10
  -3   7  -6  328.77   17.40
   3   7   6  310.07   16.30
  -3   7  -6  342.87   18.50
   3   7   6  312.87   15.60
  -3   7  -6  315.47   16.70
   3   7   6  324.37   16.90
   3   7   6  305.87   16.90
   4  -7   6   19.90    4.40
   4  -7   6   20.30    4.40
   4  -7   6   29.70    4.70
  -4  -7  -6   29.50    4.20
  -4  -7  -6   23.30    4.80
  -4  -7  -6   26.80    5.00
  -4  -7  -6   30.50    5.30
   4  -7   6   28.90    4.00
  -4  -7  -6   22.30    4.40
  -4   7  -6   21.40    5.70
  -4   7  -6   25.60    4.70
  -4   7  -6   20.20    4.10
  -4   7  -6   31.80    5.00
   4   7   6   30.90    5.10
  -4   7  -6   25.20    4.80
   4   7   6   32.20    4.80
   4   7   6   34.40    5.00
  -5  -7  -6  152.98   10.80
   5  -7   6  139.29    9.50
   5  -7   6  155.88   10.10
   5  -7   6  164.78   10.80
  -5  -7  -6  146.19   11.10
   5  -7   6  130.09   10.30
  -5  -7  -6  170.98   10.60
  -5  -7  -6  149.49   10.60
  -5   7  -6  116.79   11.80
  -5   7  -6  132.79   10.60
   5   7   6  157.38   10.60
   5   7   6  146.39   11.90
  -5   7  -6  146.39   10.70
  -5   7  -6  135.09   12.10
  -5   7  -6  133.49   10.60
   5   7   6  169.28   12.50
  -6  -8   6   24.50    5.40
   6  -8  -6   22.20    4.80
   6   8  -6   21.10    4.60
  -6   8   6   21.90    4.60
   5  -8  -6   17.70    4.60
   5  -8  -6   25.10    4.50
   5  -8  -6   27.70    4.70
   5  -8  -6   20.10    5.10
  -5  -8   6   22.20    5.10
  -5  -8   6   27.20    4.50
  -5   8   6   31.90    7.20
  -5   8   6   14.00    4.40
   5   8  -6   18.50    4.30
   5   8  -6   25.50    4.20
  -5   8   6   27.80    4.70
   5   8  -6   24.10    5.00
   4  -8  -6    5.60    3.50
  -4  -8   6    1.00    2.70
   4  -8  -6   -2.90    2.40
   4  -8  -6   -1.50    2.10
   4  -8  -6    0.60    2.60
   4  -8  -6    2.60    3.10
  -4  -8   6   -1.10    2.90
  -4   8   6   -3.40    2.70
  -4   8   6    1.20    2.80
   4   8  -6    2.30    2.80
  -4   8   6   -0.10    2.60
  -4   8   6    3.70    2.90
   4   8  -6    1.70    2.40
   4   8  -6    1.10    3.00
  -3  -8   6   63.09    5.50
  -3  -8   6   55.69    5.80
   3  -8  -6   75.19    7.20
  -3  -8   6   67.19    6.90
   3  -8  -6   62.19    6.20
   3  -8  -6   63.39    6.20
   3  -8  -6   62.29    6.70
  -3   8   6   51.99    6.00
   3   8  -6   63.49    5.30
  -3   8   6   69.29    5.90
  -3   8   6   67.79    6.50
   3   8  -6   71.69    5.70
   3   8  -6   55.89    5.50
   3   8  -6   56.49    5.70
  -3   8   6   60.69    6.00
   3   8  -6   67.39    6.30
   3   8  -6   63.79    5.60
   3   8  -6   67.39    7.30
   2  -8  -6   64.79    6.10
  -2  -8   6   73.59    6.30
  -2  -8   6   77.49    6.00
   2  -8  -6   82.59    7.00
   2  -8  -6   82.39    7.20
  -2  -8   6   78.79    7.20
  -2  -8   6   72.69    6.70
   2  -8  -6   87.89    6.70
  -2  -8   6   62.99    5.90
   2  -8  -6   78.89    7.20
  -2   8   6   67.99    6.00
   2   8  -6   71.59    5.90
   2   8  -6   69.99    5.50
   2   8  -6   61.49    7.30
   2   8  -6   68.09    6.00
  -2   8   6   74.89    5.90
  -2   8   6   78.59    6.40
   2   8  -6   68.59    5.70
   2   8  -6   82.89    6.00
  -2   8   6   64.89    6.40
   2   8  -6   70.79    5.80
  -1  -8   6   18.70    3.30
   1  -8  -6   14.40    3.50
   1  -8  -6   13.10    3.70
   1  -8  -6   22.10    4.20
   1  -8  -6   21.70    3.90
   1  -8  -6   20.20    3.50
  -1  -8   6   21.60    3.80
   1  -8  -6   15.00    3.00
  -1  -8   6   16.70    3.30
   1   8  -6   20.90    4.30
   1   8  -6   16.50    3.20
   1   8  -6   14.20    2.90
  -1   8   6   18.70    3.00
  -1   8   6   12.50    3.50
  -1   8   6   16.80    2.90
   1   8  -6   18.20    3.60
   1   8  -6   13.30    2.70
  -1   8   6   21.80    3.50
   1   8  -6   14.90    2.70
  -1   8   6   12.30    3.50
   0  -8   6   61.19    5.70
   0  -8  -6   71.19    6.40
   0  -8  -6   70.19    5.80
   0  -8  -6   63.99    5.60
   0  -8   6   66.09    5.80
   0  -8  -6   70.79    6.30
   0  -8  -6   82.39    5.40
   0  -8   6   56.19    5.10
   0  -8  -6   69.59    6.20
   0   8   6   66.59    5.70
   0   8  -6   58.59    4.40
   0   8   6   80.69    6.30
   0   8   6   71.29    5.70
   0   8  -6   62.49    3.80
   0   8  -6   68.09    4.40
   0   8   6   64.79    5.70
   0   8  -6   69.29    5.00
   0   8   6   73.19    6.50
   0   8  -6   58.59    5.60
   0   8  -6   72.09    7.20
  -1  -8  -6  153.98    9.80
  -1  -8  -6  161.98    9.50
  -1  -8  -6  160.98   10.00
  -1  -8  -6  157.58    8.30
   1  -8   6  155.38    9.30
  -1  -8  -6  158.88    9.60
   1  -8   6  142.09    9.20
   1  -8   6  146.59    8.70
  -1   8  -6  135.49    8.80
  -1   8  -6  150.08    8.20
  -1   8  -6  147.79   10.20
   1   8   6  166.18    9.80
   1   8   6  163.08    8.40
   1   8   6  149.19    9.10
   1   8   6  154.98    9.60
  -1   8  -6  162.38    9.60
  -1   8  -6  164.28    8.60
   1   8   6  155.88    9.90
  -1   8  -6  169.38   10.70
  -2  -8  -6   16.20    3.50
   2  -8   6    7.40    2.50
   2  -8   6    8.30    3.20
  -2  -8  -6   11.10    3.70
   2  -8   6    9.70    3.20
  -2  -8  -6   12.70    3.70
  -2  -8  -6   11.90    3.30
   2   8   6   12.00    2.50
  -2   8  -6    3.60    3.10
  -2   8  -6   12.10    2.90
   2   8   6    9.80    3.30
   2   8   6    8.20    3.20
  -2   8  -6   11.30    4.00
  -2   8  -6    6.70    3.00
   2   8   6   13.20    3.10
  -2   8  -6   10.90    2.80
   2   8   6    8.90    3.10
  -3  -8  -6   25.70    4.40
  -3  -8  -6   25.70    4.50
  -3  -8  -6   23.50    4.70
  -3  -8  -6   27.90    4.70
  -3  -8  -6   21.10    3.70
   3  -8   6   20.50    4.20
   3  -8   6   21.20    4.00
  -3   8  -6   20.60    5.10
   3   8   6   30.20    4.30
  -3   8  -6   16.70    3.80
  -3   8  -6   18.30    4.20
   3   8   6   20.80    4.80
  -3   8  -6   27.60    4.40
   3   8   6   26.90    4.20
   3   8   6   27.00    4.50
   3   8   6   23.50    4.50
  -3   8  -6   25.50    4.00
  -4  -8  -6   56.09    6.50
  -4  -8  -6   59.39    6.90
  -4  -8  -6   52.59    5.40
   4  -8   6   49.00    5.90
   4  -8   6   43.40    5.80
  -4  -8  -6   40.80    5.50
   4  -8   6   45.10    5.90
  -4  -8  -6   62.19    6.80
  -4   8  -6   48.30    7.40
   4   8   6   60.39    6.10
   4   8   6   48.20    6.00
  -4   8  -6   53.09    5.80
  -4   8  -6   49.00    6.30
  -4   8  -6   51.49    6.10
   4   8   6   48.60    6.20
  -4   8  -6   55.09    6.50
  -5  -8  -6   22.90    5.00
   5  -8   6   12.90    4.40
   5  -8   6   19.30    4.30
  -5  -8  -6   28.00    5.10
  -5  -8  -6   18.00    4.70
  -5   8  -6   15.70    5.00
  -5   8  -6   26.20    5.20
  -5   8  -6   17.90    6.00
  -5   8  -6   14.40    4.70
  -6  -9   6    7.00    4.20
  -6   9   6    2.00    3.60
   6   9  -6    1.10    3.20
   5  -9  -6    9.10    4.30
  -5  -9   6   15.30    4.10
  -5  -9   6   18.90    4.80
   5  -9  -6   15.50    4.20
   5  -9  -6   19.80    4.60
   5  -9  -6   19.60    4.10
  -5   9   6   23.90    4.40
   5   9  -6    9.50    3.80
  -5   9   6   16.00    4.70
   5   9  -6   11.90    4.20
  -5   9   6   19.60    4.70
   5   9  -6   14.20    3.90
  -4  -9   6   49.30    6.40
   4  -9  -6   42.70    5.70
  -4  -9   6   57.79    6.10
   4  -9  -6   59.99    6.70
  -4  -9   6   49.20    5.60
   4  -9  -6   42.40    6.20
   4  -9  -6   58.29    5.80
   4   9  -6   44.20    5.20
   4   9  -6   41.00    5.50
   4   9  -6   56.19    6.20
  -4   9   6   49.40    5.70
  -4   9   6   50.49    6.40
   4   9  -6   48.80    5.10
  -4   9   6   44.40    5.60
  -3  -9   6   -0.80    2.50
   3  -9  -6    0.80    2.90
   3  -9  -6   -5.40    2.90
  -3  -9   6   -3.00    2.90
   3  -9  -6   -0.80    2.70
  -3  -9   6   -2.50    2.30
   3  -9  -6    1.00    2.60
  -3  -9   6    0.20    2.50
   3  -9  -6    2.30    3.00
  -3   9   6    0.60    2.60
  -3   9   6    2.10    3.10
  -3   9   6    1.20    2.60
   3   9  -6    1.60    2.30
   3   9  -6    3.50    3.20
   3   9  -6    0.90    2.10
   3   9  -6   -0.80    2.50
   3   9  -6   -0.60    2.20
   3   9  -6   -1.90    2.10
  -3   9   6   -0.90    2.60
   3   9  -6    1.40    2.30
  -2  -9   6   47.30    5.10
   2  -9  -6   66.49    6.00
  -2  -9   6   36.90    4.40
   2  -9  -6   48.20    5.60
   2  -9  -6   38.20    5.00
  -2  -9   6   47.50    5.80
  -2  -9   6   41.20    4.60
  -2  -9   6   39.10    5.00
   2  -9  -6   46.90    6.00
  -2  -9   6   41.90    5.40
   2  -9  -6   53.89    6.60
  -2   9   6   36.70    5.10
   2   9  -6   34.20    4.50
   2   9  -6   36.30    4.30
   2   9  -6   44.70    6.30
   2   9  -6   42.00    4.60
   2   9  -6   39.30    4.70
  -2   9   6   49.90    5.30
   2   9  -6   43.80    4.80
   2   9  -6   45.90    4.80
  -2   9   6   34.30    5.10
  -2   9   6   37.30    4.50
   1  -9  -6   80.89    7.10
   1  -9  -6   70.49    6.00
   1  -9  -6   75.59    6.80
   1  -9  -6   93.29    7.40
  -1  -9   6   78.39    6.40
  -1  -9   6   91.19    6.30
   1  -9  -6   88.99    6.80
  -1  -9   6   76.29    6.90
   1  -9  -6   82.19    6.60
   1   9  -6   82.29    5.80
   1   9  -6   78.29    6.90
  -1   9   6   66.39    6.20
  -1   9   6   79.89    5.90
   1   9  -6   80.99    6.40
   1   9  -6   95.09    6.40
   1   9  -6   81.39    5.70
  -1   9   6   76.19    6.70
  -1   9   6   89.19    7.70
   1   9  -6   69.49    7.00
  -1   9   6   73.39    5.50
   0  -9  -6    5.20    2.70
   0  -9   6    1.90    2.50
   0  -9  -6    1.40    2.70
   0  -9  -6    0.50    2.60
   0  -9  -6    1.10    2.20
   0  -9  -6    2.70    2.80
   0  -9   6    0.70    2.00
   0  -9  -6    3.50    2.40
   0  -9   6   -0.80    2.40
   0   9  -6    0.60    1.60
   0   9   6    0.00    2.50
   0   9  -6   -0.90    1.70
   0   9  -6   -2.00    2.60
   0   9  -6   -3.10    2.30
   0   9   6   -1.30    2.60
   0   9   6   -0.10    2.30
   0   9   6    0.20    2.40
   0   9  -6   -0.50    2.70
  -1  -9  -6   23.10    4.00
  -1  -9  -6   15.10    3.20
   1  -9   6   18.50    3.60
  -1  -9  -6   16.20    4.00
  -1  -9  -6   19.30    2.90
  -1  -9  -6   22.10    4.00
   1  -9   6   18.10    3.10
   1  -9   6   18.60    3.60
   1   9   6   15.80    3.30
  -1   9  -6   10.30    3.20
   1   9   6   25.50    4.30
   1   9   6   15.70    3.90
  -1   9  -6   16.60    2.80
  -1   9  -6   19.20    4.10
  -1   9  -6   18.50    2.50
  -1   9  -6   13.50    4.00
   1   9   6   15.10    3.60
  -1   9  -6   15.10    3.80
  -2  -9  -6   71.79    7.20
  -2  -9  -6   84.39    6.70
  -2  -9  -6   91.89    7.50
   2  -9   6   93.59    7.20
   2  -9   6   67.99    5.80
   2  -9   6   88.39    7.20
  -2  -9  -6   81.09    7.30
   2   9   6   88.69    7.60
   2   9   6   82.79    6.70
  -2   9  -6   72.49    6.20
   2   9   6   75.59    7.20
  -2   9  -6   81.19    7.40
  -2   9  -6   86.79    7.90
  -2   9  -6   73.59    7.70
  -2   9  -6   83.19    6.10
   2   9   6   87.99    7.20
  -3  -9  -6   19.20    4.10
  -3  -9  -6   12.80    3.90
  -3  -9  -6   11.50    3.20
   3  -9   6    8.20    3.70
  -3  -9  -6   15.90    4.20
  -3  -9  -6   14.60    3.90
   3  -9   6   14.90    3.80
  -3   9  -6    5.40    3.60
   3   9   6   14.70    3.90
  -3   9  -6   17.80    3.80
   3   9   6   14.20    4.10
  -3   9  -6   14.70    3.40
   3   9   6   14.90    3.60
  -3   9  -6   11.90    4.40
   3   9   6   13.20    3.70
  -3   9  -6    6.80    3.50
  -4  -9  -6   14.10    4.00
  -4  -9  -6   13.50    3.80
  -4  -9  -6   13.60    3.50
  -4  -9  -6   12.30    4.10
   4  -9   6   10.30    4.10
   4  -9   6   11.40    3.70
  -4  -9  -6    8.00    3.70
  -4   9  -6   12.90    5.10
  -4   9  -6    5.60    3.20
  -4   9  -6    8.80    3.80
  -4   9  -6   12.70    4.10
   4   9   6   10.60    3.70
  -4   9  -6   10.50    4.30
   4   9   6   10.50    3.90
   4   9   6    7.70    3.80
  -5  -9  -6   30.70    7.80
   5  -9   6   33.20    5.30
   5  -9   6   31.40    5.80
  -5  -9  -6   27.00    4.80
  -5  -9  -6   42.10    6.10
  -5   9  -6   27.70    5.50
  -5   9  -6   38.40   10.40
   5 -10  -6   38.00    6.40
  -5 -10   6   34.70    5.60
  -5 -10   6   46.50    6.40
   5 -10  -6   40.70    6.10
  -5 -10   6   38.00    5.60
   5 -10  -6   36.60    5.30
   5 -10  -6   46.90    6.40
  -5  10   6   36.80    5.50
   5  10  -6   34.50    5.80
  -5  10   6   44.50    6.30
   5  10  -6   48.40    6.20
   5  10  -6   48.10    5.80
  -5  10   6   53.19    7.00
  -4 -10   6    9.70    4.10
   4 -10  -6    3.80    3.10
   4 -10  -6    2.90    3.90
   4 -10  -6    5.00    3.50
  -4 -10   6    3.00    2.80
  -4 -10   6    8.00    3.30
   4 -10  -6    6.70    3.30
  -4  10   6   11.50    3.90
   4  10  -6    0.40    2.60
   4  10  -6    6.40    3.80
   4  10  -6    5.50    3.60
  -4  10   6    7.80    3.70
   4  10  -6    7.00    3.40
  -4  10   6    5.30    3.30
   4  10  -6   10.60    3.00
  -4  10   6    6.00    3.30
  -3 -10   6  251.17   14.30
   3 -10  -6  279.37   15.20
   3 -10  -6  280.47   15.50
   3 -10  -6  251.07   14.90
  -3 -10   6  256.27   14.60
   3 -10  -6  300.97   16.20
   3 -10  -6  299.17   15.10
  -3 -10   6  281.27   15.60
   3  10  -6  272.47   14.50
   3  10  -6  251.97   13.90
  -3  10   6  308.57   15.80
  -3  10   6  280.47   15.40
  -3  10   6  278.77   14.70
  -3  10   6  246.28   14.30
   3  10  -6  255.57   14.60
   3  10  -6  273.07   14.60
   3  10  -6  275.87   16.30
   3  10  -6  286.67   14.90
   3  10  -6  263.07   14.60
   2 -10  -6  169.78   11.00
   2 -10  -6  159.58   10.10
  -2 -10   6  159.78    9.80
  -2 -10   6  149.19    9.60
   2 -10  -6  157.18    9.90
   2 -10  -6  160.78   10.20
  -2 -10   6  152.68    9.50
   2 -10  -6  164.18   10.90
  -2 -10   6  162.48   10.50
  -2 -10   6  140.79    9.00
  -2 -10   6  158.58   10.50
   2  10  -6  149.79    9.50
  -2  10   6  152.28   10.10
  -2  10   6  133.99    8.80
   2  10  -6  172.38    9.40
   2  10  -6  153.88    9.70
   2  10  -6  149.69    9.30
  -2  10   6  150.58   10.50
   2  10  -6  154.08    9.50
   2  10  -6  147.49    9.10
   2  10  -6  164.68   11.10
  -2  10   6  161.08    9.80
   1 -10  -6    2.80    3.30
   1 -10  -6    5.00    2.90
   1 -10  -6    0.60    2.60
   1 -10  -6   -1.40    2.60
   1 -10  -6    1.70    2.90
   1 -10  -6    2.10    2.30
  -1 -10   6    5.10    3.10
  -1 -10   6   -2.20    2.40
  -1 -10   6    4.90    2.80
  -1  10   6    3.70    2.90
   1  10  -6    4.10    2.10
   1  10  -6   -0.20    2.50
   1  10  -6   -2.10    2.50
  -1  10   6    0.90    2.60
   1  10  -6    1.20    2.70
  -1  10   6   -2.70    2.30
  -1  10   6   -4.20    2.60
   1  10  -6    2.40    2.30
   0 -10  -6  295.07   14.60
   0 -10  -6  292.27   15.20
   0 -10   6  259.07   14.80
   0 -10  -6  276.37   15.00
   0 -10   6  254.67   14.50
   0 -10  -6  308.67   14.70
   0 -10   6  274.37   14.80
   0 -10  -6  275.57   15.30
   0 -10  -6  308.77   15.50
   0  10   6  283.77   14.80
   0  10  -6  284.87   15.90
   0  10  -6  253.67   13.80
   0  10   6  291.97   15.90
   0  10   6  294.27   15.40
   0  10   6  300.97   15.00
   0  10  -6  289.67   14.80
   0  10  -6  283.37   14.60
   0  10  -6  273.47   15.60
  -1 -10  -6  287.67   14.60
   1 -10   6  257.27   14.90
  -1 -10  -6  278.67   15.30
   1 -10   6  256.77   14.50
  -1 -10  -6  288.97   15.40
  -1 -10  -6  298.07   15.30
  -1 -10  -6  289.87   14.50
   1 -10   6  291.17   15.10
  -1  10  -6  284.97   13.90
   1  10   6  289.07   14.90
  -1  10  -6  256.97   15.60
  -1  10  -6  296.67   16.10
   1  10   6  297.97   15.50
   1  10   6  285.87   15.20
  -1  10  -6  290.57   15.10
  -1  10  -6  258.27   13.40
   1  10   6  294.87   15.80
  -2 -10  -6   11.50    3.50
  -2 -10  -6    8.70    3.90
   2 -10   6   10.40    3.50
  -2 -10  -6   11.70    3.20
   2 -10   6   11.20    3.00
  -2 -10  -6   15.40    3.90
   2 -10   6   10.80    3.40
  -2  10  -6   10.40    3.90
  -2  10  -6    5.70    3.60
   2  10   6    9.90    3.40
  -2  10  -6   10.60    3.00
   2  10   6   12.70    3.70
   2  10   6   13.00    3.30
  -2  10  -6   11.60    3.90
  -2  10  -6   11.70    2.80
   2  10   6   12.10    3.80
  -3 -10  -6  174.18   11.10
  -3 -10  -6  151.68   10.20
  -3 -10  -6  171.88   13.20
  -3 -10  -6  193.08   11.50
   3 -10   6  171.28   11.20
  -3 -10  -6  183.48   11.10
   3 -10   6  174.68   10.90
  -3  10  -6  164.98   11.70
  -3  10  -6  160.68   10.40
   3  10   6  187.58   11.30
   3  10   6  180.38   11.10
   3  10   6  174.58   11.60
  -3  10  -6  159.18   10.20
   3  10   6  173.28   10.70
  -3  10  -6  162.78   11.10
  -3  10  -6  160.08   11.90
  -4 -10  -6  141.99    9.90
   4 -10   6  138.89    9.80
  -4 -10  -6  129.09    9.20
   4 -10   6  134.89   10.10
  -4 -10  -6  132.19    9.80
  -4 -10  -6  144.29   10.20
  -4  10  -6  124.69    9.30
  -4  10  -6  147.49   10.90
   4  10   6  144.19    9.70
   4  10   6  137.19   10.00
  -4  10  -6  134.29   11.40
  -4  10  -6  127.39    9.80
  -4  10  -6  135.19   10.50
   4  10   6  140.99   10.30
  -5 -10  -6   19.60    4.90
  -5 -10  -6   21.00    4.40
   5 -10   6   18.30    4.40
  -5  10  -6   13.20    4.90
  -5 -11   6   32.90    6.00
  -5 -11   6   36.70    6.00
  -5  11   6   36.90    5.80
   5  11  -6   28.40    5.30
   5  11  -6   28.40    5.00
  -5  11   6   32.00    5.40
   5  11  -6   28.40    5.70
  -5  11   6   27.60    5.70
   4 -11  -6  106.89    9.40
   4 -11  -6  135.29    9.50
   4 -11  -6  133.39    9.00
  -4 -11   6  118.79    8.80
   4 -11  -6  123.59   10.60
  -4 -11   6  122.99    9.90
  -4 -11   6  124.09    9.00
  -4  11   6  122.49    9.70
   4  11  -6  124.49    9.20
  -4  11   6  114.49    8.90
  -4  11   6  138.59    9.30
  -4  11   6  127.49    9.80
   4  11  -6  114.09    9.90
   4  11  -6  137.59    9.90
   4  11  -6  124.49    9.10
   3 -11  -6   13.20    4.80
  -3 -11   6   12.10    4.20
   3 -11  -6    7.30    3.80
  -3 -11   6   15.90    4.00
   3 -11  -6   13.30    3.80
   3 -11  -6   11.80    3.90
  -3 -11   6   15.70    3.80
  -3 -11   6    6.80    3.00
   3  11  -6   14.80    3.20
   3  11  -6   16.20    4.70
  -3  11   6   10.50    3.80
   3  11  -6    8.30    3.10
   3  11  -6   16.30    3.50
  -3  11   6   11.80    3.40
   3  11  -6   17.50    3.90
  -3  11   6    9.40    4.00
  -3  11   6   12.50    3.80
   3  11  -6   17.40    3.70
   3  11  -6    8.50    3.50
   2 -11  -6   50.79    6.80
   2 -11  -6   50.69    5.70
  -2 -11   6   54.49    5.30
   2 -11  -6   55.39    6.20
  -2 -11   6   42.60    5.40
  -2 -11   6   48.00    5.30
  -2 -11   6   51.89    5.90
   2 -11  -6   41.80    6.10
   2 -11  -6   62.59    6.40
  -2 -11   6   66.19    6.60
   2  11  -6   50.79    5.20
  -2  11   6   46.80    6.00
   2  11  -6   49.50    5.10
   2  11  -6   51.49    5.50
   2  11  -6   63.79    7.20
  -2  11   6   48.70    5.80
   2  11  -6   49.70    5.70
   2  11  -6   43.30    5.30
  -2  11   6   56.29    5.10
   2  11  -6   49.10    5.50
  -2  11   6   71.69    6.50
   1 -11  -6  184.68   10.80
   1 -11  -6  186.88   11.20
   1 -11  -6  201.28   11.50
   1 -11  -6  192.08   11.10
  -1 -11   6  167.28   10.80
  -1 -11   6  173.88   10.70
  -1 -11   6  176.28   11.20
  -1 -11   6  166.58    9.90
   1 -11  -6  185.78   11.90
   1  11  -6  188.08   11.30
   1  11  -6  196.48   10.80
  -1  11   6  206.68   11.60
   1  11  -6  176.98   10.00
  -1  11   6  181.78   10.90
  -1  11   6  200.28   10.70
   1  11  -6  185.18   11.60
   1  11  -6  179.18   11.50
   1  11  -6  174.78   10.30
  -1  11   6  180.98   11.90
   0 -11  -6   59.99    6.20
   0 -11   6   65.79    6.40
   0 -11   6   63.59    6.20
   0 -11  -6   66.59    6.70
   0 -11  -6   73.39    7.00
   0 -11   6   59.79    5.90
   0 -11  -6   71.39    7.10
   0 -11  -6   69.19    5.80
   0  11  -6   69.69    6.70
   0  11  -6   53.49    5.70
   0  11   6   66.79    7.10
   0  11  -6   57.29    6.50
   0  11   6   70.19    6.90
   0  11   6   71.59    6.50
   0  11   6   60.59    6.10
  -1 -11  -6   13.30    3.90
   1 -11   6   11.00    3.60
   1 -11   6    7.10    3.40
  -1 -11  -6   20.80    4.00
   1 -11   6   15.20    3.40
  -1 -11  -6   16.00    3.60
   1  11   6   12.30    3.80
   1  11   6   15.00    3.90
  -1  11  -6   13.70    3.80
  -1  11  -6    8.80    3.60
  -1  11  -6    8.10    3.50
   1  11   6   16.00    3.70
  -1  11  -6   13.10    2.30
   1  11   6   16.10    4.20
  -2 -11  -6  163.68   10.60
   2 -11   6  156.08   10.40
  -2 -11  -6  150.88    9.80
  -2 -11  -6  158.08   10.50
   2 -11   6  152.08   10.30
   2 -11   6  136.09    9.60
  -2 -11  -6  159.08   10.30
   2  11   6  155.88   10.00
   2  11   6  168.28   10.70
  -2  11  -6  150.88    9.10
  -2  11  -6  154.28   10.90
  -2  11  -6  184.08   11.70
   2  11   6  169.98   10.90
   2  11   6  166.68   10.90
  -2  11  -6  160.08    9.40
  -2  11  -6  163.58   10.60
  -3 -11  -6   96.79    8.50
   3 -11   6   94.69    8.70
  -3 -11  -6  100.89    8.20
  -3 -11  -6   92.79    8.10
  -3 -11  -6   85.29    7.30
   3 -11   6  104.09    8.40
   3  11   6  114.29    8.60
  -3  11  -6   99.29    9.40
   3  11   6   97.29    8.30
  -3  11  -6   94.19    9.10
  -3  11  -6  108.99    9.10
   3  11   6   99.79    8.80
  -3  11  -6  100.09    8.00
  -3  11  -6   88.79    7.20
   3  11   6   99.19    7.90
  -4 -11  -6    3.70    3.10
  -4 -11  -6    3.10    5.10
  -4 -11  -6    6.20    3.40
  -4 -11  -6    4.40    3.50
   4 -11   6    7.70    3.60
   4 -11   6    5.70    4.40
   4  11   6    9.30    5.00
  -4  11  -6    2.40    3.70
  -4  11  -6   -2.90    4.00
  -4  11  -6    7.60    3.70
   4  11   6   -3.40    3.70
  -4  11  -6   -0.20    4.30
   4  11   6    8.90    4.00
  -4  11  -6    7.50    3.50
  -5 -12   6    6.10    4.30
  -5  12   6   -5.70    3.90
   5  12  -6    2.00    3.90
  -5  12   6   -2.30    3.40
   5  12  -6   -2.60    2.90
   4 -12  -6   -3.60    3.80
  -4 -12   6    7.60    4.30
  -4 -12   6    4.30    3.30
  -4 -12   6    3.40    3.10
   4 -12  -6   -3.00    3.30
   4 -12  -6   11.10    4.00
   4 -12  -6    3.20    3.80
  -4  12   6    7.90    3.70
   4  12  -6   -0.80    3.30
  -4  12   6    6.70    3.80
  -4  12   6    5.50    3.50
   4  12  -6    6.80    3.20
  -4  12   6    4.40    3.90
   4  12  -6    1.50    4.40
   4  12  -6    0.80    3.20
   4  12  -6    0.40    3.20
  -4  12   6    0.50    3.20
   3 -12  -6    3.20    3.40
  -3 -12   6    1.80    3.00
  -3 -12   6    4.80    3.00
  -3 -12   6    0.40    3.60
   3 -12  -6    3.50    4.00
   3 -12  -6    0.10    3.30
  -3 -12   6    0.90    3.10
   3 -12  -6    8.00    4.50
   3  12  -6    4.20    3.70
  -3  12   6    3.60    3.60
  -3  12   6    3.60    3.40
   3  12  -6    6.80    3.30
  -3  12   6    6.20    3.30
   3  12  -6    0.30    3.00
  -3  12   6    4.00    3.70
   3  12  -6    7.20    3.10
   3  12  -6    3.10    2.70
   3  12  -6    1.40    2.60
   3  12  -6    3.20    2.70
  -2 -12   6   -3.50    2.10
  -2 -12   6   -2.80    3.20
  -2 -12   6    0.60    2.90
   2 -12  -6   -2.10    3.10
   2 -12  -6    7.70    3.20
  -2 -12   6   -2.20    2.60
   2 -12  -6   -3.70    2.80
   2 -12  -6   -0.50    3.60
   2 -12  -6    2.20    3.50
   2  12  -6   -2.60    2.20
  -2  12   6   -3.20    3.00
   2  12  -6   -1.20    2.10
  -2  12   6    1.00    2.90
   2  12  -6   -1.90    2.50
   2  12  -6    2.50    2.80
   2  12  -6    0.70    3.10
   2  12  -6    4.20    2.80
   2  12  -6    1.00    2.40
   1 -12  -6    2.90    3.60
  -1 -12   6    4.70    3.00
  -1 -12   6    6.50    2.60
  -1 -12   6    2.40    3.00
   1 -12  -6    2.30    3.00
  -1 -12   6    9.00    3.50
   1 -12  -6    2.90    3.00
   1 -12  -6    4.20    3.00
   1 -12  -6    1.90    3.20
   1  12  -6    1.60    3.00
  -1  12   6    3.30    3.40
  -1  12   6    0.50    2.70
   1  12  -6    4.80    3.00
   1  12  -6    4.40    2.70
  -1  12   6    5.40    2.90
   1  12  -6    3.70    2.80
   1  12  -6    2.40    3.10
   1  12  -6    3.70    2.30
  -1  12   6    0.00    3.00
   0 -12  -6    2.80    2.70
   0 -12  -6   -4.00    3.00
   0 -12   6    0.10    2.40
   0 -12  -6   -0.30    2.50
   0 -12  -6    3.00    2.80
   0 -12   6    2.50    3.00
   0 -12  -6    3.00    3.30
   0 -12   6   -2.20    2.60
   0  12   6    1.10    3.00
   0  12   6    0.80    2.70
   0  12  -6   -0.30    2.70
   0  12  -6    2.50    3.10
   0  12   6   -3.20    3.10
   0  12  -6    3.80    3.20
   0  12   6    8.50    3.40
   1 -12   6    2.20    2.60
   1 -12   6    1.80    3.10
   1 -12   6   -1.70    2.80
  -1 -12  -6    0.30    2.90
  -1 -12  -6   -2.10    3.00
  -1 -12  -6    4.60    3.10
   1  12   6    2.70    2.60
   1  12   6    2.00    3.30
   1  12   6    0.00    2.90
   1  12   6   -2.40    3.10
  -1  12  -6   -3.40    2.90
  -1  12  -6    2.60    1.80
  -1  12  -6   -2.60    3.00
  -1  12  -6   -1.60    2.70
   2 -12   6    8.30    3.50
  -2 -12  -6    2.50    3.00
   2 -12   6    2.40    3.10
  -2 -12  -6    5.00    3.30
   2 -12   6   10.30    3.30
  -2 -12  -6    3.80    3.40
  -2 -12  -6    8.30    3.40
   2  12   6    5.50    3.50
   2  12   6   11.80    4.20
  -2  12  -6    8.20    3.80
  -2  12  -6    2.30    3.40
   2  12   6   12.40    3.50
   2  12   6    8.70    3.80
  -2  12  -6    5.90    3.90
  -2  12  -6    9.20    4.00
  -2  12  -6    5.10    2.40
   3 -12   6   -1.80    3.10
  -3 -12  -6    4.90    3.30
  -3 -12  -6   -3.70    2.90
  -3 -12  -6   -1.20    2.50
   3 -12   6    4.10    3.30
  -3 -12  -6    1.30    3.20
   3  12   6    3.50    3.10
  -3  12  -6    0.10    2.70
   3  12   6    2.60    3.10
  -3  12  -6   -4.30    3.50
  -3  12  -6   -1.40    3.30
   3  12   6    1.60    3.10
  -3  12  -6    6.40    3.30
  -3  12  -6   -0.90    3.80
   3  12   6   -2.70    3.30
   4 -12   6   -1.50    3.00
  -4 -12  -6    4.10    3.50
  -4 -12  -6    3.70    3.80
  -4 -12  -6   -2.00    2.70
  -4  12  -6    1.30    4.40
  -4  12  -6   -0.40    3.50
   4  12   6   -0.20    2.90
  -4 -13   6   53.49    6.30
  -4 -13   6   60.69    6.80
   4 -13  -6   86.59   13.70
   4 -13  -6   66.09   12.10
   4 -13  -6   61.59    7.30
  -4 -13   6   59.89    7.30
  -4  13   6   61.79    7.20
   4  13  -6   56.19    6.60
   4  13  -6   62.99    6.90
  -4  13   6   52.49    6.60
  -4  13   6   56.19    7.50
   4  13  -6   59.79    7.00
   4  13  -6   75.39   10.70
  -4  13   6   54.89    6.90
  -3 -13   6    4.20    3.10
  -3 -13   6    4.50    3.40
  -3 -13   6    2.10    3.40
   3 -13  -6    2.20    4.00
   3 -13  -6    7.70    4.40
   3 -13  -6    1.30    3.60
   3 -13  -6   12.20    4.90
   3 -13  -6   -1.70    3.50
   3  13  -6    3.70    3.10
  -3  13   6    1.20    3.60
  -3  13   6    4.70    3.90
   3  13  -6    0.20    2.70
   3  13  -6   -1.90    2.60
  -3  13   6    0.50    3.30
   3  13  -6    0.60    3.00
   3  13  -6    4.10    4.00
   3  13  -6    5.60    3.40
   2 -13  -6   29.90    6.00
  -2 -13   6   26.30    4.20
   2 -13  -6   32.10    5.10
   2 -13  -6   39.50    5.80
  -2 -13   6   29.80    5.30
   2 -13  -6   33.80    5.20
   2 -13  -6   26.90    5.10
  -2 -13   6   37.50    5.40
   2  13  -6   35.80    4.50
  -2  13   6   35.90    5.20
   2  13  -6   30.70    4.90
   2  13  -6   36.80    5.30
  -2  13   6   39.50    6.00
   2  13  -6   30.30    4.10
   2  13  -6   39.00    5.70
   2  13  -6   36.80    5.20
   2  13  -6   31.00    4.80
  -1 -13   6   92.99    8.10
   1 -13  -6  107.59    8.70
   1 -13  -6  110.09    8.10
  -1 -13   6  101.59    8.20
  -1 -13   6  101.79    8.20
   1 -13  -6  119.69    8.50
  -1 -13   6   88.29    6.80
   1 -13  -6  100.69    8.00
   1 -13  -6  103.49    9.10
   1  13  -6   99.59    8.70
  -1  13   6   97.29    9.20
   1  13  -6   83.89    7.70
  -1  13   6   96.29    7.90
  -1  13   6  104.19    8.00
   1  13  -6  106.79    7.80
   1  13  -6  109.49    8.60
  -1  13   6  108.79    8.50
   1  13  -6  101.59    7.40
   0 -13   6   34.50    4.90
   0 -13   6   37.30    5.20
   0 -13  -6   29.80    5.10
   0 -13   6   31.50    4.60
   0 -13  -6   32.40    4.90
   0 -13  -6   33.60    4.80
   0 -13  -6   30.60    5.10
   0 -13  -6   35.20    5.10
   0  13  -6   31.30    5.20
   0  13   6   39.90    5.40
   0  13  -6   24.00    4.40
   0  13   6   28.70    4.80
   0  13   6   27.60    5.00
   0  13   6   32.10    5.50
   0  13  -6   20.70    4.30
  -1 -13  -6   25.30    4.80
  -1 -13  -6   20.80    4.60
   1 -13   6   22.70    4.20
   1 -13   6   22.40    4.40
   1 -13   6   17.40    4.20
  -1 -13  -6   28.40    4.60
  -1  13  -6   24.60    5.10
  -1  13  -6   20.70    4.50
  -1  13  -6   23.00    4.50
   1  13   6   34.70    5.20
   1  13   6   25.90    5.10
   1  13   6   26.10    4.50
  -1  13  -6   25.60    2.90
   1  13   6   30.20    5.10
   2 -13   6  117.49    9.80
   2 -13   6  100.19    8.80
  -2 -13  -6  120.79    8.80
   2 -13   6  114.09    8.90
  -2 -13  -6  102.29    8.70
  -2 -13  -6  101.79    8.30
  -2 -13  -6  144.99    9.80
  -2  13  -6   97.79    9.00
  -2  13  -6  111.19    7.40
   2  13   6  117.39    9.30
   2  13   6  137.49    9.80
  -2  13  -6  127.09    9.60
   2  13   6  134.19    9.90
   2  13   6  105.09    8.50
  -2  13  -6  124.79   10.20
   3 -13   6   27.00    5.00
  -3 -13  -6   32.40    5.10
  -3 -13  -6   22.20    5.00
  -3 -13  -6   21.20    4.20
   3 -13   6   26.20    4.80
  -3 -13  -6   29.00    5.10
   3  13   6   20.10    4.60
   3  13   6   26.30    4.70
   3  13   6   34.50    5.90
  -3  13  -6   18.70    5.30
  -3  13  -6   27.30    5.70
  -3  13  -6   19.90    3.90
  -3  13  -6   25.30    5.60
   3  13   6   23.70    4.90
   4 -13   6    4.70    4.40
  -4  13  -6    5.80    4.10
  -4  13  -6   -1.10    4.50
  -4 -14   6   -0.50    3.20
   4  14  -6    3.40    4.70
   4  14  -6   -0.90    3.50
   4  14  -6    3.50    3.50
  -4  14   6    4.90    4.20
   4  14  -6    3.60    3.40
  -4  14   6   -2.50    3.50
  -3 -14   6   68.29    7.30
  -3 -14   6   69.29    7.10
  -3 -14   6   83.59    8.40
   3 -14  -6   83.19    9.00
   3 -14  -6   84.49    8.80
   3 -14  -6   77.69    8.90
   3 -14  -6   79.49    8.10
   3  14  -6   71.89    7.40
  -3  14   6   80.19    8.40
   3  14  -6   92.89    7.90
   3  14  -6   79.49    7.00
   3  14  -6   87.59    8.20
  -3  14   6   81.69    8.50
  -3  14   6   73.09    7.40
   3  14  -6   79.39    8.00
   2 -14  -6   63.69    7.10
   2 -14  -6   68.99    7.50
  -2 -14   6   78.19    7.80
  -2 -14   6   61.89    6.20
   2 -14  -6   67.39    7.70
   2 -14  -6   71.09    7.00
   2 -14  -6   62.19    7.00
  -2 -14   6   60.19    6.90
   2  14  -6   75.99    7.70
  -2  14   6   71.69    7.10
   2  14  -6   62.49    6.80
  -2  14   6   54.09    7.00
   2  14  -6   61.39    6.90
   2  14  -6   67.49    6.10
   2  14  -6   68.79    6.80
  -1 -14   6    2.70    3.10
  -1 -14   6    3.10    3.40
  -1 -14   6    1.70    2.40
   1 -14  -6    4.80    3.10
  -1 -14   6   -1.00    3.20
   1 -14  -6    2.60    3.20
   1 -14  -6   -0.30    3.20
   1 -14  -6   -0.10    3.20
   1 -14  -6    3.40    3.70
  -1  14   6    1.20    3.00
   1  14  -6   -1.70    3.00
  -1  14   6    1.90    3.20
   1  14  -6   -1.80    2.70
  -1  14   6   -1.00    3.60
   1  14  -6    6.00    3.70
   0 -14  -6  108.89    8.70
   0 -14   6   92.09    8.20
   0 -14  -6  117.19    8.20
   0 -14  -6   90.99    8.70
   0 -14   6   82.89    7.80
   0 -14  -6   94.59    7.70
   0 -14   6   90.59    8.00
   0 -14  -6  106.09    8.00
   0  14   6  105.89    8.60
   0  14  -6  101.59    8.30
   0  14  -6  102.89    9.40
   0  14   6   97.69    7.90
   0  14   6  115.49    9.70
   0  14   6  103.29    8.60
   0  14  -6  101.29    8.90
  -1 -14  -6  119.49    9.20
   1 -14   6   94.49    8.70
   1 -14   6  105.99    8.60
   1 -14   6   97.09    8.80
  -1 -14  -6  128.29    9.10
  -1 -14  -6  119.59    8.60
   1  14   6  112.59    8.60
   1  14   6  127.59    9.50
   1  14   6  128.89    9.30
  -1  14  -6  123.59   10.40
  -1  14  -6  118.19    9.20
   1  14   6  125.69   10.20
  -2 -14  -6    2.50    3.40
  -2 -14  -6   10.80    3.40
   2 -14   6    3.20    3.20
  -2 -14  -6    2.60    3.20
  -2 -14  -6    8.00    3.30
   2 -14   6    2.60    3.20
   2  14   6    7.70    4.00
  -2  14  -6    6.60    4.00
  -2  14  -6   -1.80    3.60
   2  14   6    6.90    4.10
   2  14   6    3.50    3.30
  -2  14  -6    8.30    2.80
   2  14   6    1.00    3.40
   3 -14   6   54.89    6.50
  -3 -14  -6   44.40    5.70
  -3 -14  -6   52.69    6.70
  -3  14  -6   48.40    5.50
   3  14   6   49.70    6.30
  -3 -15   6   -0.60    2.80
   3 -15  -6    0.80    3.70
  -3 -15   6   -1.00    3.10
   3 -15  -6    2.40    4.50
  -3 -15   6   -0.40    3.60
   3  15  -6    2.40    3.50
   3  15  -6    1.60    3.50
  -3  15   6    0.50    3.80
  -3  15   6   -0.70    3.90
   3  15  -6    3.40    3.70
  -2 -15   6    0.50    3.20
   2 -15  -6    2.20    4.10
  -2 -15   6   10.10    4.10
   2 -15  -6    2.00    3.70
   2 -15  -6    1.00    3.80
   2 -15  -6    4.90    3.50
  -2 -15   6   -1.50    2.50
   2 -15  -6    8.60    3.70
  -2  15   6   -1.60    3.80
  -2  15   6    1.30    3.00
   2  15  -6    6.40    3.70
   2  15  -6   -0.10    3.40
   2  15  -6    0.90    3.40
  -2  15   6    2.60    3.90
   2  15  -6    2.00    3.30
   2  15  -6    2.10    3.10
  -1 -15   6   16.50    4.10
   1 -15  -6   24.00    4.80
   1 -15  -6   16.60    4.00
  -1 -15   6   14.40    4.10
   1 -15  -6   13.80    4.20
   1 -15  -6   20.00    4.60
  -1 -15   6   11.00    4.20
   1 -15  -6   17.50    4.90
  -1  15   6   26.10    4.80
   1  15  -6   18.40    4.20
   1  15  -6   19.20    4.70
  -1  15   6    7.70    4.50
   1  15  -6   10.60    4.20
  -1  15   6   16.50    4.30
   1  15  -6   19.20    4.60
   0 -15  -6    8.60    4.00
   0 -15  -6    6.50    3.40
   0 -15   6   11.30    3.90
   0 -15  -6    8.90    3.70
   0 -15   6    2.50    3.50
   0 -15   6    7.70    3.50
   0 -15  -6    7.30    3.30
   0  15   6    4.60    3.10
   0  15  -6    3.00    3.70
   0  15  -6    9.90    4.20
   0  15   6    4.30    4.10
   0  15   6    7.40    3.90
   0  15  -6    9.00    3.80
   0  15   6   11.20    4.00
  -1 -15  -6    2.00    2.70
   1 -15   6   -5.60    3.20
  -1 -15  -6    1.40    3.30
  -1 -15  -6    1.60    3.40
   1 -15   6    2.80    3.20
  -1 -15  -6    0.50    3.30
   1 -15   6    1.40    3.20
   1  15   6   -0.20    3.50
   1  15   6    0.90    3.20
  -1  15  -6   -0.90    3.60
   1  15   6   -0.20    3.20
  -1  15  -6   -4.90    3.20
   1  15   6   -3.30    3.30
  -2 -15  -6   15.20    3.90
   2 -15   6   12.90    4.30
  -2 -15  -6   20.80    4.80
  -2 -15  -6   15.90    4.10
   2  15   6   13.20    4.80
   2  15   6   15.60    4.70
  -2  15  -6   13.20    3.00
  -2  15  -6   15.60    4.90
  -3 -15  -6    8.50    3.80
   3  15   6   13.30    4.20
  -3  15  -6    5.90    3.20
   3 -16  -6    0.50    4.70
  -3 -16   6    5.80    3.60
   3  16  -6    7.10    4.20
   3  16  -6    4.40    4.70
   3  16  -6   10.50    4.20
   2 -16  -6   13.10    4.60
  -2 -16   6    5.10    3.20
  -2 -16   6    6.10    3.90
   2 -16  -6   12.40    6.80
   2 -16  -6    9.20    4.20
   2  16  -6    7.50    3.90
   2  16  -6   10.20    4.40
   2  16  -6    8.70    4.80
   2  16  -6    6.30    3.80
  -2  16   6    6.10    4.90
   1 -16  -6    2.60    3.60
   1 -16  -6   -3.30    2.80
   1 -16  -6    0.50    3.50
  -1 -16   6   -4.60    2.90
   1 -16  -6    2.00    3.50
  -1 -16   6   -2.60    3.20
   1 -16  -6    2.10    4.00
   1  16  -6   -0.30    3.40
   1  16  -6    1.50    3.30
   1  16  -6   -3.20    3.10
  -1  16   6    0.80    4.80
   1  16  -6    6.00    4.00
  -1  16   6    2.40    3.40
  -1  16   6   -3.20    3.30
   0 -16  -6   24.20    4.70
   0 -16   6   16.10    4.50
   0 -16  -6   15.40    3.90
   0 -16  -6   16.30    4.10
   0 -16   6   15.80    4.10
   0  16   6   17.70    4.80
   0  16  -6   17.00    4.40
   0  16  -6   16.10    5.10
   0  16   6   14.80    4.50
   0  16   6   19.20    5.20
   0  16  -6   22.00    5.20
   0  16   6   13.40    4.20
  -1 -16  -6   23.80    4.90
  -1 -16  -6   15.00    3.70
   1 -16   6   14.80    4.40
  -1 -16  -6   17.20    4.60
  -1  16  -6   13.50    4.70
   1  16   6   20.20    5.00
   1  16   6   11.90    5.30
  -2 -16  -6    1.10    2.80
   2 -17  -6    3.40    4.20
  -2 -17   6   12.20    4.40
   2 -17  -6   16.40    4.70
   2  17  -6    1.30    3.90
   1 -17  -6   52.09    6.50
   1 -17  -6   39.90    5.90
  -1 -17   6   46.60    6.70
   1  17  -6   44.10    7.40
   1  17  -6   31.40    5.90
   1  17  -6   30.20    8.70
   0 -17  -6   22.40    4.70
   0 -17   6   27.90    5.10
   0 -17  -6   34.90    5.60
   0 -17  -6   18.70    4.30
   0  17   6   20.40    5.10
   0  17  -6   20.90    4.80
  -1 -17  -6    9.50    3.60
   1 -17   6    3.90    3.70
  -1 -17  -6   13.30    4.60
   1  17   6    8.50    4.50
  -6   0   7   -0.50    4.00
  -6   0   7    4.30    3.00
   6   0  -7    2.60    3.20
   6   0  -7   -1.90    2.30
   6   0  -7    9.90    5.00
  -5   0   7   -0.60    2.60
  -5   0   7    0.50    3.20
   5   0  -7    0.30    2.20
   5   0  -7   -3.30    2.20
   5   0  -7    3.90    3.00
   5   0  -7   -2.00    3.10
  -4   0   7    5.40    2.90
   4   0  -7   -0.40    2.20
   4   0  -7   -1.50    2.90
  -4   0   7    2.70    3.30
   4   0  -7    3.30    2.20
   4   0  -7   -0.50    2.10
   3   0  -7    0.20    2.70
  -3   0   7   -2.40    1.80
   3   0  -7    3.10    2.10
  -3   0   7    0.70    2.80
   3   0  -7    0.10    2.00
   3   0  -7   -0.60    2.80
   3   0  -7    5.20    2.50
   2   0  -7    0.20    2.10
  -2   0   7    3.00    2.90
   2   0  -7    1.40    3.20
   2   0  -7    0.70    2.00
   2   0  -7   -3.90    1.90
   2   0  -7    0.00    1.80
  -2   0   7   -2.30    1.90
   1   0  -7   -1.60    1.70
   1   0  -7    0.40    2.20
   1   0  -7    3.90    3.30
   1   0  -7    2.90    2.40
  -1   0   7   -4.80    1.90
   1   0  -7   -1.80    1.80
  -1   0   7    0.30    1.70
  -1   0   7   -1.00    2.30
   0   0   7   -2.20    2.00
   0   0  -7   -0.70    2.20
   0   0  -7   -1.70    1.80
   0   0   7    1.00    1.90
   0   0  -7    0.70    2.00
   0   0  -7    1.40    2.90
   0   0  -7    1.00    2.10
   0   0   7    0.60    1.80
   0   0   7   -0.60    1.40
   1   0   7   -2.70    2.10
   1   0   7    0.70    1.90
  -1   0  -7   -2.10    1.90
   1   0   7   -1.00    1.90
  -1   0  -7    4.80    2.30
   1   0   7   -2.50    2.20
  -1   0  -7    0.20    2.10
  -1   0  -7   -2.70    3.00
   1   0   7   -1.30    1.60
  -1   0  -7   -1.70    2.50
  -2   0  -7    0.00    2.20
  -2   0  -7   -2.00    3.50
   2   0   7   -1.60    2.40
   2   0   7   -1.40    2.50
   2   0   7    1.10    2.30
  -2   0  -7   -3.20    2.30
   2   0   7   -1.60    1.90
  -2   0  -7   -2.00    2.90
   2   0   7    0.80    2.20
  -2   0  -7   -0.50    2.20
  -3   0  -7    2.50    2.50
   3   0   7   -0.40    2.50
  -3   0  -7   -0.90    2.80
  -3   0  -7    1.60    2.60
   3   0   7   -0.80    2.20
   3   0   7   -1.70    2.50
  -3   0  -7   -1.80    3.00
  -3   0  -7    1.60    4.00
   3   0   7    4.20    3.10
   4   0   7    2.80    3.30
  -4   0  -7   -2.00    2.70
  -4   0  -7    1.70    3.40
  -4   0  -7   -6.00    2.70
   4   0   7    3.90    2.80
   4   0   7   -0.90    2.50
   4   0   7    1.90    2.90
  -4   0  -7    0.80    3.00
  -4   0  -7   -2.10    4.00
   5   0   7    7.90    3.60
  -5   0  -7   -8.70    3.90
  -5   0  -7    0.00    3.30
  -5   0  -7    0.50    3.30
   5   0   7    1.50    3.20
   5   0   7   -7.90    3.30
   5   0   7    1.60    2.90
  -5   0  -7   10.00    3.60
  -6  -1   7   65.49    9.60
   6  -1  -7   85.19    8.20
   6  -1  -7   77.89    6.80
   6  -1  -7  106.29   12.80
  -6  -1   7   70.79    7.50
  -6   1   7   87.49    8.10
   6   1  -7   90.39    9.80
   6   1  -7   81.29    9.20
  -6   1   7   90.49   10.70
   6   1  -7   75.29    6.30
  -5  -1   7    8.40    4.00
   5  -1  -7    3.40    3.80
   5  -1  -7   13.70    3.30
   5  -1  -7   23.90    4.40
   5  -1  -7   18.00    3.60
  -5  -1   7   10.60    3.60
   5   1  -7   18.40    4.10
   5   1  -7    9.50    4.00
   5   1  -7   21.50    4.30
  -5   1   7   13.50    3.60
  -5   1   7   17.60    4.80
   5   1  -7   11.40    2.80
  -4  -1   7   60.49    7.00
   4  -1  -7   80.09    7.10
   4  -1  -7   66.39    5.70
   4  -1  -7   69.19    5.70
  -4  -1   7   66.29    6.50
   4  -1  -7   61.69    6.40
  -4   1   7   63.09    6.80
  -4   1   7   63.49    6.30
   4   1  -7   78.39    7.10
   4   1  -7   63.59    6.80
   4   1  -7   69.49    5.30
   4   1  -7   63.59    5.20
   3  -1  -7  319.07   15.80
  -3  -1   7  311.67   17.00
   3  -1  -7  332.47   18.10
   3  -1  -7  325.07   16.00
   3  -1  -7  318.67   16.50
  -3  -1   7  329.27   15.40
   3  -1  -7  313.57   16.70
   3   1  -7  323.57   16.70
   3   1  -7  347.17   18.40
   3   1  -7  321.37   15.60
   3   1  -7  321.87   15.50
   3   1  -7  342.47   16.70
  -3   1   7  300.27   16.80
  -3   1   7  312.37   15.20
   2  -1  -7   82.69    6.00
  -2  -1   7   82.89    7.30
   2  -1  -7  101.29    6.70
   2  -1  -7   86.69    6.80
   2  -1  -7   87.59    8.40
   2  -1  -7   89.29    6.50
  -2  -1   7   84.49    5.80
  -2   1   7  100.49    7.30
   2   1  -7   85.49    6.20
   2   1  -7   86.69    6.80
   2   1  -7   95.89    9.30
   2   1  -7   85.99    6.10
  -2   1   7   97.99    6.70
   2   1  -7   76.59    5.50
  -2   1   7   88.69    5.90
   1  -1  -7   51.29    5.20
  -1  -1   7   53.69    4.40
  -1  -1   7   47.70    5.70
  -1  -1   7   53.79    4.80
   1  -1  -7   59.39    6.90
   1  -1  -7   55.79    4.80
   1  -1  -7   48.70    5.10
  -1  -1   7   51.29    4.70
   1  -1  -7   46.80    4.50
   1   1  -7   48.50    6.30
  -1   1   7   50.09    4.50
   1   1  -7   50.29    4.20
  -1   1   7   46.00    5.30
  -1   1   7   51.69    3.70
   1   1  -7   51.59    5.20
  -1   1   7   56.49    4.70
   1   1  -7   59.69    5.20
   1   1  -7   50.29    4.50
   0  -1  -7  672.83   31.00
   0  -1   7  608.74   28.60
   0  -1  -7  601.14   28.50
   0  -1  -7  611.54   29.50
   0  -1  -7  608.14   29.10
   0  -1   7  632.14   27.90
   0  -1   7  629.84   29.00
   0  -1   7  626.54   28.40
   0  -1  -7  622.84   28.80
   0   1   7  616.14   28.20
   0   1   7  613.24   28.90
   0   1  -7  624.24   28.20
   0   1  -7  594.84   30.70
   0   1  -7  626.04   29.30
   0   1   7  652.43   29.00
   0   1   7  657.63   28.90
   0   1  -7  632.94   28.90
   0   1  -7  644.24   28.60
   0   1   7  636.64   28.10
  -1  -1  -7  148.09   11.30
  -1  -1  -7  158.18    9.70
  -1  -1  -7  167.68    9.50
   1  -1   7  180.08    8.80
   1  -1   7  177.18    9.20
   1  -1   7  169.88    9.80
  -1  -1  -7  175.58   10.40
   1  -1   7  170.28    9.30
  -1  -1  -7  157.28    9.00
  -1  -1  -7  187.28    9.70
   1   1   7  177.88    9.80
  -1   1  -7  171.78    9.60
  -1   1  -7  175.68   10.40
   1   1   7  158.88    8.90
   1   1   7  169.68    9.80
  -1   1  -7  156.88    9.50
  -1   1  -7  167.58    9.30
   1   1   7  171.48    9.00
   1   1   7  161.18    9.40
  -1   1  -7  168.18   11.90
   2  -1   7   48.50    4.30
  -2  -1  -7   46.30    4.70
  -2  -1  -7   40.90    5.40
  -2  -1  -7   36.40    4.90
   2  -1   7   46.30    5.20
   2  -1   7   44.40    4.60
  -2  -1  -7   35.70    6.10
  -2  -1  -7   34.70    4.20
   2  -1   7   27.60    4.20
   2  -1   7   48.90    4.70
  -2   1  -7   38.70    6.30
  -2   1  -7   36.00    4.40
   2   1   7   46.50    4.40
  -2   1  -7   40.70    4.40
  -2   1  -7   41.50    4.60
   2   1   7   43.50    4.70
   2   1   7   43.20    4.60
   2   1   7   43.50    5.20
  -2   1  -7   38.90    5.30
  -3  -1  -7  273.67   15.60
   3  -1   7  266.77   14.40
   3  -1   7  271.97   14.10
  -3  -1  -7  266.57   14.60
  -3  -1  -7  295.17   15.00
   3  -1   7  297.87   14.70
  -3  -1  -7  273.57   14.30
  -3  -1  -7  270.47   16.70
   3  -1   7  283.67   14.70
   3  -1   7  267.07   15.10
  -3   1  -7  277.17   14.70
   3   1   7  268.27   14.50
   3   1   7  275.07   14.60
  -3   1  -7  285.77   17.30
   3   1   7  264.17   15.00
   3   1   7  270.37   14.20
  -3   1  -7  286.97   14.60
  -3   1  -7  268.17   14.40
  -3   1  -7  274.97   15.20
  -4  -1  -7   89.39    9.80
  -4  -1  -7   96.79    7.60
  -4  -1  -7   92.79    8.00
   4  -1   7   81.89    7.00
  -4  -1  -7   96.09    7.70
  -4  -1  -7  110.39    8.80
   4  -1   7   92.49    7.40
   4  -1   7   88.29    8.10
   4  -1   7  100.19    7.80
  -4   1  -7  101.79    8.00
   4   1   7   89.39    7.40
  -4   1  -7  104.49    8.00
   4   1   7   85.69    7.20
   4   1   7   97.79    7.60
  -4   1  -7   94.59    8.10
  -4   1  -7   96.09   10.10
   4   1   7   90.79    8.20
  -4   1  -7   92.59    7.70
  -5  -1  -7   -1.00    3.20
   5  -1   7    2.40    2.90
  -5  -1  -7    4.00    4.50
   5  -1   7    1.70    3.20
   5  -1   7   -1.50    3.10
  -5  -1  -7   -5.50    4.20
  -5  -1  -7    6.90    3.80
   5  -1   7    4.60    6.60
  -5   1  -7    1.60    7.70
   5   1   7    2.60    2.90
  -5   1  -7    4.90    3.80
   5   1   7    2.00    6.00
  -5   1  -7    3.30    3.90
   5   1   7    2.20    2.90
   5   1   7    0.50    3.20
   6  -2  -7   10.20    3.70
  -6  -2   7    5.50    3.30
  -6  -2   7   10.80    5.20
   6  -2  -7    8.10    3.20
   6  -2  -7    3.50    3.50
   6   2  -7    8.20    2.80
   6   2  -7    5.10    5.60
  -6   2   7    1.30    5.90
  -6   2   7    6.00    3.30
   5  -2  -7  133.59    8.60
   5  -2  -7  123.99    8.40
  -5  -2   7  118.29    9.80
  -5  -2   7  115.29    8.90
   5  -2  -7  127.59    9.90
   5  -2  -7  137.29    9.40
  -5   2   7  130.89    8.90
   5   2  -7  121.99    9.10
  -5   2   7  124.99    9.90
   5   2  -7  121.79    7.60
   5   2  -7  127.49   10.10
   4  -2  -7  251.97   13.20
   4  -2  -7  252.77   13.30
  -4  -2   7  234.68   13.80
  -4  -2   7  251.87   14.40
   4  -2  -7  266.77   14.30
   4  -2  -7  257.67   14.00
  -4   2   7  237.48   14.20
   4   2  -7  249.38   13.90
   4   2  -7  242.88   12.60
   4   2  -7  232.28   12.30
   4   2  -7  280.17   14.50
  -3  -2   7    4.60    3.20
  -3  -2   7   -4.60    1.80
   3  -2  -7    1.00    3.20
   3  -2  -7    3.10    2.50
   3  -2  -7   -1.60    2.00
   3  -2  -7   -0.60    2.70
   3  -2  -7   -0.70    2.00
   3   2  -7    5.10    1.90
   3   2  -7   -1.60    2.00
  -3   2   7   -1.30    2.60
  -3   2   7    1.30    1.80
   3   2  -7    0.50    1.70
   3   2  -7    4.00    3.60
  -3   2   7    1.10    2.60
   3   2  -7    1.50    1.80
   3   2  -7    0.70    2.60
   2  -2  -7  460.15   22.40
  -2  -2   7  506.25   21.80
   2  -2  -7  469.75   22.30
   2  -2  -7  452.55   22.10
  -2  -2   7  469.05   23.00
   2  -2  -7  486.85   22.80
   2  -2  -7  508.85   24.40
  -2   2   7  447.66   21.10
   2   2  -7  453.65   22.50
  -2   2   7  457.05   22.10
   2   2  -7  442.66   24.20
   2   2  -7  439.06   21.20
  -2   2   7  445.96   22.70
   2   2  -7  458.95   21.60
   2   2  -7  465.25   22.00
  -2   2   7  488.75   21.70
  -1  -2   7  587.24   29.20
   1  -2  -7  619.74   28.40
  -1  -2   7  643.14   28.10
   1  -2  -7  646.54   28.80
   1  -2  -7  611.64   28.90
   1  -2  -7  596.54   28.30
   1  -2  -7  649.54   30.40
  -1  -2   7  631.54   28.30
  -1   2   7  635.74   28.30
  -1   2   7  587.44   28.30
   1   2  -7  614.94   28.10
   1   2  -7  616.44   28.70
  -1   2   7  608.64   27.60
   1   2  -7  601.94   27.90
  -1   2   7  610.74   29.00
   1   2  -7  585.24   30.30
   1   2  -7  584.34   27.70
   0  -2   7    2.30    2.00
   0  -2  -7   -1.60    2.00
   0  -2  -7    0.80    2.40
   0  -2  -7    1.80    3.00
   0  -2   7   -2.20    2.10
   0  -2  -7    3.70    2.20
   0  -2  -7   -0.40    2.40
   0  -2   7   -0.20    1.60
   0   2  -7    1.80    1.80
   0   2  -7    3.30    2.50
   0   2  -7    1.70    3.10
   0   2   7   -3.60    1.80
   0   2  -7   -1.20    2.10
   0   2   7    2.60    2.00
   0   2   7    1.10    2.20
   0   2  -7   -2.00    1.90
   0   2  -7    1.50    1.50
   0   2   7    0.60    1.70
   1  -2   7  333.67   17.00
  -1  -2  -7  352.16   17.50
  -1  -2  -7  351.06   16.60
  -1  -2  -7  343.47   16.90
  -1  -2  -7  343.97   18.70
   1  -2   7  351.46   15.90
   1  -2   7  341.67   16.60
  -1  -2  -7  338.17   17.20
  -1  -2  -7  333.57   16.70
   1  -2   7  342.47   16.50
  -1   2  -7  329.47   16.80
  -1   2  -7  327.87   16.50
   1   2   7  358.36   16.20
   1   2   7  336.47   16.90
   1   2   7  316.67   16.30
  -1   2  -7  355.36   17.60
  -1   2  -7  329.57   16.70
   1   2   7  359.06   17.10
  -1   2  -7  312.67   19.00
   1   2   7  365.56   17.10
   2  -2   7  468.55   22.70
  -2  -2  -7  504.35   23.90
   2  -2   7  478.25   22.20
  -2  -2  -7  461.15   22.60
   2  -2   7  499.85   22.90
   2  -2   7  492.05   23.10
  -2  -2  -7  501.85   25.10
  -2  -2  -7  475.45   22.90
  -2  -2  -7  481.15   23.30
   2   2   7  466.55   22.50
  -2   2  -7  448.66   22.70
   2   2   7  478.65   22.90
  -2   2  -7  474.75   22.70
  -2   2  -7  472.65   23.70
   2   2   7  477.15   23.00
  -2   2  -7  459.15   22.80
  -2   2  -7  463.85   25.30
   2   2   7  501.45   23.40
  -3  -2  -7   50.89    5.90
   3  -2   7   45.90    4.60
   3  -2   7   45.80    5.10
  -3  -2  -7   49.40    5.10
  -3  -2  -7   52.19    6.40
   3  -2   7   38.60    4.90
  -3  -2  -7   40.00    5.00
   3  -2   7   39.70    5.10
  -3  -2  -7   51.79    7.10
   3   2   7   37.80    4.80
  -3   2  -7   43.00    5.50
   3   2   7   45.60    5.40
   3   2   7   48.50    5.50
  -3   2  -7   36.10    6.70
  -3   2  -7   50.39    5.30
  -3   2  -7   46.70    5.20
   3   2   7   47.00    5.00
  -3   2  -7   40.10    4.90
   4  -2   7   93.19    7.90
  -4  -2  -7  112.79    9.30
   4  -2   7  112.59    8.30
  -4  -2  -7  120.29   10.20
   4  -2   7  112.79    7.70
  -4  -2  -7  119.99    8.40
   4  -2   7  126.99    8.40
  -4  -2  -7  100.39    8.50
  -4   2  -7   89.59    7.90
  -4   2  -7  103.39    8.30
  -4   2  -7  119.79   11.60
   4   2   7  106.39    8.30
  -4   2  -7  105.39    8.30
   4   2   7  114.49    8.10
   4   2   7  108.49    7.80
   4   2   7  101.29    8.80
  -4   2  -7  110.79    8.50
  -5  -2  -7  218.48   13.30
  -5  -2  -7  241.78   13.90
   5  -2   7  225.58   12.80
   5  -2   7  225.38   12.70
  -5  -2  -7  201.88   15.10
   5  -2   7  220.58   17.00
   5   2   7  220.78   13.30
  -5   2  -7  210.88   14.20
   5   2   7  212.98   12.80
   5   2   7  198.68   12.60
  -5   2  -7  212.78   13.10
   6  -3  -7   17.80    4.40
   6  -3  -7   16.50    4.00
   6  -3  -7   12.70    4.10
  -6  -3   7   13.70    4.40
  -6   3   7    9.10    3.60
   6   3  -7   11.70    3.10
   5  -3  -7    3.50    2.90
   5  -3  -7    3.50    3.00
  -5  -3   7    4.00    3.10
   5  -3  -7    6.10    3.00
   5  -3  -7    4.70    3.80
  -5  -3   7    4.20    3.60
  -5   3   7    0.30    3.50
   5   3  -7    6.70    2.30
  -5   3   7    9.30    3.30
   5   3  -7    6.70    3.20
   5   3  -7    5.80    3.90
   4  -3  -7   11.10    3.30
   4  -3  -7   13.10    3.50
  -4  -3   7    8.90    3.30
   4  -3  -7   13.20    4.00
   4  -3  -7   10.30    3.10
  -4  -3   7   11.30    3.90
   4   3  -7    5.10    2.80
   4   3  -7   10.20    2.20
  -4   3   7   12.30    3.70
   4   3  -7   10.50    3.30
   4   3  -7   15.60    4.00
  -3  -3   7   74.09    6.50
   3  -3  -7   85.99    7.00
   3  -3  -7   82.29    6.80
  -3  -3   7   74.79    7.10
   3  -3  -7   79.39    6.30
   3  -3  -7   95.39    7.90
  -3  -3   7   79.19    5.60
   3  -3  -7   79.29    6.20
   3   3  -7   75.29    4.70
  -3   3   7   76.59    5.30
   3   3  -7   74.29    5.10
  -3   3   7   83.79    7.00
   3   3  -7   85.29    6.80
   3   3  -7   73.39    5.10
   3   3  -7   81.49    6.70
  -3   3   7   77.39    5.30
   3   3  -7   86.59    8.20
   2  -3  -7   32.00    4.00
   2  -3  -7   25.80    5.00
   2  -3  -7   23.40    4.00
  -2  -3   7   33.40    3.80
  -2  -3   7   35.60    5.10
  -2  -3   7   30.60    3.40
   2  -3  -7   22.50    3.80
   2  -3  -7   25.80    4.10
   2   3  -7   24.70    2.50
   2   3  -7   28.40    3.70
   2   3  -7   33.50    3.40
  -2   3   7   24.50    3.00
   2   3  -7   29.70    2.70
   2   3  -7   29.60    5.40
  -2   3   7   26.90    3.40
   2   3  -7   26.10    3.90
  -2   3   7   25.20    4.10
  -2   3   7   26.90    3.80
  -1  -3   7   35.60    4.90
   1  -3  -7   40.80    4.40
   1  -3  -7   44.50    5.00
   1  -3  -7   48.80    5.40
   1  -3  -7   41.70    4.70
   1  -3  -7   38.10    5.60
  -1  -3   7   33.80    4.00
   1   3  -7   35.50    5.60
  -1   3   7   44.10    3.80
   1   3  -7   32.90    3.50
   1   3  -7   41.20    3.40
  -1   3   7   35.40    4.10
  -1   3   7   43.00    4.50
   1   3  -7   40.60    3.80
   1   3  -7   35.00    4.30
  -1   3   7   44.20    3.90
  -1   3   7   43.60    5.00
   0  -3   7   62.89    5.10
   0  -3  -7   67.09    5.50
   0  -3  -7   79.49    7.10
   0  -3  -7   78.59    6.20
   0  -3  -7   69.79    5.40
   0  -3   7   65.19    5.60
   0  -3  -7   80.49    6.40
   0   3  -7   64.69    4.70
   0   3  -7   57.39    4.10
   0   3   7   59.39    5.20
   0   3  -7   74.49    5.80
   0   3   7   64.79    5.20
   0   3   7   61.79    5.50
   0   3  -7   82.19    6.00
   0   3   7   64.49    4.80
   0   3  -7   64.39    7.10
   0   3  -7   63.99    5.10
  -1  -3  -7   35.90    4.10
   1  -3   7   36.70    4.00
  -1  -3  -7   38.60    4.50
  -1  -3  -7   33.60    4.60
  -1  -3  -7   35.50    5.40
  -1  -3  -7   39.90    4.70
   1  -3   7   34.30    3.00
   1  -3   7   36.40    4.40
   1   3   7   28.80    3.50
  -1   3  -7   37.80    4.10
  -1   3  -7   30.60    3.60
   1   3   7   38.60    4.30
  -1   3  -7   36.00    4.70
   1   3   7   32.50    4.00
   1   3   7   40.50    4.40
  -1   3  -7   26.80    5.40
  -1   3  -7   37.20    4.50
   2  -3   7    4.70    2.80
  -2  -3  -7    6.20    3.90
   2  -3   7    4.50    2.00
  -2  -3  -7    3.00    2.30
  -2  -3  -7    1.70    3.20
   2  -3   7    4.60    2.80
  -2  -3  -7    0.30    2.50
  -2  -3  -7    5.50    2.90
   2  -3   7    4.00    2.80
   2   3   7    4.20    2.90
  -2   3  -7    3.90    4.20
  -2   3  -7    8.80    2.80
   2   3   7    4.90    2.60
  -2   3  -7    5.20    2.60
   2   3   7    4.00    2.30
  -2   3  -7    4.80    2.40
  -2   3  -7    2.50    3.20
   2   3   7    4.20    2.80
  -3  -3  -7   50.49    5.70
  -3  -3  -7   41.30    5.90
  -3  -3  -7   41.10    6.50
   3  -3   7   55.89    5.60
   3  -3   7   52.69    8.20
  -3  -3  -7   42.30    4.70
   3  -3   7   52.49    4.90
   3  -3   7   45.40    5.20
  -3  -3  -7   51.19    5.70
   3   3   7   56.19    5.80
  -3   3  -7   41.60    5.30
  -3   3  -7   51.09    5.30
  -3   3  -7   41.40    7.20
  -3   3  -7   38.50    4.80
  -3   3  -7   60.89    5.90
   3   3   7   56.29    5.30
   3   3   7   45.20    5.80
   3   3   7   47.70    5.30
  -4  -3  -7   31.50    5.60
   4  -3   7   31.70    4.30
   4  -3   7   24.60    4.70
  -4  -3  -7   24.70    4.70
  -4  -3  -7   14.20    5.10
   4  -3   7   28.40    4.60
  -4  -3  -7   23.40    4.40
  -4   3  -7   27.40    4.70
  -4   3  -7   15.50    5.90
  -4   3  -7   18.60    4.10
   4   3   7   31.80    4.50
   4   3   7   26.40    4.60
   4   3   7   23.70    4.80
  -4   3  -7   27.80    4.50
   4   3   7   20.10    3.90
  -5  -3  -7    1.30    3.60
   5  -3   7    5.30    3.20
  -5  -3  -7    2.30    4.50
   5  -3   7    0.30    2.90
   5  -3   7   -5.90    3.10
  -5  -3  -7    0.50    3.10
   5   3   7   -4.10    2.50
   5   3   7    5.30    3.40
  -5   3  -7   -2.50    3.60
  -5   3  -7    2.10    4.10
   5   3   7    3.50    3.30
   6  -4  -7    6.50    3.60
   6  -4  -7    0.20    4.80
   6  -4  -7    8.80    3.80
  -6   4   7    4.40    3.20
  -5  -4   7   45.40    6.20
   5  -4  -7   48.70    6.40
   5  -4  -7   44.70    5.70
   5  -4  -7   35.60    5.20
  -5  -4   7   34.60    5.20
   5  -4  -7   42.00    5.30
  -5   4   7   43.70    6.30
   5   4  -7   38.00    5.60
   5   4  -7   37.00    5.70
   4  -4  -7   68.69    7.00
  -4  -4   7   64.99    6.30
  -4  -4   7   61.39    7.00
   4  -4  -7   69.19    6.60
   4  -4  -7   74.59    7.00
   4  -4  -7   66.59    6.40
   4   4  -7   62.29    4.30
  -4   4   7   74.29    7.40
   4   4  -7   68.49    5.40
   4   4  -7   71.89    6.50
  -4   4   7   71.29    7.20
   4   4  -7   71.59    7.10
   3  -4  -7    3.60    3.00
  -3  -4   7    2.70    2.30
  -3  -4   7    3.10    2.80
  -3  -4   7   10.10    3.70
   3  -4  -7    4.70    3.50
   3  -4  -7    2.70    2.70
   3  -4  -7    3.70    2.70
   3  -4  -7    2.50    2.80
   3   4  -7    0.20    2.70
  -3   4   7    6.60    2.30
   3   4  -7    3.90    1.90
   3   4  -7   -0.10    2.40
  -3   4   7   -0.70    1.90
  -3   4   7   -0.80    2.30
  -3   4   7   -0.60    2.70
   3   4  -7   -1.90    3.10
  -3   4   7    2.60    2.90
   3   4  -7    5.50    1.40
   2  -4  -7   62.49    5.60
  -2  -4   7   69.99    5.40
   2  -4  -7   87.69    7.30
  -2  -4   7   74.59    7.40
   2  -4  -7   78.09    6.50
   2  -4  -7   85.49    8.30
   2  -4  -7   72.99    6.40
  -2  -4   7   63.49    5.50
   2   4  -7   63.19    4.90
  -2   4   7   67.29    6.30
  -2   4   7   76.09    5.50
  -2   4   7   76.69    5.80
   2   4  -7   66.79    4.10
   2   4  -7   74.99    6.10
   2   4  -7   68.19    5.60
   2   4  -7   64.09    4.40
   2   4  -7   78.39    8.50
  -2   4   7   64.49    6.30
  -2   4   7   75.59    5.20
  -1  -4   7  194.48   10.70
  -1  -4   7  195.18   11.70
   1  -4  -7  214.78   12.50
   1  -4  -7  194.98   10.90
   1  -4  -7  183.08   10.60
  -1  -4   7  209.88   10.80
   1  -4  -7  204.78   11.30
   1  -4  -7  199.18   11.30
   1   4  -7  181.68    9.90
   1   4  -7  172.48    9.30
  -1   4   7  205.18   10.10
   1   4  -7  185.68    9.90
  -1   4   7  194.58    9.90
  -1   4   7  181.88   10.80
   1   4  -7  205.78   10.90
   1   4  -7  188.78    9.40
  -1   4   7  186.68   10.60
  -1   4   7  206.48   10.50
  -1   4   7  208.08   11.50
   1   4  -7  182.38   12.30
   0  -4   7    4.90    2.40
   0  -4  -7    7.40    3.40
   0  -4   7   10.10    2.80
   0  -4  -7   -0.20    2.60
   0  -4  -7    1.10    2.60
   0  -4  -7    4.10    2.50
   0  -4  -7   10.60    2.90
   0   4  -7    2.40    2.50
   0   4   7    6.50    2.30
   0   4   7   10.60    2.90
   0   4  -7    7.40    2.20
   0   4   7    4.40    2.40
   0   4  -7    8.10    2.00
   0   4  -7    7.40    2.60
   0   4  -7    9.40    3.80
   0   4   7    4.20    2.50
  -1  -4  -7   89.29    6.60
  -1  -4  -7   84.49    6.40
  -1  -4  -7   82.39    7.00
  -1  -4  -7   93.59    7.90
   1  -4   7   83.09    6.20
   1  -4   7   84.19    6.60
  -1  -4  -7   89.59    7.40
   1   4   7   80.19    5.80
   1   4   7   95.99    6.60
  -1   4  -7   81.99    7.00
  -1   4  -7   84.09    6.00
  -1   4  -7   69.69    8.20
  -1   4  -7   89.79    6.70
   1   4   7   89.89    6.50
  -1   4  -7   87.49    5.70
  -2  -4  -7  209.18   12.60
  -2  -4  -7  215.08   13.30
   2  -4   7  222.08   12.00
  -2  -4  -7  199.88   11.20
   2  -4   7  219.68   11.80
   2  -4   7  208.38   10.60
  -2  -4  -7  211.78   11.80
  -2  -4  -7  210.38   12.30
   2   4   7  215.48   11.90
  -2   4  -7  211.28   14.40
   2   4   7  206.18   11.40
  -2   4  -7  183.08   12.10
   2   4   7  249.38   12.40
  -2   4  -7  213.38   11.40
  -2   4  -7  205.08   11.40
  -2   4  -7  220.58   11.90
  -3  -4  -7   -1.10    3.40
  -3  -4  -7   -0.70    2.80
  -3  -4  -7   -0.30    3.60
   3  -4   7    4.40    4.60
  -3  -4  -7   -0.40    2.30
   3  -4   7    2.70    2.20
  -3  -4  -7    5.30    2.80
   3  -4   7    7.50    3.20
  -3  -4  -7    1.90    2.80
   3  -4   7   -1.80    2.70
   3   4   7    2.30    2.50
  -3   4  -7    4.40    3.10
  -3   4  -7    1.60    2.70
   3   4   7    2.60    3.10
  -3   4  -7    4.10    4.60
   3   4   7    3.60    2.90
  -3   4  -7    1.70    2.90
  -3   4  -7    1.70    2.70
   3   4   7   -0.20    2.60
  -4  -4  -7   19.20    5.30
  -4  -4  -7   19.30    4.30
   4  -4   7   21.70    4.50
   4  -4   7   27.80    4.40
  -4  -4  -7   23.60    5.20
   4  -4   7   27.60    4.10
  -4  -4  -7   30.70    5.40
   4   4   7   27.90    4.50
   4   4   7   18.40    3.90
  -4   4  -7   29.60    4.70
   4   4   7   31.60    4.90
  -4   4  -7   24.80    4.70
   4   4   7   19.30    4.50
  -4   4  -7   23.90    4.30
  -4   4  -7   11.60    5.80
  -5  -4  -7   51.89    6.90
   5  -4   7   54.19    7.20
   5  -4   7   43.20    5.60
  -5  -4  -7   54.49    7.80
   5  -4   7   51.99    5.90
  -5  -4  -7   51.39    6.90
   5   4   7   43.90    5.60
   5   4   7   36.20    5.70
   6  -5  -7  126.49    9.70
   6  -5  -7  130.09    9.60
  -6   5   7  129.09    9.50
   5  -5  -7   14.20    3.90
   5  -5  -7   14.50    4.10
  -5  -5   7   12.40    4.30
   5  -5  -7   15.00    4.60
  -5  -5   7   15.40    3.80
   5  -5  -7   21.40    4.00
  -5   5   7   20.70    4.90
   5   5  -7   14.20    4.50
   5   5  -7   11.50    3.70
   4  -5  -7   81.29    7.10
   4  -5  -7   77.69    7.50
   4  -5  -7   70.69    6.60
  -4  -5   7   75.19    6.90
   4  -5  -7   78.19    7.00
  -4  -5   7   59.09    6.90
   4   5  -7   65.19    5.50
  -4   5   7   72.19    5.70
  -4   5   7   61.19    6.10
  -4   5   7   75.89    7.40
   4   5  -7   64.59    6.60
   4   5  -7   74.29    7.10
   3  -5  -7  416.76   20.80
  -3  -5   7  405.06   21.10
   3  -5  -7  431.06   21.10
   3  -5  -7  452.65   21.50
   3  -5  -7  445.86   21.40
  -3  -5   7  429.46   21.80
   3  -5  -7  454.75   22.40
  -3  -5   7  404.56   20.10
   3   5  -7  422.66   20.90
  -3   5   7  431.06   21.10
  -3   5   7  383.76   20.90
  -3   5   7  401.16   21.00
   3   5  -7  412.16   22.80
   3   5  -7  415.06   21.00
   3   5  -7  414.66   20.00
  -3   5   7  468.95   21.80
  -3   5   7  429.86   20.10
   2  -5  -7  115.09    7.80
  -2  -5   7  115.99    7.40
  -2  -5   7  122.49    7.60
   2  -5  -7  112.99    8.40
   2  -5  -7  125.29    8.40
   2  -5  -7  122.59    8.20
   2  -5  -7  132.19    9.50
  -2  -5   7  106.79    8.60
   2   5  -7  106.29    6.50
  -2   5   7  108.19    7.80
  -2   5   7  111.69    7.10
  -2   5   7  105.69    8.10
  -2   5   7  105.99    7.80
  -2   5   7  119.19    7.20
   2   5  -7  114.79    7.30
   2   5  -7   99.29    9.50
   2   5  -7  111.59    7.70
   1  -5  -7   22.40    3.60
  -1  -5   7   24.50    3.50
   1  -5  -7   19.20    3.60
   1  -5  -7   20.90    4.10
  -1  -5   7   24.40    3.80
   1  -5  -7   18.80    4.20
   1  -5  -7   21.30    4.00
  -1  -5   7   23.30    4.40
   1   5  -7   18.20    2.80
   1   5  -7   26.10    2.90
   1   5  -7   14.40    3.30
   1   5  -7   21.20    2.40
   1   5  -7   22.40    4.70
   1   5  -7   22.00    2.00
  -1   5   7   19.40    3.10
   1   5  -7   20.30    3.40
  -1   5   7   19.40    3.60
  -1   5   7   17.20    2.70
  -1   5   7   11.50    3.20
  -1   5   7   21.40    3.80
   0  -5  -7  934.31   43.90
   0  -5   7  977.10   43.60
   0  -5  -7  982.90   44.30
   0  -5  -7 1008.50   44.80
   0  -5  -7  965.40   43.70
   0  -5   7  990.80   43.50
   0  -5  -7  974.20   43.70
   0   5   7  987.30   43.90
   0   5   7  974.80   44.30
   0   5  -7  943.91   42.80
   0   5  -7  959.00   42.50
   0   5  -7  883.91   45.10
   0   5   7  997.70   43.40
   0   5  -7  974.70   43.60
   0   5  -7  904.21   43.40
   0   5   7  915.41   43.10
  -1  -5  -7  225.98   12.70
  -1  -5  -7  231.08   12.30
  -1  -5  -7  240.38   12.90
   1  -5   7  217.18   12.00
   1  -5   7  243.78   12.30
  -1  -5  -7  250.57   12.50
  -1  -5  -7  226.48   13.30
  -1   5  -7  210.68   14.20
   1   5   7  222.08   12.30
  -1   5  -7  221.78   11.40
  -1   5  -7  214.38   12.20
   1   5   7  209.58   11.70
  -1   5  -7  213.08   12.40
   1   5   7  223.08   12.40
  -1   5  -7  219.88   11.50
  -2  -5  -7   12.40    3.70
   2  -5   7   17.90    3.70
  -2  -5  -7   23.90    4.50
  -2  -5  -7   28.70    4.10
  -2  -5  -7   28.00    4.90
  -2  -5  -7   26.30    3.50
   2  -5   7   20.60    4.00
   2   5   7   24.50    4.10
  -2   5  -7   22.20    4.10
  -2   5  -7   21.70    4.00
   2   5   7   23.60    3.90
  -2   5  -7   32.00    6.20
  -2   5  -7   28.00    3.70
   2   5   7   21.90    3.60
   3  -5   7  381.36   19.60
   3  -5   7  407.46   20.00
  -3  -5  -7  369.46   19.30
  -3  -5  -7  396.16   20.50
   3  -5   7  415.46   20.20
  -3  -5  -7  374.66   19.70
  -3  -5  -7  388.46   20.30
  -3  -5  -7  407.26   21.00
  -3   5  -7  380.26   19.70
  -3   5  -7  376.56   19.30
   3   5   7  407.06   19.50
   3   5   7  376.76   19.80
  -3   5  -7  391.46   19.50
   3   5   7  404.36   20.30
  -3   5  -7  379.06   22.00
   4  -5   7  126.89    8.30
   4  -5   7  135.19    9.00
  -4  -5  -7  123.49    9.60
  -4  -5  -7  121.79    9.10
   4  -5   7  119.59    9.20
  -4  -5  -7  152.48   10.60
  -4  -5  -7  134.19   10.60
   4   5   7  111.19    9.20
  -4   5  -7  123.19    8.80
  -4   5  -7  123.89    9.30
   4   5   7  125.19    8.90
   4   5   7  132.59    9.20
  -4   5  -7  130.49    9.40
   4   5   7  121.39    8.80
  -4   5  -7  117.29   11.70
  -5  -5  -7   -3.40    3.80
  -5  -5  -7    5.90    4.20
   5  -5   7    2.50    3.30
   5   5   7   -0.90    3.00
  -5   5  -7   -1.10    3.10
  -5   5  -7   -0.70    3.50
   5   5   7   -2.20    3.20
   6  -6  -7    1.70    3.30
   5  -6  -7   44.80    6.10
  -5  -6   7   45.10    6.00
  -5  -6   7   45.40    6.50
   5  -6  -7   52.69    6.20
   5  -6  -7   47.00    6.10
   5  -6  -7   42.60    6.60
   5   6  -7   55.69    6.70
  -5   6   7   46.90    6.40
   5   6  -7   52.99    6.80
   5   6  -7   52.69    6.40
   4  -6  -7  130.59   10.00
   4  -6  -7  135.69    9.10
  -4  -6   7  116.49    8.80
   4  -6  -7  124.89    9.10
  -4  -6   7  128.79    9.70
   4  -6  -7  143.39    9.20
  -4   6   7  120.59    9.20
  -4   6   7  133.99    8.30
   4   6  -7  124.99   10.50
  -4   6   7  130.09    8.90
   4   6  -7  123.09    9.10
   4   6  -7  118.49    9.30
   4   6  -7  125.89    8.00
  -3  -6   7    2.40    2.80
   3  -6  -7    1.60    2.70
   3  -6  -7    3.00    3.30
   3  -6  -7    3.80    3.00
   3  -6  -7    7.00    3.10
   3  -6  -7   -2.30    3.10
  -3  -6   7    0.90    3.20
  -3  -6   7    0.40    2.20
  -3   6   7    1.20    2.30
   3   6  -7   -0.30    1.90
  -3   6   7    3.50    2.90
   3   6  -7    3.60    2.50
  -3   6   7   -0.90    2.60
   3   6  -7    2.00    3.70
  -3   6   7    5.20    2.70
   3   6  -7    2.40    2.70
  -2  -6   7  169.88   11.10
   2  -6  -7  167.38   10.90
   2  -6  -7  171.28   10.10
  -2  -6   7  183.98    9.90
   2  -6  -7  168.68   11.50
   2  -6  -7  170.98   10.50
   2  -6  -7  177.88   10.90
  -2  -6   7  181.48   10.30
  -2   6   7  169.78   10.60
  -2   6   7  149.69    9.90
  -2   6   7  167.28   10.30
  -2   6   7  177.08    9.60
   2   6  -7  164.08    9.60
   2   6  -7  177.58   10.10
   2   6  -7  151.08    8.90
   2   6  -7  187.48   12.50
  -1  -6   7  281.27   13.90
   1  -6  -7  290.37   14.70
   1  -6  -7  256.87   14.10
  -1  -6   7  268.77   14.20
   1  -6  -7  280.17   14.70
  -1  -6   7  258.87   14.80
   1  -6  -7  282.27   14.50
   1  -6  -7  264.67   15.00
   1   6  -7  249.68   13.00
  -1   6   7  273.57   13.20
   1   6  -7  246.38   15.40
  -1   6   7  276.57   14.20
  -1   6   7  260.87   13.50
   1   6  -7  284.97   14.10
  -1   6   7  276.67   14.80
   1   6  -7  259.97   13.80
   1   6  -7  250.27   13.10
  -1   6   7  251.17   13.80
   0  -6  -7    8.40    3.30
   0  -6  -7    8.30    2.90
   0  -6  -7    8.30    3.20
   0  -6  -7    9.70    3.20
   0  -6  -7    7.30    3.10
   0  -6   7    2.60    2.70
   0  -6   7    7.60    2.10
   0  -6   7    6.60    2.90
   0   6   7    5.70    2.90
   0   6  -7    4.20    3.60
   0   6  -7    5.10    2.50
   0   6   7    7.70    2.60
   0   6  -7    7.80    1.80
   0   6   7   15.50    3.30
   0   6   7    5.70    2.50
   0   6  -7    4.50    1.90
   0   6  -7    4.80    3.00
   1  -6   7   84.69    6.50
  -1  -6  -7   80.99    7.00
  -1  -6  -7   83.39    6.70
   1  -6   7   78.99    6.70
  -1  -6  -7   81.79    6.40
  -1  -6  -7   82.49    7.60
  -1  -6  -7   79.29    7.40
   1   6   7   80.29    6.90
   1   6   7   81.89    6.50
  -1   6  -7   72.89    5.30
  -1   6  -7   71.29    7.90
   1   6   7   69.29    6.20
   1   6   7   71.69    6.00
  -1   6  -7   68.49    6.40
  -1   6  -7   74.09    5.70
  -1   6  -7   95.09    6.90
  -2  -6  -7  266.17   14.30
  -2  -6  -7  285.07   15.20
  -2  -6  -7  270.17   15.00
   2  -6   7  272.47   14.50
  -2  -6  -7  265.97   14.90
   2  -6   7  288.27   14.20
  -2  -6  -7  238.88   13.30
  -2   6  -7  262.57   16.40
  -2   6  -7  265.37   13.70
   2   6   7  279.17   14.70
  -2   6  -7  243.58   14.10
   2   6   7  255.77   13.90
  -2   6  -7  254.37   13.70
  -2   6  -7  266.27   14.30
   2   6   7  285.77   14.60
  -3  -6  -7   30.30    5.30
  -3  -6  -7   28.60    4.80
  -3  -6  -7   31.80    5.30
  -3  -6  -7   33.20    5.70
   3  -6   7   42.90    5.20
  -3  -6  -7   26.10    4.20
  -3   6  -7   42.30    5.10
  -3   6  -7   31.20    4.40
  -3   6  -7   32.70    6.60
   3   6   7   30.10    5.10
   3   6   7   39.70    5.20
   3   6   7   37.10    4.80
  -3   6  -7   28.40    4.70
  -4  -6  -7   36.20    5.80
   4  -6   7   32.10    5.30
  -4  -6  -7   26.40    5.00
  -4  -6  -7   31.20    4.50
  -4  -6  -7   26.00    5.60
  -4  -6  -7   24.20    4.80
  -4   6  -7   23.40    4.80
   4   6   7   31.40    4.80
  -4   6  -7   26.90    4.50
   4   6   7   31.10    5.30
  -4   6  -7   21.10    6.30
  -4   6  -7   27.70    5.10
   4   6   7   35.80    5.10
  -4   6  -7   26.30    4.70
   5  -6   7  102.79    9.00
  -5  -6  -7   77.79    9.00
  -5   6  -7   85.59    8.70
  -5   6  -7   95.99    9.10
   6  -7  -7    0.30    3.50
  -5  -7   7    3.00    3.60
   5  -7  -7   -5.10    3.50
   5  -7  -7    1.00    3.30
   5  -7  -7    3.50    3.30
  -5  -7   7    2.50    3.10
   5  -7  -7   -4.00    2.90
  -5   7   7   -0.40    3.30
   5   7  -7    2.80    3.10
  -5   7   7    2.70    3.30
   5   7  -7    3.00    3.00
   5   7  -7   -2.20    3.60
   4  -7  -7    6.40    3.50
  -4  -7   7   10.20    4.10
  -4  -7   7    9.50    3.50
   4  -7  -7   21.30    4.30
   4  -7  -7   10.70    4.30
   4  -7  -7    9.40    3.60
  -4   7   7   12.00    3.20
   4   7  -7   14.70    3.80
  -4   7   7   16.80    3.50
   4   7  -7   14.20    4.60
   4   7  -7    9.00    3.80
   4   7  -7    9.20    2.90
  -4   7   7   14.90    3.90
   3  -7  -7    3.40    3.10
   3  -7  -7    1.80    3.30
   3  -7  -7    1.80    3.40
   3  -7  -7    0.80    2.80
   3  -7  -7    3.50    3.30
  -3  -7   7   -2.80    2.90
  -3  -7   7    3.30    2.90
  -3  -7   7   -0.10    2.50
   3   7  -7   -2.30    2.30
  -3   7   7    1.00    2.70
  -3   7   7    0.00    2.90
   3   7  -7    1.70    2.60
   3   7  -7    2.00    2.50
  -3   7   7    5.00    2.90
  -3   7   7    1.00    2.50
   3   7  -7   -3.20    3.20
   3   7  -7    2.00    2.20
  -2  -7   7   -0.60    2.40
   2  -7  -7    2.60    2.90
  -2  -7   7   -3.20    2.60
   2  -7  -7   -2.20    2.90
   2  -7  -7    6.00    3.90
   2  -7  -7   -4.00    2.80
  -2  -7   7   -3.40    3.00
   2  -7  -7    4.70    2.70
   2   7  -7    1.50    2.30
  -2   7   7   -0.20    2.70
  -2   7   7    3.10    2.80
   2   7  -7    0.20    2.20
   2   7  -7    0.90    2.20
   2   7  -7   -1.30    3.30
  -2   7   7    1.50    2.50
   2   7  -7    3.40    2.70
  -2   7   7   -0.70    2.40
   2   7  -7    0.90    1.90
   1  -7  -7    0.00    2.90
  -1  -7   7    2.60    2.80
   1  -7  -7    2.90    3.00
   1  -7  -7   -0.40    2.60
   1  -7  -7   -1.20    2.70
  -1  -7   7    1.80    2.50
   1  -7  -7    0.20    2.60
   1   7  -7   -0.70    1.80
   1   7  -7    0.90    1.90
  -1   7   7   -1.90    2.30
  -1   7   7    0.50    2.00
   1   7  -7    2.30    2.20
  -1   7   7    2.20    2.40
  -1   7   7   -0.50    2.50
   1   7  -7   -0.30    2.40
  -1   7   7    2.50    2.40
   1   7  -7    4.70    3.20
   0  -7  -7   18.40    3.70
   0  -7   7   20.60    3.80
   0  -7   7   20.80    3.70
   0  -7  -7   17.30    3.90
   0  -7  -7   18.90    3.90
   0  -7  -7    8.80    3.40
   0  -7  -7   18.90    4.00
   0  -7   7   19.00    2.90
   0   7  -7   17.20    2.20
   0   7  -7   18.70    3.20
   0   7   7   14.90    3.50
   0   7  -7   16.60    2.60
   0   7   7   21.30    3.90
   0   7  -7   30.80    5.30
   0   7   7   19.70    3.30
   0   7   7   16.90    3.20
   0   7  -7   15.40    3.50
  -1  -7  -7    5.70    3.20
   1  -7   7    0.70    2.60
  -1  -7  -7    1.60    2.80
  -1  -7  -7    2.30    3.00
   1  -7   7    0.20    2.70
  -1  -7  -7    1.90    2.60
   1   7   7    2.70    2.50
   1   7   7   -1.00    2.50
  -1   7  -7   -1.60    3.10
  -1   7  -7    3.10    2.00
   1   7   7    1.10    2.70
   1   7   7    3.60    2.70
  -1   7  -7    0.10    2.60
  -1   7  -7    0.50    2.00
  -1   7  -7   -1.70    2.50
   2  -7   7   27.00    4.50
  -2  -7  -7   25.00    4.40
  -2  -7  -7   26.40    4.80
   2  -7   7   29.20    4.50
  -2  -7  -7   26.60    4.70
  -2  -7  -7   25.60    3.60
  -2  -7  -7   25.30    4.70
  -2   7  -7   24.10    3.70
   2   7   7   28.80    4.40
  -2   7  -7   23.00    4.20
   2   7   7   28.40    4.10
  -2   7  -7   34.60    6.00
   2   7   7   31.30    4.80
  -2   7  -7   26.70    3.90
  -3  -7  -7    3.50    3.40
  -3  -7  -7    7.20    3.60
  -3  -7  -7    1.60    2.90
  -3  -7  -7    2.20    3.40
   3  -7   7    1.90    3.30
  -3  -7  -7    1.80    2.90
   3  -7   7    1.40    3.20
   3   7   7    4.70    2.90
  -3   7  -7    0.40    2.50
  -3   7  -7    6.20    3.70
   3   7   7    3.60    3.20
  -3   7  -7    3.80    3.00
  -3   7  -7    2.20    4.40
   3   7   7    0.70    3.00
   4  -7   7   -3.00    3.20
  -4  -7  -7   -3.80    3.30
  -4  -7  -7   -1.80    3.30
  -4  -7  -7   -3.90    3.20
  -4  -7  -7   -2.90    2.80
  -4  -7  -7   -2.90    2.60
   4  -7   7    1.80    3.10
   4   7   7    0.90    3.20
  -4   7  -7    3.40    3.40
  -4   7  -7    6.10    4.90
  -4   7  -7    3.40    3.30
   4   7   7    2.60    3.10
  -4   7  -7    2.10    2.80
   4   7   7    2.10    3.50
  -4   7  -7   -1.50    3.20
  -5  -7  -7    3.50    4.20
   5  -7   7    1.90    3.60
  -5   7  -7    4.50    3.80
   5  -8  -7   74.49    7.70
  -5  -8   7   83.19    8.60
   5  -8  -7   56.99    7.70
   5  -8  -7   79.99    7.70
  -5  -8   7   68.59    7.30
   5  -8  -7   80.19    7.80
   5   8  -7   66.59    7.50
   5   8  -7   79.19    7.10
  -5   8   7   77.39    8.50
  -5   8   7   82.99    7.00
   5   8  -7   84.29    8.30
   4  -8  -7  101.59    9.40
   4  -8  -7   94.19    7.90
   4  -8  -7   89.19    7.80
  -4  -8   7   85.19    8.00
   4  -8  -7   92.79    8.20
  -4  -8   7  108.59    8.70
  -4   8   7   98.39   10.70
   4   8  -7   89.09    7.80
  -4   8   7   78.79    7.20
  -4   8   7   92.79    7.90
   4   8  -7   97.69    7.10
   4   8  -7  101.09    9.60
   4   8  -7   83.89    8.10
  -4   8   7   98.09    7.90
   3  -8  -7    1.70    3.40
   3  -8  -7   -0.70    3.30
  -3  -8   7    1.10    2.80
   3  -8  -7    2.00    3.00
  -3  -8   7    2.80    2.70
   3  -8  -7    2.70    3.60
  -3  -8   7    2.10    3.70
   3  -8  -7    5.10    3.10
  -3   8   7    0.30    2.80
   3   8  -7    5.60    2.50
   3   8  -7    2.40    2.70
   3   8  -7    0.40    2.70
   3   8  -7    2.90    2.40
   3   8  -7    0.30    2.60
   3   8  -7    6.10    4.20
  -3   8   7    3.20    3.10
  -3   8   7    4.00    2.90
   3   8  -7   -0.90    2.30
  -3   8   7    4.20    2.90
   2  -8  -7  187.48   11.70
   2  -8  -7  182.08   11.40
   2  -8  -7  172.68   11.00
   2  -8  -7  162.08   10.40
  -2  -8   7  157.48    9.90
  -2  -8   7  161.68   11.10
   2  -8  -7  179.18   11.40
  -2  -8   7  139.29   10.40
  -2   8   7  155.98    9.80
   2   8  -7  162.18    9.70
   2   8  -7  175.58   10.20
  -2   8   7  182.98   11.10
   2   8  -7  173.38   12.10
  -2   8   7  181.08   10.00
   2   8  -7  165.88   10.00
   2   8  -7  160.18    9.40
   2   8  -7  166.58   10.00
  -2   8   7  167.48   10.50
   1  -8  -7  291.47   15.10
   1  -8  -7  285.37   15.40
  -1  -8   7  256.67   14.40
   1  -8  -7  298.97   15.40
  -1  -8   7  269.07   14.80
   1  -8  -7  288.27   14.20
   1  -8  -7  289.67   15.20
  -1  -8   7  270.97   14.60
   1  -8  -7  293.97   15.30
  -1   8   7  251.87   14.10
   1   8  -7  274.07   13.80
  -1   8   7  265.37   14.40
   1   8  -7  269.97   14.00
   1   8  -7  291.07   14.70
  -1   8   7  294.27   15.70
   1   8  -7  275.07   16.10
  -1   8   7  279.37   14.90
   1   8  -7  274.57   14.20
  -1   8   7  283.17   14.00
   0  -8  -7    1.50    2.70
   0  -8  -7    2.60    2.70
   0  -8  -7    1.20    2.90
   0  -8   7    2.50    2.10
   0  -8   7    1.70    2.70
   0  -8   7   -2.00    2.50
   0  -8  -7   -0.10    2.60
   0  -8  -7    2.80    2.90
   0   8  -7    0.80    2.70
   0   8   7    4.00    3.00
   0   8   7   -1.00    2.40
   0   8   7    2.00    2.60
   0   8   7   -4.20    2.30
   0   8  -7    3.00    3.30
   0   8  -7    1.60    1.30
   0   8  -7    1.70    2.00
  -1  -8  -7  163.68   10.10
  -1  -8  -7  155.78   10.30
  -1  -8  -7  159.08   10.40
  -1  -8  -7  160.48    9.90
   1  -8   7  163.78   10.00
   1  -8   7  158.68    9.80
  -1   8  -7  164.98   10.00
   1   8   7  161.98    9.80
  -1   8  -7  139.39   10.90
   1   8   7  157.28    9.80
  -1   8  -7  142.19    8.30
  -1   8  -7  161.38    8.70
   1   8   7  143.59   10.30
   1   8   7  160.48    9.50
  -1   8  -7  146.19    9.50
  -2  -8  -7  282.87   16.40
   2  -8   7  290.87   16.20
  -2  -8  -7  304.27   16.40
  -2  -8  -7  296.87   16.70
  -2  -8  -7  278.37   16.10
   2  -8   7  306.47   16.20
  -2   8  -7  300.67   17.80
   2   8   7  314.67   16.40
  -2   8  -7  318.77   16.30
  -2   8  -7  285.37   15.10
  -2   8  -7  311.57   15.50
   2   8   7  299.57   15.80
   2   8   7  314.57   16.60
  -2   8  -7  317.17   17.30
   2   8   7  318.07   16.40
  -3  -8  -7    1.70    3.50
   3  -8   7    1.70    3.10
   3  -8   7    2.70    3.40
  -3  -8  -7    4.80    3.30
  -3  -8  -7    3.30    2.90
  -3  -8  -7    6.80    3.70
  -3  -8  -7    1.80    3.20
  -3   8  -7   -2.50    3.20
   3   8   7    3.70    2.80
   3   8   7    2.10    3.10
  -3   8  -7    3.00    4.20
  -3   8  -7    2.00    3.10
  -3   8  -7   -1.90    2.90
  -3   8  -7    3.70    2.80
   3   8   7    1.50    3.40
  -4  -8  -7   63.39    7.20
  -4  -8  -7   45.70    6.30
  -4  -8  -7   58.19    7.10
  -4  -8  -7   64.19    7.60
   4  -8   7   51.79    6.40
  -4  -8  -7   55.69    5.90
   4  -8   7   54.69    6.70
   4   8   7   59.89    6.90
  -4   8  -7   50.39    6.10
   4   8   7   55.49    6.80
   4   8   7   54.79    6.20
  -4   8  -7   53.39    8.20
  -4   8  -7   56.49    6.50
  -4   8  -7   46.40    6.10
  -4   8  -7   61.79    7.20
   5  -9  -7   11.80    4.70
   5  -9  -7   15.50    4.20
  -5  -9   7    8.70    4.30
   5   9  -7    1.10    3.50
  -5   9   7    8.60    4.10
  -5   9   7    9.30    3.60
   5   9  -7    9.20    3.50
   5   9  -7    7.60    4.20
   4  -9  -7   53.19    6.90
   4  -9  -7   41.50    5.80
   4  -9  -7   35.40    5.30
  -4  -9   7   40.00    6.10
   4  -9  -7   41.20    6.30
  -4  -9   7   30.20    5.00
   4  -9  -7   41.20    6.10
  -4   9   7   37.20    5.40
   4   9  -7   40.50    4.80
   4   9  -7   43.10    5.70
  -4   9   7   40.70    5.40
  -4   9   7   49.10    5.60
   4   9  -7   35.00    4.70
   4   9  -7   34.30    5.50
   4   9  -7   46.20    7.10
  -4   9   7   44.60    6.20
   3  -9  -7  182.38   11.50
  -3  -9   7  176.58   10.80
  -3  -9   7  177.78   12.30
   3  -9  -7  214.18   12.00
  -3  -9   7  169.98   11.30
   3  -9  -7  206.18   12.80
   3  -9  -7  193.38   12.20
   3  -9  -7  193.18   12.40
  -3   9   7  160.48   10.80
   3   9  -7  189.48   11.40
  -3   9   7  197.38   11.90
   3   9  -7  166.08   10.50
  -3   9   7  193.48   11.10
   3   9  -7  195.88   11.30
   3   9  -7  185.18   11.10
  -3   9   7  197.78   12.10
   3   9  -7  218.38   11.10
   3   9  -7  175.28   11.20
   3   9  -7  196.38   13.60
   2  -9  -7   84.69    7.50
  -2  -9   7   54.79    6.50
   2  -9  -7   68.09    7.10
  -2  -9   7   62.59    7.10
   2  -9  -7   65.19    7.10
   2  -9  -7   66.39    6.60
  -2  -9   7   65.89    6.00
   2   9  -7   62.99    5.80
   2   9  -7   61.29    5.60
  -2   9   7   67.29    6.30
   2   9  -7   62.79    5.90
   2   9  -7   82.89    8.70
  -2   9   7   66.99    6.70
  -2   9   7   69.29    6.30
  -2   9   7   60.19    6.70
   2   9  -7   55.89    6.00
   2   9  -7   73.89    6.40
   2   9  -7   61.69    6.10
   1  -9  -7   15.80    3.20
   1  -9  -7   11.30    3.50
  -1  -9   7   14.80    3.60
   1  -9  -7   19.10    4.30
  -1  -9   7    9.60    3.00
   1  -9  -7   10.40    3.20
   1  -9  -7    9.20    3.50
  -1  -9   7    9.30    3.70
   1  -9  -7   13.20    4.10
  -1   9   7   16.20    3.50
   1   9  -7   13.50    3.60
   1   9  -7   14.40    3.00
   1   9  -7   16.10    3.90
  -1   9   7   11.20    3.70
   1   9  -7   11.50    2.80
   1   9  -7   10.20    2.90
  -1   9   7   15.60    4.80
  -1   9   7   11.40    3.50
  -1   9   7   16.20    3.20
   1   9  -7   17.70    4.40
   0  -9   7  371.66   19.80
   0  -9   7  415.46   20.50
   0  -9  -7  407.96   20.80
   0  -9  -7  415.86   20.90
   0  -9   7  417.66   20.50
   0  -9  -7  402.66   20.60
   0  -9  -7  397.06   20.40
   0  -9  -7  418.26   20.80
   0   9   7  421.76   20.30
   0   9   7  420.96   20.80
   0   9  -7  398.26   19.70
   0   9  -7  407.86   21.50
   0   9   7  411.76   20.20
   0   9  -7  417.66   21.80
   0   9  -7  428.06   20.50
   0   9   7  416.06   21.30
  -1  -9  -7  123.39    8.50
  -1  -9  -7  123.79    8.70
   1  -9   7  138.99    8.80
  -1  -9  -7  112.19    8.90
  -1  -9  -7  125.79    9.40
   1  -9   7  106.19    8.50
   1   9   7  140.69    9.60
  -1   9  -7  132.29    9.80
   1   9   7  119.89    8.30
   1   9   7  132.09    8.90
   1   9   7  142.59    8.80
  -1   9  -7  112.69    6.90
  -1   9  -7  117.09    8.70
  -1   9  -7  111.29    9.70
  -2  -9  -7   13.60    3.70
   2  -9   7   12.70    3.80
  -2  -9  -7   16.70    4.10
  -2  -9  -7   11.30    4.10
   2  -9   7   13.20    3.70
  -2  -9  -7   12.70    3.60
   2   9   7    8.80    3.40
   2   9   7   13.50    3.90
   2   9   7   17.60    4.10
  -2   9  -7    9.30    4.30
   2   9   7   20.60    4.00
  -2   9  -7   13.40    3.10
  -2   9  -7   22.80    4.60
  -2   9  -7   15.40    3.50
  -2   9  -7    8.30    3.80
  -3  -9  -7  164.88   11.40
  -3  -9  -7  176.48   11.20
  -3  -9  -7  155.28   10.10
   3  -9   7  166.08   10.90
  -3  -9  -7  138.99   10.90
  -3  -9  -7  153.88   10.70
   3  -9   7  181.28   11.30
  -3   9  -7  170.28   12.00
   3   9   7  182.68   11.50
   3   9   7  176.58   11.10
  -3   9  -7  162.88   10.20
  -3   9  -7  169.78   10.50
   3   9   7  158.68   10.30
  -3   9  -7  169.98   12.60
  -3   9  -7  153.78   10.90
  -4  -9  -7   80.09    7.00
   4  -9   7   66.69    8.40
  -4  -9  -7   76.49    8.80
  -4  -9  -7   60.49    6.80
  -4  -9  -7   80.69    9.90
   4  -9   7   72.59    7.30
  -4   9  -7   69.59    7.20
  -4   9  -7   61.69    6.70
   4   9   7   89.89    8.40
  -4   9  -7   55.49    7.20
  -4   9  -7   74.89    9.10
  -4   9  -7   76.99   11.00
   5 -10  -7    2.20    3.50
  -5 -10   7    0.60    3.90
   5  10  -7    2.50    4.10
   5  10  -7    4.20    3.20
  -5  10   7    0.70    3.00
  -5  10   7    3.30    3.70
   5  10  -7    1.10    4.50
   4 -10  -7   10.50    4.50
  -4 -10   7   21.20    5.00
   4 -10  -7   19.40    4.60
   4 -10  -7   10.80    4.70
  -4 -10   7   12.30    3.80
   4 -10  -7   14.50    4.50
   4 -10  -7    9.50    4.00
  -4  10   7   13.90    4.00
   4  10  -7   10.50    3.90
   4  10  -7   12.30    3.40
   4  10  -7   14.80    3.90
   4  10  -7   16.70    5.20
  -4  10   7    8.80    3.50
  -4  10   7   12.50    4.60
   4  10  -7   17.60    3.60
  -4  10   7    8.70    3.80
   3 -10  -7    0.60    3.50
   3 -10  -7   -3.00    3.80
   3 -10  -7    3.60    3.40
  -3 -10   7    8.50    4.20
   3 -10  -7    0.70    3.60
  -3 -10   7   -0.10    3.00
  -3 -10   7    0.50    2.90
   3 -10  -7    1.00    3.40
   3  10  -7   -6.40    3.60
  -3  10   7    5.00    3.40
   3  10  -7    3.90    2.90
  -3  10   7    0.60    3.10
   3  10  -7   -0.40    2.40
  -3  10   7   -3.20    2.80
   3  10  -7    3.00    2.50
   3  10  -7   -2.30    2.60
   3  10  -7   -2.20    2.40
  -3  10   7   -0.60    2.60
   3  10  -7    6.30    3.10
   2 -10  -7    9.90    4.10
   2 -10  -7    3.30    3.50
   2 -10  -7    8.90    3.60
  -2 -10   7   10.80    3.40
   2 -10  -7    9.30    3.70
   2 -10  -7    9.80    4.00
  -2 -10   7    8.90    3.30
  -2 -10   7    3.00    3.50
   2  10  -7   11.30    3.10
   2  10  -7    5.70    2.80
   2  10  -7   11.70    3.30
   2  10  -7   11.00    3.50
  -2  10   7   14.30    3.90
  -2  10   7    9.80    2.90
   2  10  -7    9.40    3.30
  -2  10   7   13.80    3.50
  -2  10   7    8.80    3.80
   2  10  -7    7.30    3.10
   2  10  -7   12.50    4.50
   1 -10  -7   17.60    4.10
  -1 -10   7   15.70    3.80
   1 -10  -7   21.80    4.80
  -1 -10   7   18.60    3.70
   1 -10  -7   16.10    4.00
   1 -10  -7   15.40    4.00
   1 -10  -7   18.60    3.80
   1 -10  -7   21.50    3.80
  -1 -10   7   14.70    3.90
  -1  10   7   21.70    3.90
   1  10  -7   19.90    3.60
  -1  10   7   17.90    4.10
   1  10  -7   17.60    4.60
   1  10  -7   16.40    3.90
   1  10  -7   15.60    4.10
   1  10  -7   18.80    3.20
  -1  10   7   18.50    4.30
   0 -10  -7    3.90    3.40
   0 -10   7    5.20    3.20
   0 -10  -7    5.00    3.10
   0 -10   7    9.30    3.30
   0 -10  -7    9.40    3.50
   0 -10  -7    9.60    3.50
   0 -10   7    5.20    2.60
   0 -10  -7    5.50    2.90
   0  10  -7    0.40    3.10
   0  10  -7    0.90    3.10
   0  10   7    8.20    3.20
   0  10   7    4.50    3.20
   0  10   7    6.70    3.50
   0  10   7    4.70    2.90
   0  10  -7    3.40    3.20
   1 -10   7   -0.10    2.90
  -1 -10  -7    2.40    3.00
   1 -10   7    6.90    3.20
  -1 -10  -7   -2.20    2.90
  -1 -10  -7   -1.20    2.40
  -1 -10  -7    2.70    3.00
  -1  10  -7   -1.90    3.20
  -1  10  -7   -1.70    1.60
   1  10   7    0.00    2.40
   1  10   7    3.30    3.20
  -1  10  -7    0.90    3.10
  -1  10  -7    0.30    3.00
   1  10   7   -1.60    3.00
   1  10   7   -0.60    2.70
  -2 -10  -7   43.90    5.70
  -2 -10  -7   41.40    5.60
   2 -10   7   31.80    5.10
  -2 -10  -7   29.90    4.80
   2 -10   7   28.70    5.00
   2  10   7   37.50    5.00
  -2  10  -7   36.60    4.60
  -2  10  -7   25.30    5.20
  -2  10  -7   27.50    4.90
  -2  10  -7   34.20    4.10
   2  10   7   40.00    5.50
  -2  10  -7   32.00    5.70
   2  10   7   34.40    5.10
   2  10   7   47.50    5.90
  -3 -10  -7    7.00    3.20
   3 -10   7    7.00    3.80
  -3 -10  -7   10.40    3.90
   3 -10   7    6.40    3.80
  -3 -10  -7    9.50    3.80
  -3 -10  -7    5.00    3.50
   3  10   7    5.70    3.20
  -3  10  -7    9.70    3.20
  -3  10  -7   -2.20    3.90
  -3  10  -7    1.50    3.50
  -3  10  -7    5.10    3.80
   3  10   7    5.50    3.30
   3  10   7    8.00    3.90
  -3  10  -7    9.40    3.60
   3  10   7    5.60    3.50
  -4 -10  -7    4.00    3.20
   4 -10   7   -2.60    3.30
  -4 -10  -7    2.10    3.40
  -4  10  -7   -0.40    3.80
  -4  10  -7    2.60    5.00
  -4  10  -7   -0.70    3.50
  -5 -11   7    4.30    4.40
   5  11  -7   -3.00    3.90
  -5  11   7    2.20    3.80
   5  11  -7    4.00    3.40
  -5  11   7    5.00    4.10
   4 -11  -7   21.80    4.90
   4 -11  -7    9.00    4.40
   4 -11  -7   15.60    4.50
  -4 -11   7   10.30    4.70
   4 -11  -7   19.30    5.50
  -4 -11   7   15.00    4.10
  -4  11   7   20.70    4.90
   4  11  -7   15.50    3.90
  -4  11   7   20.80    4.40
  -4  11   7   12.40    4.20
   4  11  -7   18.30    4.60
   4  11  -7   16.20    4.30
   4  11  -7   27.20    5.80
  -4  11   7   22.80    4.80
   3 -11  -7   56.99    7.70
   3 -11  -7   53.09    7.50
  -3 -11   7   45.70    5.50
  -3 -11   7   54.79    7.10
  -3 -11   7   56.59    6.30
   3 -11  -7   61.09    7.00
   3 -11  -7   52.59    6.20
   3  11  -7   40.30    5.40
   3  11  -7   44.40    5.80
  -3  11   7   52.39    6.00
  -3  11   7   42.80    6.10
   3  11  -7   50.39    7.40
   3  11  -7   49.20    5.80
  -3  11   7   58.19    7.60
  -3  11   7   52.59    6.60
   3  11  -7   52.69    6.00
   3  11  -7   60.09    5.80
   3  11  -7   54.79    6.00
   2 -11  -7    6.30    3.50
   2 -11  -7   12.00    4.20
  -2 -11   7   12.90    3.70
  -2 -11   7    4.00    3.80
   2 -11  -7    1.50    3.30
  -2 -11   7    5.70    3.40
   2 -11  -7   12.00    3.70
   2 -11  -7   10.20    4.50
   2  11  -7    7.40    3.10
  -2  11   7   11.70    3.70
  -2  11   7   16.00    4.40
   2  11  -7    5.00    2.80
  -2  11   7   11.20    4.00
   2  11  -7    9.80    3.40
   2  11  -7   10.80    3.30
   2  11  -7   13.00    3.40
   2  11  -7    9.90    4.50
   2  11  -7    6.00    3.10
   1 -11  -7   25.80    4.60
   1 -11  -7   25.80    5.20
  -1 -11   7   32.10    5.10
  -1 -11   7   26.70    4.40
   1 -11  -7   20.00    4.10
   1 -11  -7   17.90    3.80
   1 -11  -7   28.30    5.00
  -1 -11   7   21.60    4.00
   1  11  -7   25.00    4.10
  -1  11   7   22.80    4.80
   1  11  -7   22.00    3.50
   1  11  -7   14.80    3.90
   1  11  -7   20.40    4.00
  -1  11   7   24.60    4.50
   1  11  -7   31.60    5.40
  -1  11   7   13.00    3.60
   1  11  -7   12.80    3.90
   0 -11   7   88.09    7.70
   0 -11   7   86.69    7.10
   0 -11  -7   96.99    8.50
   0 -11  -7  101.89    7.90
   0 -11  -7   88.89    7.60
   0 -11   7   84.49    7.70
   0 -11  -7  100.99    8.40
   0  11   7  106.69    7.90
   0  11   7   91.79    8.80
   0  11  -7  102.99    7.90
   0  11  -7   92.99    8.40
   0  11   7  104.29    8.10
   0  11   7  105.49    7.60
   0  11  -7   89.59    8.70
  -1 -11  -7   23.60    4.80
  -1 -11  -7   19.30    4.20
  -1 -11  -7   24.70    4.50
   1 -11   7   22.20    4.40
   1 -11   7   15.50    4.20
  -1  11  -7   31.60    5.10
  -1  11  -7   16.90    4.50
   1  11   7   28.60    4.80
   1  11   7   19.30    4.50
   1  11   7   29.20    4.90
   1  11   7   26.20    4.30
  -1  11  -7   18.40    2.60
  -1  11  -7   23.90    4.90
  -2 -11  -7   26.30    5.20
  -2 -11  -7   24.80    4.80
   2 -11   7   25.50    4.80
  -2 -11  -7   21.10    4.50
   2 -11   7   29.50    5.10
   2  11   7   40.60    5.80
  -2  11  -7   15.60    4.70
   2  11   7   30.20    4.70
  -2  11  -7   22.10    3.50
   2  11   7   26.00    5.10
  -2  11  -7   31.50    5.40
   2  11   7   20.00    4.60
  -2  11  -7   20.30    4.50
  -3 -11  -7   52.99    6.40
  -3 -11  -7   58.19    7.00
   3 -11   7   54.59    6.40
  -3 -11  -7   49.10    5.70
  -3 -11  -7   49.80    6.70
   3 -11   7   41.30    6.20
   3  11   7   50.49    6.40
   3  11   7   63.29    6.50
   3  11   7   38.30    5.90
  -3  11  -7   50.99    7.50
   3  11   7   61.09    6.80
  -3  11  -7   49.30    6.70
  -3  11  -7   54.99    6.20
  -3  11  -7   61.59    5.80
  -3  11  -7   48.10    6.50
  -4 -11  -7   11.30    4.50
  -4 -11  -7    9.10    3.60
  -4  11  -7   11.90    4.20
  -4  11  -7    8.20    6.70
   4 -12  -7   46.00    6.40
  -4 -12   7   43.00    6.10
  -4 -12   7   62.99    7.70
  -4  12   7   51.89    7.10
   4  12  -7   51.99    6.70
   4  12  -7   57.29    6.30
   4  12  -7   50.79    6.50
  -4  12   7   62.69    7.20
   4  12  -7   46.70    7.70
  -4  12   7   49.99    6.20
   3 -12  -7    2.30    3.50
  -3 -12   7   -4.20    3.60
   3 -12  -7    0.90    4.10
   3 -12  -7    5.40    4.70
   3 -12  -7    1.70    3.80
  -3 -12   7   -3.10    3.00
   3  12  -7   -0.80    2.70
   3  12  -7   -0.70    2.80
  -3  12   7   -3.30    3.10
   3  12  -7   -1.10    3.00
   3  12  -7    0.40    2.90
  -3  12   7    1.90    3.60
  -3  12   7   -0.20    3.10
   3  12  -7    4.60    3.00
   3  12  -7   -2.70    2.70
   3  12  -7   -3.80    3.40
  -2 -12   7  111.29    9.00
  -2 -12   7  105.99    8.70
   2 -12  -7  142.89   10.70
   2 -12  -7  110.49    9.30
   2 -12  -7  124.49    9.30
   2 -12  -7  113.59    9.40
   2 -12  -7  127.09    9.20
  -2 -12   7  130.69    9.90
  -2  12   7  136.89   10.50
   2  12  -7  120.39    8.60
   2  12  -7  122.69    8.60
   2  12  -7  131.09   10.10
  -2  12   7  117.99    9.40
  -2  12   7  120.59    8.80
   2  12  -7  120.69    9.40
   2  12  -7  123.19    8.80
   2  12  -7  118.29    9.00
   2  12  -7  118.59    8.30
  -1 -12   7  142.09    9.70
   1 -12  -7  154.18   10.50
   1 -12  -7  164.58   11.10
   1 -12  -7  159.38   10.40
   1 -12  -7  141.29   10.30
  -1 -12   7  143.29    9.90
  -1 -12   7  153.98   10.40
   1 -12  -7  161.08   10.20
  -1  12   7  138.49   10.10
  -1  12   7  153.68   11.30
   1  12  -7  136.29   10.70
   1  12  -7  146.49   10.30
   1  12  -7  153.28   10.90
  -1  12   7  147.89    9.90
   1  12  -7  157.08    9.80
   1  12  -7  146.69    9.90
   0 -12  -7   -2.30    3.10
   0 -12   7   -0.80    3.10
   0 -12  -7    9.60    3.60
   0 -12   7    0.20    2.60
   0 -12  -7    4.00    3.10
   0 -12   7    8.30    3.30
   0 -12  -7    1.10    3.40
   0  12   7   -4.60    2.90
   0  12   7    4.00    3.20
   0  12   7   -0.20    3.10
   0  12  -7    0.90    3.20
   0  12   7    1.10    3.60
   0  12  -7    5.20    3.80
   0  12  -7   -4.00    3.00
  -1 -12  -7   84.69    7.70
   1 -12   7   93.19    7.90
  -1 -12  -7   88.19    8.20
   1 -12   7   84.79    8.00
  -1 -12  -7   78.59    7.70
   1  12   7   75.19    7.60
  -1  12  -7   87.29    8.30
   1  12   7  100.09    8.40
   1  12   7   71.39    7.80
  -1  12  -7   95.49    8.30
   1  12   7   81.09    7.40
  -1  12  -7   85.19    8.60
  -2 -12  -7  134.69   10.10
   2 -12   7  137.89   10.10
   2 -12   7  143.89   10.30
  -2 -12  -7  135.09    9.60
  -2 -12  -7  131.59   10.20
  -2 -12  -7  141.69   10.00
   2  12   7  132.29    9.70
  -2  12  -7  147.19   10.70
   2  12   7  152.88   10.70
  -2  12  -7  138.69   10.80
  -2  12  -7  151.98    8.60
   2  12   7  149.69   10.40
   2  12   7  174.58   11.20
  -2  12  -7  136.39   11.20
  -3 -12  -7    5.70    3.90
  -3 -12  -7    6.60    3.20
  -3 -12  -7    5.90    3.60
   3 -12   7    7.40    4.10
   3  12   7    3.00    5.90
  -3  12  -7    1.70    4.20
  -3  12  -7    6.40    3.30
   3  12   7    6.20    3.40
   3  12   7    5.20    4.30
  -4 -13   7   17.20    5.30
   4  13  -7    8.10    3.60
   4  13  -7    5.90    3.90
   4  13  -7   10.10    4.00
  -4  13   7    9.10    4.40
  -4  13   7   10.40    4.70
   3 -13  -7   20.90    5.10
   3 -13  -7   29.10    6.10
  -3 -13   7   20.50    4.30
   3 -13  -7   33.10    5.60
   3 -13  -7   21.30    5.20
  -3 -13   7   24.40    5.00
  -3  13   7   22.50    4.80
  -3  13   7   27.10    5.50
   3  13  -7   36.60    5.20
   3  13  -7   27.40    4.70
  -3  13   7   19.30    5.10
   3  13  -7   30.90    6.40
   3  13  -7   26.10    4.90
   3  13  -7   31.70    5.10
   3  13  -7   19.20    5.00
   2 -13  -7    7.60    3.80
   2 -13  -7    4.00    4.10
  -2 -13   7    3.70    3.70
   2 -13  -7    9.90    4.10
  -2 -13   7    8.30    3.70
   2 -13  -7   12.60    4.30
  -2 -13   7    8.60    3.70
   2 -13  -7   16.30    4.00
   2  13  -7    9.30    3.60
  -2  13   7   12.50    4.10
   2  13  -7   20.30    4.20
  -2  13   7    6.10    3.90
  -2  13   7   13.50    4.30
   2  13  -7   13.20    3.60
   2  13  -7   19.50    4.30
   2  13  -7   25.30    5.00
   1 -13  -7    2.40    3.40
  -1 -13   7   -3.40    2.80
   1 -13  -7    5.40    4.10
   1 -13  -7   -3.00    2.60
  -1 -13   7    2.00    3.50
   1 -13  -7    0.00    3.60
  -1 -13   7    1.90    3.40
   1  13  -7    1.60    3.20
  -1  13   7    6.50    3.10
   1  13  -7   -1.80    2.90
  -1  13   7    1.00    3.70
  -1  13   7    3.50    3.20
   1  13  -7   -0.90    3.10
   1  13  -7    6.00    3.20
   1  13  -7   -1.20    3.10
   0 -13  -7   53.29    6.50
   0 -13   7   60.69    6.60
   0 -13  -7   51.49    6.40
   0 -13   7   57.59    6.20
   0 -13  -7   46.00    5.60
   0 -13   7   60.49    6.60
   0 -13  -7   45.30    5.90
   0  13   7   51.49    6.00
   0  13   7   60.39    6.80
   0  13   7   41.20    6.50
   0  13   7   58.79    6.40
   0  13  -7   56.19    6.40
   0  13  -7   47.60    6.60
   0  13  -7   60.59    6.80
  -1 -13  -7   36.70    5.40
  -1 -13  -7   26.90    5.10
   1 -13   7   22.10    4.70
  -1 -13  -7   36.80    5.10
   1 -13   7   33.30    5.10
   1  13   7   26.80    5.30
  -1  13  -7   24.20    5.00
   1  13   7   28.30    5.10
  -1  13  -7   19.00    5.00
   1  13   7   30.50    5.30
  -1  13  -7   34.60    5.80
   1  13   7   20.20    4.40
  -2 -13  -7    4.80    3.40
  -2 -13  -7    6.20    3.80
   2 -13   7    4.60    3.70
  -2 -13  -7    4.90    3.40
   2 -13   7    0.20    3.50
  -2 -13  -7   -1.00    3.10
  -2  13  -7   -1.60    3.40
  -2  13  -7    1.00    3.80
  -2  13  -7   -0.30    3.70
   2  13   7    6.80    3.60
   2  13   7    1.10    3.20
  -2  13  -7    3.90    2.50
   2  13   7    5.80    3.50
   2  13   7    3.20    3.80
  -3 -13  -7   21.00    4.80
  -3  13  -7   23.40    4.00
  -3  13  -7   22.70    5.70
   3  13   7   21.90    4.60
  -3 -14   7   -0.40    3.40
   3 -14  -7   -2.20    3.90
  -3 -14   7   -2.70    2.80
   3 -14  -7    1.70    3.80
  -3  14   7    2.20    4.20
   3  14  -7   -1.40    2.90
   3  14  -7   -2.80    3.00
   3  14  -7   -2.30    2.90
   2 -14  -7   10.70    4.70
  -2 -14   7    5.30    3.50
   2 -14  -7   10.20    3.90
  -2 -14   7    7.00    3.00
   2 -14  -7    4.90    3.80
  -2 -14   7    5.60    4.20
  -2 -14   7    5.90    3.70
   2 -14  -7    9.80    4.10
   2 -14  -7    6.60    4.00
   2  14  -7    7.90    3.70
   2  14  -7   10.10    3.90
   2  14  -7    7.70    3.80
  -2  14   7    4.30    3.50
  -2  14   7   16.80    4.70
  -2  14   7   10.80    4.30
   2  14  -7    7.40    3.40
   1 -14  -7    9.00    3.90
   1 -14  -7   16.30    4.60
   1 -14  -7    8.50    3.90
  -1 -14   7    7.30    3.80
  -1 -14   7   10.20    3.90
   1 -14  -7    8.90    3.90
  -1 -14   7    7.20    3.70
  -1  14   7   10.40    3.60
  -1  14   7    7.70    3.80
   1  14  -7   10.50    3.90
   1  14  -7   10.70    4.20
   1  14  -7    8.30    3.70
   1  14  -7   14.80    4.30
  -1  14   7   10.80    4.50
   0 -14  -7    4.30    3.30
   0 -14  -7    2.50    3.00
   0 -14  -7    0.90    3.70
   0 -14   7    3.50    3.40
   0 -14   7    1.70    2.90
   0 -14   7    0.70    3.30
   0 -14  -7    7.60    4.00
   0  14   7    2.50    3.90
   0  14  -7    3.40    3.30
   0  14  -7    1.70    3.70
   0  14   7    9.10    3.40
   0  14   7    7.40    3.60
   0  14   7    5.70    4.00
   0  14  -7    1.80    3.60
  -1 -14  -7    8.20    3.30
  -1 -14  -7   12.90    4.40
   1 -14   7    2.70    3.50
  -1 -14  -7    3.50    3.50
   1 -14   7    6.50    3.80
  -1  14  -7    9.10    4.50
   1  14   7   12.00    3.90
   1  14   7    4.40    4.00
   1  14   7    0.90    3.30
  -1  14  -7    5.20    3.80
   1  14   7    9.00    4.40
  -2 -14  -7    2.80    3.50
   2  14   7    6.00    4.40
   2  14   7    4.10    4.00
  -3 -15   7   66.69    8.40
   3 -15  -7   68.69    8.50
   3  15  -7   65.69    7.30
   3  15  -7   52.39    7.10
   2 -15  -7    7.80    4.50
   2 -15  -7   10.90    4.50
  -2 -15   7   15.00    4.60
  -2 -15   7    4.00    5.20
   2 -15  -7   18.90    5.10
  -2 -15   7   15.70    3.90
   2  15  -7   16.10    4.60
   2  15  -7   14.80    4.40
   2  15  -7   13.10    4.20
   2  15  -7   17.20    4.20
  -2  15   7   16.40    4.90
   1 -15  -7    7.50    4.70
   1 -15  -7   16.20    4.30
   1 -15  -7   19.00    5.10
  -1 -15   7   10.40    4.10
  -1 -15   7   11.40    4.30
  -1  15   7   15.80    4.40
   1  15  -7   12.50    4.10
   1  15  -7    8.80    4.10
   1  15  -7    7.50    3.80
   1  15  -7   10.30    4.30
   0 -15  -7   79.39    7.90
   0 -15   7   79.19    8.00
   0 -15  -7   96.69    8.80
   0 -15  -7   63.29    8.00
   0 -15   7   82.79    7.90
   0  15   7   72.39    7.70
   0  15  -7   73.49    8.20
   0  15  -7   77.59    7.80
   0  15  -7   72.49    9.10
  -1 -15  -7   24.10    6.60
  -1 -15  -7   13.80    4.10
   1  15   7   12.70    4.60
  -2 -15  -7    2.60    3.40
  -1 -16   7   33.80    5.80
   1 -16  -7   38.50    6.20
   1  16  -7   41.70    6.20
   1  16  -7   48.00    6.30
   0 -16  -7    0.90    4.00
   0 -16   7   -1.60    3.40
   0 -16  -7    2.20    3.60
   0  16  -7   -1.50    3.90
   6   0  -8   75.19    6.80
   5   0  -8    8.20    3.50
  -5   0   8    9.60    4.40
   5   0  -8    0.70    3.60
  -5   0   8    5.40    3.50
   5   0  -8    5.90    2.80
   4   0  -8  201.88   13.40
   4   0  -8  174.48   11.40
  -4   0   8  175.08   11.70
   4   0  -8  161.58   11.10
   4   0  -8  179.48   10.30
   4   0  -8  175.28    9.90
  -3   0   8  240.38   11.90
   3   0  -8  227.78   12.30
   3   0  -8  223.58   13.10
   3   0  -8  231.08   12.90
   3   0  -8  244.98   15.20
   3   0  -8  219.58   11.90
  -3   0   8  223.68   13.50
   2   0  -8    4.00    2.30
   2   0  -8    5.10    2.70
   2   0  -8   13.80    3.50
  -2   0   8   13.60    4.00
   2   0  -8    5.50    4.00
  -2   0   8    6.10    2.70
   2   0  -8    2.10    2.90
   1   0  -8  133.99    8.10
   1   0  -8  140.09   10.50
   1   0  -8  137.49    8.00
   1   0  -8  133.39    9.10
  -1   0   8  143.79    8.60
  -1   0   8  135.39    9.40
   1   0  -8  139.89    8.70
   0   0  -8  378.66   18.90
   0   0   8  415.36   19.50
   0   0  -8  393.26   19.30
   0   0   8  398.86   18.30
   0   0  -8  390.76   19.90
   0   0  -8  382.06   18.70
   0   0  -8  401.26   21.30
   1   0   8   32.80    4.30
  -1   0  -8   22.30    4.40
  -1   0  -8   32.40    4.40
  -1   0  -8   30.30    4.00
  -1   0  -8   35.70    4.60
   1   0   8   25.90    3.20
  -1   0  -8   28.60    5.80
   1   0   8   21.90    3.30
  -2   0  -8  109.29    7.70
  -2   0  -8   95.09   10.20
   2   0   8  110.79    8.20
   2   0   8  104.59    7.30
  -2   0  -8  111.29    7.70
   2   0   8  106.79    6.90
  -2   0  -8  105.59    7.80
  -2   0  -8  106.99    9.10
   2   0   8  104.19    7.70
  -3   0  -8  297.47   16.40
  -3   0  -8  314.97   19.40
  -3   0  -8  284.77   17.40
   3   0   8  325.37   17.20
   3   0   8  321.37   16.30
  -3   0  -8  317.37   16.70
   3   0   8  319.17   15.90
  -3   0  -8  306.97   16.30
   3   0   8  322.17   16.50
   4   0   8   14.80    4.40
  -4   0  -8   17.60    4.90
   4   0   8   21.30    4.30
   4   0   8   18.90    3.90
  -4   0  -8   11.70    5.60
  -4   0  -8   19.80    4.50
  -4   0  -8   13.70    4.40
  -4   0  -8   26.30    4.70
   6  -1  -8   15.90    3.80
   6   1  -8   14.50    3.40
   5  -1  -8   55.99    5.80
   5  -1  -8   49.30    6.30
   5  -1  -8   34.70    4.70
  -5  -1   8   44.50    5.90
   5  -1  -8   48.10    6.50
  -5  -1   8   56.29    7.50
   5   1  -8   38.50    5.60
   5   1  -8   40.20    4.40
   5   1  -8   42.60    6.20
  -5   1   8   38.30    6.40
  -4  -1   8   27.70    5.20
   4  -1  -8   17.70    3.70
   4  -1  -8   15.30    3.30
   4  -1  -8   14.90    3.90
   4  -1  -8   25.60    4.80
   4  -1  -8   20.40    5.30
   4   1  -8   24.90    4.80
   4   1  -8   27.30    5.90
  -4   1   8   20.00    4.50
   4   1  -8   19.70    4.10
   4   1  -8   24.00    3.20
   3  -1  -8   27.60    4.50
   3  -1  -8   35.30    6.30
  -3  -1   8   25.00    3.50
   3  -1  -8   33.50    4.10
   3  -1  -8   26.70    4.10
  -3  -1   8   25.60    4.80
   3  -1  -8   31.20    4.70
  -3   1   8   40.10    5.70
  -3   1   8   33.40    3.70
   3   1  -8   34.40    4.70
   3   1  -8   29.60    3.50
   3   1  -8   33.00    6.40
   3   1  -8   31.20    4.10
   3   1  -8   26.20    4.30
   2  -1  -8  120.99    8.50
   2  -1  -8  120.79    7.50
   2  -1  -8  138.09   10.70
  -2  -1   8  121.19    7.50
   2  -1  -8  121.89    8.70
  -2  -1   8  120.89    9.00
   2  -1  -8  114.69    8.00
   2   1  -8  112.39    7.80
   2   1  -8  130.39   10.30
   2   1  -8  119.79    8.20
   2   1  -8  112.49    8.50
  -2   1   8  111.19    8.60
   2   1  -8  105.59    6.90
  -2   1   8  129.09    7.60
  -1  -1   8   30.40    4.10
   1  -1  -8   50.89    6.60
   1  -1  -8   41.20    5.10
   1  -1  -8   36.30    4.20
   1  -1  -8   40.10    4.60
   1  -1  -8   36.20    4.10
  -1  -1   8   30.10    5.00
  -1   1   8   41.20    4.60
  -1   1   8   38.00    5.30
   1   1  -8   37.50    3.80
   1   1  -8   29.70    3.80
   1   1  -8   49.90    6.70
   1   1  -8   57.29    5.10
   1   1  -8   32.50    4.50
   0  -1  -8   14.20    3.10
   0  -1  -8   14.90    3.30
   0  -1  -8   12.50    3.50
   0  -1  -8    8.00    2.70
   0  -1   8   12.80    2.60
   0  -1   8   12.50    3.30
   0  -1  -8    7.80    3.90
   0   1  -8   12.70    2.80
   0   1  -8   12.70    3.20
   0   1   8   13.20    2.30
   0   1  -8    8.90    4.10
   0   1  -8   11.70    3.60
   0   1   8   16.30    3.30
  -1  -1  -8   89.39    9.30
   1  -1   8   80.49    6.60
  -1  -1  -8   86.59    7.80
   1  -1   8   82.89    6.00
  -1  -1  -8   83.19    6.50
  -1  -1  -8  103.09    7.10
   1  -1   8   84.79    5.30
  -1  -1  -8   81.29    6.50
   1   1   8   87.59    6.80
  -1   1  -8   82.89    6.60
   1   1   8   87.29    6.40
  -1   1  -8   79.49    7.40
   1   1   8   71.39    6.50
  -1   1  -8   73.19    6.40
  -1   1  -8   69.29    8.40
   1   1   8   86.49    5.70
   1   1   8   80.09    5.60
  -1   1  -8   85.19    6.30
   2  -1   8   99.09    6.30
  -2  -1  -8  100.79    7.30
   2  -1   8   96.09    7.40
  -2  -1  -8   94.69    8.60
  -2  -1  -8   97.19    7.30
  -2  -1  -8  104.39    7.70
  -2  -1  -8  105.39   10.10
   2  -1   8  102.39    6.90
  -2   1  -8   93.59    7.20
   2   1   8   87.59    7.20
   2   1   8   87.79    6.70
  -2   1  -8   94.49    7.00
   2   1   8   93.29    6.50
  -2   1  -8   73.99    9.30
  -2   1  -8  103.29    7.30
   2   1   8   92.79    7.60
   2   1   8   83.89    7.00
  -2   1  -8  101.39    8.70
  -3  -1  -8    5.20    3.10
   3  -1   8    8.30    2.70
  -3  -1  -8    4.60    2.90
   3  -1   8    2.20    3.20
  -3  -1  -8    1.70    4.00
  -3  -1  -8    2.60    3.20
   3  -1   8    9.20    3.20
  -3  -1  -8    0.60    4.30
  -3   1  -8    4.80    3.10
  -3   1  -8    1.80    2.80
   3   1   8    2.50    3.00
   3   1   8    8.10    2.80
  -3   1  -8    1.90    3.70
   3   1   8    2.00    3.00
   3   1   8    5.30    3.30
  -3   1  -8    6.20    3.20
  -3   1  -8   -3.00    4.20
  -4  -1  -8   59.19    7.20
   4  -1   8   56.69    5.80
  -4  -1  -8   43.20    6.40
  -4  -1  -8   36.00    5.50
  -4  -1  -8   41.90    7.80
   4  -1   8   46.20    5.60
   4  -1   8   52.59    6.10
   4   1   8   55.99    5.80
  -4   1  -8   44.30    5.80
   4   1   8   44.00    5.90
  -4   1  -8   57.79    6.90
  -4   1  -8   52.19    6.30
  -4   1  -8   40.60    7.80
   4   1   8   38.50    5.80
  -4   1  -8   45.30    6.00
   4   1   8   51.09    5.90
  -6   2   8    5.80    4.90
   5  -2  -8   -0.80    3.50
  -5  -2   8    1.20    3.50
   5  -2  -8   -3.60    2.60
  -5  -2   8    7.00    3.40
   5  -2  -8    1.50    2.90
   5  -2  -8   -0.20    2.90
  -5   2   8    0.50    3.70
   5   2  -8   -1.10    2.00
   5   2  -8   -7.70    3.10
   5   2  -8    4.60    3.40
   4  -2  -8   14.70    3.60
  -4  -2   8   14.30    4.40
   4  -2  -8   16.00    3.40
   4  -2  -8   13.70    4.70
   4  -2  -8   17.40    4.20
   4  -2  -8   14.10    4.30
   4   2  -8   17.20    3.90
   4   2  -8   10.20    4.10
   4   2  -8   20.80    5.70
   4   2  -8   19.50    3.00
  -4   2   8   12.70    4.20
   3  -2  -8   16.50    4.90
  -3  -2   8   23.40    4.90
   3  -2  -8   21.80    3.90
  -3  -2   8   14.50    3.00
   3  -2  -8   16.80    3.90
   3  -2  -8   19.00    3.60
   3  -2  -8   22.40    4.30
   3   2  -8   19.20    3.90
   3   2  -8   20.80    5.40
   3   2  -8   20.70    4.00
  -3   2   8   16.70    4.10
   3   2  -8   20.60    2.80
   2  -2  -8    1.40    3.70
  -2  -2   8   -6.20    2.90
   2  -2  -8    0.10    2.60
   2  -2  -8    0.40    2.70
   2  -2  -8   -0.40    3.00
   2  -2  -8    0.80    2.10
  -2   2   8    0.30    3.00
   2   2  -8   -2.50    2.10
   2   2  -8    0.80    2.50
   2   2  -8    0.30    1.70
   2   2  -8    2.70    2.80
  -2   2   8   -0.30    2.20
   1  -2  -8   48.80    5.00
   1  -2  -8   36.60    5.00
  -1  -2   8   37.10    5.60
  -1  -2   8   47.60    4.70
   1  -2  -8   39.30    5.80
   1  -2  -8   44.40    5.10
   1  -2  -8   39.70    4.50
   1   2  -8   44.80    4.60
  -1   2   8   45.10    3.70
   1   2  -8   35.30    3.90
  -1   2   8   40.20    5.30
   1   2  -8   41.30    5.10
   1   2  -8   47.40    4.10
   1   2  -8   55.19    6.70
  -1   2   8   48.70    4.80
   0  -2  -8   19.70    4.10
   0  -2   8   18.10    3.10
   0  -2  -8   19.50    3.40
   0  -2  -8   18.50    4.40
   0  -2  -8   19.90    3.20
   0  -2  -8   20.30    3.90
   0  -2   8   23.90    3.90
   0   2  -8   18.10    3.00
   0   2  -8   14.60    4.40
   0   2  -8   21.90    3.90
   0   2   8   16.80    3.30
   0   2   8   19.70    3.40
   0   2  -8   21.90    3.40
   0   2   8   16.40    2.70
   0   2  -8   16.20    3.90
   0   2   8   16.80    3.60
  -1  -2  -8    3.10    2.80
   1  -2   8    4.10    2.90
  -1  -2  -8    2.70    2.60
  -1  -2  -8    0.40    2.80
  -1  -2  -8    7.20    4.20
  -1  -2  -8    3.20    2.50
   1  -2   8    0.00    2.40
  -1   2  -8   -2.10    2.30
   1   2   8   -2.00    2.60
  -1   2  -8    0.70    2.40
  -1   2  -8    2.80    2.30
   1   2   8    2.10    2.40
  -1   2  -8    3.50    3.40
  -1   2  -8    3.30    4.10
   1   2   8    1.90    2.00
   1   2   8    2.10    2.70
   2  -2   8   16.40    3.70
  -2  -2  -8   10.60    4.20
  -2  -2  -8   14.20    5.10
   2  -2   8   16.80    3.20
  -2  -2  -8   14.70    3.50
  -2  -2  -8   13.60    3.60
   2  -2   8   19.20    3.60
  -2  -2  -8   16.00    4.00
   2   2   8   14.60    3.20
   2   2   8   11.50    3.60
   2   2   8   16.50    3.70
  -2   2  -8   11.60    3.40
   2   2   8   13.70    3.50
  -2   2  -8   17.10    3.50
  -2   2  -8   18.20    3.80
   2   2   8   15.50    3.20
  -2   2  -8   13.00    4.40
  -2   2  -8   12.50    5.30
  -3  -2  -8   19.20    4.20
   3  -2   8   22.00    3.60
   3  -2   8   20.70    4.20
   3  -2   8   24.80    4.40
  -3  -2  -8   20.50    4.30
  -3  -2  -8   19.00    5.20
  -3  -2  -8   28.30    4.30
  -3  -2  -8   26.40    6.00
  -3   2  -8   15.40    4.70
   3   2   8   24.20    4.10
  -3   2  -8   18.40    4.10
  -3   2  -8   14.40    3.80
  -3   2  -8   21.60    4.00
   3   2   8   23.00    4.30
   3   2   8   18.50    4.40
   3   2   8   29.00    4.50
  -3   2  -8   28.40    6.50
   4  -2   8    0.00    3.30
  -4  -2  -8   -2.10    3.80
  -4  -2  -8    1.00    3.10
   4  -2   8    6.60    3.00
  -4  -2  -8   -0.90    3.30
  -4  -2  -8   -1.90    4.40
   4  -2   8    3.40    3.00
   4   2   8    3.70    2.90
  -4   2  -8    0.20    3.10
   4   2   8    4.50    3.50
   4   2   8    3.40    3.70
   4   2   8    5.00    3.20
  -4   2  -8    4.40    5.20
  -4   2  -8    6.20    3.80
  -4   2  -8    4.10    3.40
   6  -3  -8   43.30    5.90
   5  -3  -8   89.99    7.60
  -5  -3   8   93.79    8.80
   5  -3  -8   97.59    7.90
  -5  -3   8  101.39    9.30
   5  -3  -8  102.49    9.50
   5  -3  -8  108.59    8.60
  -5   3   8   85.39    9.00
   5   3  -8   97.59    8.60
   5   3  -8   95.09    9.00
  -4  -3   8   55.79    7.00
   4  -3  -8   39.00    5.50
   4  -3  -8   42.10    6.70
   4  -3  -8   45.60    5.20
   4  -3  -8   44.10    5.50
   4  -3  -8   42.40    5.90
   4   3  -8   47.10    6.10
  -4   3   8   43.90    6.10
   4   3  -8   42.00    3.60
   4   3  -8   34.10    5.10
   4   3  -8   52.39    7.60
   3  -3  -8   62.69    5.90
   3  -3  -8   50.59    6.00
   3  -3  -8   64.99    7.90
   3  -3  -8   67.59    6.80
  -3  -3   8   59.19    6.70
   3  -3  -8   75.29    6.70
  -3  -3   8   63.49    5.40
   3   3  -8   53.59    4.30
   3   3  -8   55.89    6.00
  -3   3   8   72.89    7.20
   3   3  -8   71.89    6.60
   3   3  -8   80.29    9.20
   2  -3  -8  352.86   17.60
   2  -3  -8  374.06   19.60
   2  -3  -8  349.87   17.20
  -2  -3   8  325.17   18.30
  -2  -3   8  347.17   17.00
   2  -3  -8  335.97   17.90
   2  -3  -8  329.77   17.90
  -2   3   8  355.76   16.80
   2   3  -8  362.26   17.80
   2   3  -8  313.67   15.90
   2   3  -8  345.67   17.00
  -2   3   8  315.57   17.80
   2   3  -8  360.06   19.80
  -2   3   8  337.17   16.30
   1  -3  -8  130.19    9.60
   1  -3  -8  109.69    8.30
   1  -3  -8  108.39    7.60
  -1  -3   8  101.09    8.60
   1  -3  -8  104.09    7.70
  -1  -3   8  114.79    7.50
   1  -3  -8  123.49    8.10
  -1  -3   8  116.29    7.40
  -1   3   8  110.59    8.20
   1   3  -8  111.79    6.90
   1   3  -8   93.89    6.40
  -1   3   8  112.09    6.60
   1   3  -8  114.29    9.60
   1   3  -8  118.09    7.20
  -1   3   8  103.79    8.70
   1   3  -8  117.29    8.00
  -1   3   8  115.79    7.60
   0  -3  -8   56.59    5.80
   0  -3  -8   58.09    5.40
   0  -3  -8   49.40    5.20
   0  -3   8   64.59    5.40
   0  -3   8   59.69    5.70
   0  -3  -8   50.59    5.90
   0  -3  -8   58.29    7.10
   0   3  -8   54.89    4.70
   0   3  -8   56.09    5.00
   0   3   8   54.39    5.30
   0   3  -8   54.99    5.80
   0   3   8   56.39    5.10
   0   3   8   48.20    5.10
   0   3  -8   58.59    7.20
   0   3   8   51.29    4.50
   0   3  -8   54.09    5.60
   1  -3   8  281.27   14.60
  -1  -3  -8  280.97   14.20
  -1  -3  -8  311.57   16.60
   1  -3   8  268.17   14.00
  -1  -3  -8  270.27   15.20
  -1  -3  -8  265.87   14.20
  -1  -3  -8  278.47   14.90
  -1   3  -8  261.97   14.40
   1   3   8  266.97   14.30
   1   3   8  284.97   14.60
  -1   3  -8  257.17   14.00
   1   3   8  268.57   14.30
  -1   3  -8  265.77   13.70
  -1   3  -8  271.57   16.90
  -1   3  -8  255.37   15.00
   1   3   8  269.57   13.70
   2  -3   8  173.38   10.10
  -2  -3  -8  181.48   11.40
   2  -3   8  170.28   10.30
  -2  -3  -8  156.88    9.80
  -2  -3  -8  171.48   12.40
  -2  -3  -8  160.08   10.60
  -2  -3  -8  157.98   10.10
   2   3   8  161.98   10.20
  -2   3  -8  168.38    9.70
  -2   3  -8  162.38   13.10
  -2   3  -8  178.48   10.20
   2   3   8  166.58   10.60
  -2   3  -8  150.88   11.10
   2   3   8  162.38    9.60
  -2   3  -8  178.08   10.30
   2   3   8  153.78   10.10
   3  -3   8    3.30    3.20
   3  -3   8    0.10    3.00
  -3  -3  -8    6.10    3.40
  -3  -3  -8    2.10    3.40
  -3  -3  -8    1.90    3.80
  -3  -3  -8    7.30    3.10
  -3  -3  -8    1.40    4.10
  -3   3  -8    3.20    3.20
  -3   3  -8    2.70    2.80
  -3   3  -8    3.60    3.10
   3   3   8    1.70    3.10
   3   3   8    7.30    3.00
   3   3   8    8.40    3.40
  -3   3  -8    7.30    5.30
  -3   3  -8    0.80    3.50
   3   3   8    2.00    3.20
  -4  -3  -8  117.49    9.50
  -4  -3  -8  116.89    9.00
   4  -3   8  122.49    8.90
  -4  -3  -8  118.09   10.90
   4  -3   8  112.69    9.00
  -4  -3  -8  130.39   10.60
   4   3   8  102.89    8.50
  -4   3  -8  108.29    9.00
  -4   3  -8  123.29    8.80
   4   3   8  126.29    9.20
   4   3   8  121.49    8.60
  -4   3  -8  119.09    9.50
   4   3   8  127.99    9.70
  -4   3  -8  113.69   12.50
   5  -4  -8   -0.50    3.70
  -5  -4   8    3.80    3.30
   5  -4  -8   -1.20    2.90
   5  -4  -8   11.40    3.70
   5  -4  -8   -4.40    2.80
  -5  -4   8    2.70    4.00
  -5   4   8   -2.00    3.20
   5   4  -8    2.00    3.60
   5   4  -8    2.10    3.30
   4  -4  -8  122.69    9.80
   4  -4  -8  134.59   10.90
  -4  -4   8  120.69    9.70
   4  -4  -8  123.79    8.70
   4  -4  -8  139.49    9.10
   4  -4  -8  121.39    9.30
  -4  -4   8  126.79    9.20
   4   4  -8  120.29   11.00
   4   4  -8  124.59    9.50
   4   4  -8  123.89    9.10
  -4   4   8  101.79    9.10
   3  -4  -8  136.89    9.80
   3  -4  -8  147.29   11.30
  -3  -4   8  139.19    8.50
   3  -4  -8  151.08    9.10
   3  -4  -8  154.58   10.00
   3  -4  -8  133.59    9.50
  -3  -4   8  144.19   10.10
   3   4  -8  124.49    9.20
   3   4  -8  147.39    9.40
   3   4  -8  138.59   12.00
  -3   4   8  120.99    9.40
   2  -4  -8   -3.50    3.30
  -2  -4   8    4.00    3.30
   2  -4  -8    4.20    2.80
   2  -4  -8    1.90    3.30
   2  -4  -8    0.10    2.70
  -2  -4   8   -2.80    2.40
   2  -4  -8    1.10    3.00
   2   4  -8    1.80    1.40
   2   4  -8    2.40    3.80
  -2   4   8    1.10    2.00
   2   4  -8    0.50    2.50
  -2   4   8    1.30    2.30
   2   4  -8   -1.30    2.20
  -2   4   8    4.80    3.00
  -1  -4   8  116.69    8.00
   1  -4  -8  128.09    8.40
   1  -4  -8  114.69    8.00
  -1  -4   8  108.09    8.80
  -1  -4   8  112.09    7.60
   1  -4  -8  122.29    8.70
   1  -4  -8  111.89    7.60
   1  -4  -8  121.29    9.30
  -1   4   8  117.79    8.10
  -1   4   8  123.59    7.70
   1   4  -8   99.79    6.90
   1   4  -8  102.59    6.70
   1   4  -8  110.69    9.50
   1   4  -8  118.09    8.00
  -1   4   8   97.29    6.70
  -1   4   8  117.89    7.80
   1   4  -8  108.69    6.30
   1   4  -8  116.99    8.30
   0  -4   8  290.47   14.80
   0  -4  -8  289.47   14.80
   0  -4  -8  295.57   15.20
   0  -4   8  290.47   14.50
   0  -4  -8  274.37   14.60
   0  -4  -8  302.47   16.30
   0  -4  -8  279.67   15.50
   0   4  -8  297.77   15.00
   0   4  -8  273.67   14.00
   0   4   8  290.07   14.40
   0   4  -8  250.17   16.50
   0   4   8  260.57   14.50
   0   4   8  287.57   14.70
   0   4  -8  273.37   14.80
   0   4   8  268.77   14.00
   0   4  -8  276.97   13.70
  -1  -4  -8   39.40    6.20
   1  -4   8   30.80    4.10
  -1  -4  -8   24.60    4.20
  -1  -4  -8   26.60    4.60
   1  -4   8   34.00    4.40
  -1  -4  -8   30.30    4.80
  -1   4  -8   29.60    6.10
   1   4   8   33.10    3.90
   1   4   8   33.80    4.50
   1   4   8   35.10    4.40
  -1   4  -8   33.70    4.10
  -1   4  -8   30.00    4.50
  -1   4  -8   33.60    3.80
   1   4   8   34.80    4.50
  -1   4  -8   30.30    4.90
   2  -4   8   92.59    7.30
  -2  -4  -8   88.99    6.80
  -2  -4  -8   96.99    8.40
  -2  -4  -8  104.89    7.50
  -2  -4  -8  101.59    9.30
  -2  -4  -8   93.99    7.90
   2  -4   8   83.69    7.50
  -2   4  -8   83.99    9.80
  -2   4  -8   77.49    7.80
   2   4   8   83.29    7.20
  -2   4  -8  101.79    7.60
   2   4   8   95.39    7.80
   2   4   8   99.29    6.80
  -2   4  -8   88.89    6.80
  -2   4  -8   91.09    7.10
   2   4   8   89.49    7.30
  -3  -4  -8  198.68   13.70
  -3  -4  -8  217.38   13.40
  -3  -4  -8  213.28   12.70
   3  -4   8  191.68   11.90
   3  -4   8  197.78   12.00
  -3  -4  -8  197.78   12.10
  -3   4  -8  202.38   12.00
  -3   4  -8  194.38   11.70
   3   4   8  203.08   12.60
   3   4   8  215.38   11.60
   3   4   8  190.88   11.80
  -3   4  -8  166.88   14.60
   3   4   8  214.08   12.30
  -3   4  -8  191.48   12.00
  -4  -4  -8   12.30    4.20
  -4  -4  -8   24.20    5.60
   4  -4   8   14.30    3.90
  -4  -4  -8   13.40    5.20
   4  -4   8   17.70    4.40
  -4  -4  -8   19.90    5.10
   4   4   8   28.00    5.20
  -4   4  -8   20.00    4.50
   4   4   8   15.30    4.00
  -4   4  -8   16.70    6.80
   4   4   8   18.00    4.50
   4   4   8   19.00    4.30
  -4   4  -8   17.40    4.30
   5  -5  -8   -1.30    3.10
   5  -5  -8    0.60    3.90
  -5  -5   8    3.70    4.10
  -5  -5   8    4.50    3.50
   5  -5  -8    7.70    3.80
   5  -5  -8    5.00    3.40
   5   5  -8    4.30    4.40
   5   5  -8   -1.10    3.60
   5   5  -8    1.80    3.70
  -5   5   8    4.80    3.90
   4  -5  -8    1.60    3.00
  -4  -5   8    4.60    3.40
  -4  -5   8    3.30    3.60
   4  -5  -8    0.80    3.10
   4  -5  -8    5.50    3.80
   4  -5  -8    1.70    4.00
   4  -5  -8    0.10    2.90
  -4   5   8    1.90    3.30
   4   5  -8   -3.00    3.10
   4   5  -8    3.70    3.00
   4   5  -8    0.60    4.10
   3  -5  -8   -0.80    2.80
   3  -5  -8   -0.90    3.20
   3  -5  -8    4.40    3.40
  -3  -5   8    0.00    3.50
   3  -5  -8    3.40    2.90
  -3  -5   8    0.40    2.50
   3  -5  -8    3.20    4.00
   3   5  -8    0.70    4.40
   3   5  -8    4.70    2.90
  -3   5   8    2.20    2.40
  -3   5   8    1.00    3.00
   3   5  -8    3.90    2.90
   2  -5  -8    8.20    4.10
   2  -5  -8   -1.50    2.60
  -2  -5   8    5.00    2.70
  -2  -5   8    1.70    2.60
  -2  -5   8   -1.60    3.20
   2  -5  -8   -3.50    2.90
   2  -5  -8   -4.60    2.40
  -2   5   8    2.30    2.70
   2   5  -8    1.40    2.60
  -2   5   8   -0.70    2.10
   2   5  -8    0.60    3.60
   2   5  -8   -0.30    2.20
  -2   5   8    1.50    2.70
  -2   5   8    0.60    2.40
   1  -5  -8    6.80    3.50
   1  -5  -8    8.30    3.30
  -1  -5   8   10.20    3.30
   1  -5  -8    4.60    3.20
   1  -5  -8    4.60    2.90
   1  -5  -8   13.90    4.10
  -1  -5   8   10.30    3.20
   1   5  -8    9.00    4.00
  -1   5   8    2.40    3.00
   1   5  -8    1.50    2.60
  -1   5   8   11.80    3.30
  -1   5   8    4.10    2.40
   1   5  -8    7.50    1.70
   1   5  -8    6.00    3.20
  -1   5   8    4.40    2.80
   0  -5  -8    2.50    2.80
   0  -5  -8    0.40    3.20
   0  -5   8    3.40    3.20
   0  -5  -8    4.20    3.20
   0  -5  -8   -1.70    2.70
   0  -5   8    2.50    2.60
   0  -5  -8    5.40    2.90
   0   5   8    3.50    2.50
   0   5   8    1.80    2.20
   0   5   8   -2.30    2.60
   0   5  -8   -1.40    2.40
   0   5   8   -1.00    2.40
   0   5  -8    2.80    1.90
   0   5  -8    4.20    3.60
   0   5  -8    3.30    2.80
   0   5  -8    7.00    2.30
   1  -5   8    0.60    2.60
  -1  -5  -8    2.30    3.30
  -1  -5  -8    3.30    3.00
   1  -5   8    3.30    2.80
  -1  -5  -8    6.80    3.00
  -1  -5  -8    0.30    3.10
  -1   5  -8   -0.10    2.00
   1   5   8    2.70    2.80
   1   5   8    4.10    2.40
  -1   5  -8    5.50    4.20
  -1   5  -8   -0.90    2.80
  -1   5  -8    3.30    2.30
   1   5   8    1.90    2.70
   1   5   8    0.40    2.60
  -1   5  -8    4.30    3.00
  -2  -5  -8   15.00    3.70
   2  -5   8   17.00    4.00
   2  -5   8   17.60    3.80
  -2  -5  -8   17.30    4.50
  -2  -5  -8   16.50    3.30
  -2  -5  -8   15.60    4.70
  -2  -5  -8   13.60    4.20
   2   5   8    7.60    3.40
   2   5   8   15.00    3.80
  -2   5  -8    9.10    5.00
   2   5   8   11.10    3.10
  -2   5  -8   15.80    4.30
  -2   5  -8   19.90    4.10
  -2   5  -8   17.00    3.40
  -2   5  -8   19.10    3.60
   2   5   8   18.30    4.00
  -3  -5  -8    1.80    3.20
  -3  -5  -8   -5.10    3.50
   3  -5   8    1.50    3.20
  -3  -5  -8    1.60    3.80
   3  -5   8    0.40    3.00
  -3  -5  -8   -2.60    2.70
  -3   5  -8   -0.40    3.00
   3   5   8    3.80    3.10
  -3   5  -8   -1.30    4.70
   3   5   8    2.90    2.80
  -3   5  -8    2.70    3.10
  -3   5  -8    2.30    2.80
   3   5   8    4.20    3.60
   3   5   8    2.70    3.10
   4  -5   8    3.20    3.30
  -4  -5  -8   -1.20    4.00
  -4  -5  -8   -3.20    3.70
   4  -5   8    4.90    3.50
  -4  -5  -8    2.90    4.10
   4   5   8    6.90    3.70
  -4   5  -8   -1.30    3.10
   4   5   8    1.70    3.30
   4   5   8    1.80    3.10
  -4   5  -8    1.00    3.30
   4   5   8   -1.70    5.90
  -5  -6   8    4.90    6.20
   5  -6  -8    4.10    3.30
   5  -6  -8   -1.90    3.40
   5   6  -8   -4.30    3.30
  -5   6   8    0.70    3.50
   5   6  -8    4.60    4.80
  -4  -6   8   62.69    7.50
  -4  -6   8   49.10    6.10
   4  -6  -8   71.49    8.30
   4  -6  -8   53.59    6.50
   4  -6  -8   75.99    7.00
   4  -6  -8   65.89    7.30
   4  -6  -8   54.89    6.90
  -4   6   8   48.40    6.40
  -4   6   8   54.09    6.00
   4   6  -8   64.19    6.90
   4   6  -8   53.79    8.00
   4   6  -8   68.39    7.10
   3  -6  -8   95.09    8.10
   3  -6  -8   90.39    7.50
   3  -6  -8  107.79    9.50
   3  -6  -8   95.49    8.60
  -3  -6   8   82.89    6.70
   3  -6  -8   96.59    8.50
  -3  -6   8   89.99    8.50
  -3   6   8   82.69    7.40
   3   6  -8   86.69    9.80
  -3   6   8   80.49    6.50
   3   6  -8   91.79    7.50
   3   6  -8   89.29    7.50
  -3   6   8   89.59    7.90
   2  -6  -8    2.50    3.90
   2  -6  -8   -1.50    3.30
   2  -6  -8    1.40    2.80
   2  -6  -8   -0.50    2.80
  -2  -6   8   -0.30    2.70
   2  -6  -8   -2.90    3.30
  -2  -6   8    2.40    2.80
  -2  -6   8   -0.60    3.40
  -2   6   8   -2.10    2.10
   2   6  -8    2.40    2.80
  -2   6   8    1.40    2.80
  -2   6   8    6.90    3.20
   2   6  -8    2.40    2.60
   2   6  -8   -1.70    2.30
  -2   6   8    2.40    2.90
  -2   6   8    2.20    2.40
   2   6  -8   -0.50    3.70
   1  -6  -8  149.99   10.50
   1  -6  -8  146.29    9.70
  -1  -6   8  171.58   10.00
   1  -6  -8  159.98   10.80
  -1  -6   8  147.09    9.70
   1  -6  -8  153.38   10.10
   1  -6  -8  157.18   10.20
   1   6  -8  157.78   11.60
   1   6  -8  156.28    9.70
   1   6  -8  173.58   10.30
  -1   6   8  159.08   10.60
  -1   6   8  160.38    9.20
  -1   6   8  148.99    9.80
  -1   6   8  145.19    9.70
  -1   6   8  166.18    9.60
   0  -6   8  107.79    8.10
   0  -6   8  107.99    7.70
   0  -6  -8  110.19    8.70
   0  -6  -8  119.79    8.40
   0  -6  -8  102.79    7.70
   0  -6  -8  106.99    8.00
   0  -6  -8  107.79    8.40
   0   6  -8  107.59    6.30
   0   6   8  111.19    7.30
   0   6  -8  109.59    7.70
   0   6   8  100.69    7.30
   0   6  -8  116.79    8.30
   0   6   8  108.19    7.90
   0   6   8  102.79    8.50
   0   6  -8   95.19    9.40
  -1  -6  -8    8.00    3.40
   1  -6   8   -1.70    3.00
  -1  -6  -8    8.00    3.40
  -1  -6  -8    0.60    2.60
   1  -6   8   -2.30    2.60
  -1  -6  -8    3.90    3.20
   1   6   8    2.90    3.00
  -1   6  -8    4.90    2.60
   1   6   8    5.30    2.70
  -1   6  -8    2.40    3.00
  -1   6  -8    2.70    2.20
  -1   6  -8    4.60    4.10
  -1   6  -8    3.00    3.10
   1   6   8    2.50    3.00
  -2  -6  -8   49.30    5.20
  -2  -6  -8   47.90    6.40
   2  -6   8   92.39    6.80
   2  -6   8   63.29    6.40
  -2  -6  -8   67.79    7.30
  -2  -6  -8   59.39    6.20
  -2  -6  -8   59.39    6.90
   2   6   8   54.79    6.00
  -2   6  -8   57.99    5.80
   2   6   8   54.29    5.70
  -2   6  -8   61.09    8.30
  -2   6  -8   54.89    5.40
  -2   6  -8   54.39    6.40
   2   6   8   60.09    6.30
  -3  -6  -8  107.19    9.70
   3  -6   8  108.79    8.60
  -3  -6  -8   98.89    8.20
  -3  -6  -8   89.59    7.90
  -3  -6  -8  107.29    9.40
  -3  -6  -8  112.09    9.20
   3   6   8  114.39    8.50
  -3   6  -8  117.99    8.90
  -3   6  -8  120.79    8.50
   3   6   8  101.39    8.50
  -3   6  -8  115.59    8.00
   3   6   8  107.59    7.90
  -3   6  -8  120.29   11.70
   3   6   8  109.59    8.70
  -4  -6  -8    7.60    5.20
   4  -6   8   13.60    4.40
  -4  -6  -8   10.30    5.00
   4  -6   8    6.60    3.70
  -4   6  -8    2.30    3.40
  -4   6  -8   14.80    4.30
   4   6   8    3.70    3.70
   5  -7  -8   65.19    7.30
   5  -7  -8   73.09    8.00
   5   7  -8   57.19    7.30
  -5   7   8   65.09    7.70
   4  -7  -8   42.70    5.50
   4  -7  -8   41.80    5.80
   4  -7  -8   34.60    5.60
  -4  -7   8   43.40    5.70
  -4  -7   8   25.40    5.60
   4  -7  -8   25.70    5.90
   4  -7  -8   35.60    6.00
   4   7  -8   33.60    5.20
   4   7  -8   40.20    5.50
  -4   7   8   39.50    5.60
  -4   7   8   32.90    4.90
   4   7  -8   42.10    7.30
   3  -7  -8   40.60    6.20
   3  -7  -8   40.50    6.60
   3  -7  -8   40.80    6.20
   3  -7  -8   61.09    6.70
  -3  -7   8   45.20    6.50
   3  -7  -8   41.00    5.30
  -3  -7   8   37.80    4.70
  -3   7   8   36.60    5.20
  -3   7   8   48.70    5.00
   3   7  -8   49.20    7.90
  -3   7   8   29.70    4.90
   3   7  -8   40.40    5.10
   3   7  -8   45.50    5.60
  -2  -7   8  269.77   14.00
   2  -7  -8  289.97   14.70
   2  -7  -8  294.37   16.10
   2  -7  -8  271.57   15.10
   2  -7  -8  274.77   15.10
  -2  -7   8  245.48   15.20
  -2  -7   8  243.28   14.20
   2   7  -8  255.87   14.10
  -2   7   8  262.17   14.90
   2   7  -8  267.37   14.30
  -2   7   8  243.68   14.20
   2   7  -8  248.68   16.40
  -2   7   8  262.27   13.60
   2   7  -8  261.77   13.80
  -2   7   8  222.18   13.80
  -2   7   8  253.47   13.50
   2   7  -8  243.18   13.50
  -1  -7   8  119.99    8.60
   1  -7  -8  119.19    9.10
  -1  -7   8  127.79    8.60
   1  -7  -8  121.59    9.00
   1  -7  -8  134.59    9.60
   1  -7  -8  127.39    9.50
   1  -7  -8  122.79    8.60
  -1   7   8  112.39    7.90
   1   7  -8  124.39   10.00
   1   7  -8  117.59    8.70
  -1   7   8  120.49    8.60
   1   7  -8  128.89    8.40
  -1   7   8  113.59    8.20
  -1   7   8  122.99    9.20
   0  -7  -8   36.80    4.80
   0  -7  -8   44.10    5.70
   0  -7   8   41.50    5.20
   0  -7  -8   44.10    5.60
   0  -7   8   35.90    4.70
   0  -7  -8   42.70    5.20
   0  -7  -8   47.70    6.00
   0   7  -8   38.50    6.00
   0   7   8   43.70    5.30
   0   7  -8   42.70    3.50
   0   7  -8   41.20    5.10
   0   7   8   33.80    5.20
   0   7  -8   38.60    4.80
   0   7   8   52.59    5.20
   0   7   8   41.00    4.80
   1  -7   8  265.37   14.80
   1  -7   8  272.37   14.60
  -1  -7  -8  277.27   15.40
  -1  -7  -8  254.17   14.60
  -1  -7  -8  256.37   15.10
  -1  -7  -8  283.37   15.60
  -1   7  -8  269.57   14.80
  -1   7  -8  269.57   16.60
   1   7   8  292.97   14.80
  -1   7  -8  244.68   14.70
  -1   7  -8  249.97   14.70
  -1   7  -8  275.37   13.50
   1   7   8  269.27   14.20
   1   7   8  285.97   15.00
  -2  -7  -8   87.99    7.70
  -2  -7  -8  101.09    9.60
   2  -7   8   97.59    8.40
  -2  -7  -8  117.99    8.80
   2  -7   8   99.29    8.20
  -2  -7  -8   88.09    8.70
  -2   7  -8   99.89    7.60
   2   7   8   98.29    7.30
   2   7   8   98.19    8.00
   2   7   8  106.19    8.30
  -2   7  -8   90.19    7.00
  -2   7  -8  114.79    8.60
  -2   7  -8   98.09   10.30
  -3  -7  -8   -0.20    3.00
  -3  -7  -8    4.90    4.20
   3  -7   8   -3.50    3.20
  -3  -7  -8   -1.10    3.60
  -3  -7  -8    7.10    3.80
  -3  -7  -8    1.90    3.00
   3  -7   8    0.30    3.40
  -3   7  -8    3.40    5.10
   3   7   8   -3.30    3.00
   3   7   8    0.80    2.80
  -3   7  -8   -0.10    2.90
  -3   7  -8    1.10    2.80
   3   7   8    0.40    3.00
  -3   7  -8    4.60    3.60
  -4  -7  -8   96.19    9.60
  -4   7  -8   79.99    8.90
  -4   7  -8   94.69    8.40
   4   7   8   77.39    8.00
   5  -8  -8   -3.40    3.20
  -5   8   8    1.00    3.70
   5   8  -8   -0.30    4.20
   4  -8  -8   25.40    5.70
   4  -8  -8   23.80    4.90
  -4  -8   8   20.50    4.50
   4  -8  -8   24.60    5.50
   4  -8  -8   22.90    5.70
  -4  -8   8   30.40    5.90
   4  -8  -8   30.30    5.10
   4   8  -8   22.90    4.80
  -4   8   8   23.80    4.30
   4   8  -8   20.40    4.50
  -4   8   8   23.20    4.60
  -4   8   8   24.70    4.90
   4   8  -8   40.90    7.60
  -3  -8   8   35.40    4.60
   3  -8  -8   30.60    5.70
   3  -8  -8   26.80    4.90
   3  -8  -8   34.60    5.20
   3  -8  -8   29.50    6.20
   3  -8  -8   38.90    6.20
  -3  -8   8   40.60    6.20
   3   8  -8   30.70    4.80
   3   8  -8   28.20    4.70
   3   8  -8   31.30    4.70
  -3   8   8   27.30    4.90
   3   8  -8   28.40    4.40
   3   8  -8   39.70    7.10
  -3   8   8   31.00    4.40
  -3   8   8   31.40    4.90
   2  -8  -8   10.70    3.70
  -2  -8   8    1.00    2.90
   2  -8  -8    5.50    3.50
   2  -8  -8    9.80    4.30
   2  -8  -8    5.80    3.90
  -2  -8   8   -3.50    3.30
  -2  -8   8    3.00    3.40
   2  -8  -8    3.00    3.80
   2   8  -8    1.10    3.00
  -2   8   8    2.00    3.10
   2   8  -8    5.50    2.80
   2   8  -8    6.30    4.30
   2   8  -8    5.80    3.00
   2   8  -8    2.40    2.70
  -2   8   8    1.30    3.00
  -2   8   8    2.70    2.80
  -2   8   8    4.40    2.80
   1  -8  -8   42.90    5.80
   1  -8  -8   35.00    5.00
  -1  -8   8   34.20    4.90
   1  -8  -8   34.70    5.40
   1  -8  -8   33.40    5.40
  -1  -8   8   37.40    5.30
   1  -8  -8   21.90    4.50
  -1   8   8   37.50    5.30
   1   8  -8   34.50    6.00
  -1   8   8   30.30    4.40
   1   8  -8   38.90    5.10
   1   8  -8   38.70    4.80
  -1   8   8   35.90    5.30
  -1   8   8   36.80    4.50
   0  -8  -8   72.09    7.00
   0  -8  -8   84.69    7.30
   0  -8   8   72.79    6.80
   0  -8   8   77.09    7.00
   0  -8  -8   73.19    7.00
   0  -8  -8   78.19    7.10
   0  -8  -8   76.59    7.60
   0   8  -8   74.49    8.40
   0   8  -8   70.29    5.20
   0   8   8   67.79    6.20
   0   8   8   78.79    7.60
   0   8   8   76.69    6.40
   0   8  -8   70.49    7.10
   0   8  -8   75.19    6.40
   0   8   8   81.09    7.40
  -1  -8  -8    6.60    3.70
  -1  -8  -8   16.90    3.80
   1  -8   8   24.50    4.60
  -1  -8  -8   12.00    4.00
   1  -8   8   20.90    4.10
  -1   8  -8   16.80    3.90
  -1   8  -8   13.80    2.60
   1   8   8   16.10    3.60
   1   8   8   17.10    4.20
  -1   8  -8   19.10    5.10
   1   8   8   18.00    4.30
   1   8   8   16.80    3.90
   2  -8   8   21.90    4.60
  -2  -8  -8   27.40    5.10
  -2  -8  -8   24.40    5.00
   2  -8   8   29.50    5.00
  -2  -8  -8   23.70    4.30
  -2  -8  -8   18.70    4.50
  -2   8  -8   21.20    4.00
   2   8   8   20.60    4.50
  -2   8  -8   21.80    5.70
   2   8   8   25.20    4.20
   2   8   8   26.90    4.80
  -2   8  -8   25.70    3.80
  -2   8  -8   17.10    4.20
  -3  -8  -8   46.90    6.20
  -3  -8  -8   31.50    5.40
   3  -8   8   42.60    6.00
   3  -8   8   39.80    5.80
  -3  -8  -8   43.70    5.50
  -3  -8  -8   28.60    5.50
  -3  -8  -8   47.90    6.50
  -3   8  -8   26.40    5.40
  -3   8  -8   38.80    6.00
   3   8   8   42.30    5.40
  -3   8  -8   40.90    7.30
  -3   8  -8   41.50    5.50
   3   8   8   43.50    6.00
   3   8   8   47.40    6.30
  -4  -8  -8    4.70    4.30
  -4   8  -8    5.70    4.00
   4  -9  -8    3.20    4.30
   4  -9  -8    2.60    4.30
   4  -9  -8    3.10    4.00
   4  -9  -8   -1.80    3.20
   4  -9  -8    4.60    4.30
  -4  -9   8    1.40    4.00
  -4  -9   8    5.50    3.70
   4   9  -8    5.30    3.30
   4   9  -8    1.50    2.70
  -4   9   8    2.70    3.20
   4   9  -8    1.50    3.40
  -4   9   8    0.80    3.10
   4   9  -8    3.80    4.50
  -4   9   8    8.20    3.50
   3  -9  -8    6.60    4.30
   3  -9  -8    0.70    3.60
   3  -9  -8   11.30    4.70
   3  -9  -8   10.70    4.60
  -3  -9   8    4.40    3.00
   3  -9  -8    2.00    3.10
  -3  -9   8    6.50    4.20
   3   9  -8    4.50    3.10
   3   9  -8   10.50    3.40
  -3   9   8   14.60    3.60
  -3   9   8    4.40    3.10
  -3   9   8    3.10    3.10
   3   9  -8   11.10    3.50
   3   9  -8    3.20    4.50
   2  -9  -8   33.60    5.50
  -2  -9   8   39.70    5.60
   2  -9  -8   28.10    5.50
   2  -9  -8   27.20    5.50
   2  -9  -8   38.90    5.90
  -2  -9   8   28.70    4.60
   2  -9  -8   29.90    5.00
   2   9  -8   30.30    4.60
  -2   9   8   28.50    4.40
  -2   9   8   30.80    4.60
   2   9  -8   20.60    5.50
   2   9  -8   26.80    4.70
   2   9  -8   26.80    4.40
  -2   9   8   26.90    4.80
   2   9  -8   33.00    4.60
  -2   9   8   19.10    4.60
   1  -9  -8    1.80    3.10
  -1  -9   8   -2.20    2.90
   1  -9  -8   -5.20    2.90
   1  -9  -8    5.80    3.20
   1  -9  -8    0.80    3.40
  -1  -9   8   -0.30    3.00
   1  -9  -8    3.80    3.10
   1   9  -8   -0.30    2.30
   1   9  -8    1.10    3.60
   1   9  -8   -1.50    3.00
  -1   9   8    2.40    2.80
  -1   9   8    5.50    3.30
   1   9  -8    9.40    3.60
  -1   9   8   -3.40    2.90
   0  -9   8    7.40    3.50
   0  -9  -8   10.10    3.50
   0  -9  -8    4.30    3.40
   0  -9  -8    7.20    3.60
   0  -9  -8    7.20    3.50
   0  -9  -8   12.70    3.80
   0  -9   8   10.20    3.60
   0   9  -8    9.80    4.20
   0   9   8   10.00    3.30
   0   9   8    9.90    3.80
   0   9   8    7.40    3.20
   0   9   8   10.80    3.60
   0   9  -8    8.40    3.90
   0   9  -8   12.50    3.90
  -1  -9  -8   16.80    4.00
  -1  -9  -8   13.10    4.00
  -1  -9  -8   14.00    4.30
   1  -9   8   18.40    4.20
  -1  -9  -8   19.50    4.30
   1  -9   8   17.80    4.10
   1   9   8   15.30    3.70
  -1   9  -8   21.90    2.90
  -1   9  -8   16.90    4.60
   1   9   8   13.50    3.70
  -1   9  -8   15.80    5.00
   1   9   8   27.40    4.70
   1   9   8   17.70    4.20
  -1   9  -8   18.70    4.10
   2  -9   8    5.60    3.50
   2  -9   8    2.80    3.40
  -2  -9  -8    4.30    3.40
  -2  -9  -8    6.50    3.60
  -2  -9  -8    1.00    3.20
  -2  -9  -8    1.00    3.30
   2   9   8    6.10    3.70
  -2   9  -8   -4.80    3.20
  -2   9  -8    8.30    2.80
  -2   9  -8    4.40    3.60
  -2   9  -8   -0.20    4.10
   2   9   8    4.30    3.00
   2   9   8   10.60    3.90
  -3  -9  -8    5.50    3.30
   3  -9   8    3.80    3.70
   3  -9   8    2.60    3.60
  -3  -9  -8    1.40    3.30
  -3   9  -8    5.50    4.00
   3   9   8    1.30    3.60
  -3   9  -8    4.90    3.00
   3   9   8    3.50    3.60
  -3   9  -8    1.60    4.40
   3   9   8    4.00    3.60
  -3   9  -8    5.80    3.60
  -4 -10   8   57.89    7.80
   4 -10  -8   42.70    6.30
   4  10  -8   45.40    6.40
  -4  10   8   47.40    6.10
   4  10  -8   56.59    6.70
   4  10  -8   41.60    5.50
  -4  10   8   41.20    5.80
  -4  10   8   46.00    6.10
  -3 -10   8   79.19    7.20
   3 -10  -8   70.39    7.40
   3 -10  -8   74.09    8.60
  -3 -10   8   83.79    8.90
   3 -10  -8   75.49    8.40
   3 -10  -8   84.39    8.70
  -3  10   8   91.59   11.40
   3  10  -8   84.69    7.50
   3  10  -8   72.49    9.30
   3  10  -8   92.49    7.50
   3  10  -8   68.99    7.10
  -3  10   8   89.99    7.30
  -3  10   8   62.59    7.30
   3  10  -8   86.09    7.40
   2 -10  -8    6.50    3.80
  -2 -10   8    1.80    3.70
   2 -10  -8    5.70    3.50
   2 -10  -8    3.10    3.80
  -2 -10   8   -2.20    2.70
   2 -10  -8   -2.90    3.60
   2 -10  -8    6.20    6.20
   2  10  -8   -2.20    2.80
   2  10  -8    1.20    3.10
  -2  10   8    2.80    3.10
   2  10  -8   -0.10    2.60
  -2  10   8    3.00    3.50
   2  10  -8    4.70    3.00
  -2  10   8    0.00    3.10
   2  10  -8   -0.30    3.50
  -1 -10   8   72.39    7.10
   1 -10  -8   87.89    7.40
   1 -10  -8   84.49    8.20
   1 -10  -8   76.89    7.70
   1 -10  -8   75.39    7.70
  -1 -10   8   85.59    7.60
  -1  10   8   73.79    7.70
  -1  10   8   94.79    7.80
  -1  10   8   68.69    6.70
   1  10  -8   69.29    7.00
   1  10  -8   77.99    6.60
   1  10  -8   73.09    8.50
   1  10  -8   77.49    8.00
   0 -10   8  133.19    9.80
   0 -10  -8  150.88   10.30
   0 -10  -8  155.08   10.80
   0 -10  -8  157.48   10.40
   0 -10   8  143.19   10.10
   0 -10  -8  147.69   10.10
   0  10   8  152.98   11.10
   0  10   8  156.68   10.40
   0  10  -8  141.99   11.20
   0  10  -8  132.09   10.10
   0  10   8  161.98   12.20
   0  10  -8  151.18   11.10
   0  10   8  148.39    9.60
  -1 -10  -8    5.30    3.40
  -1 -10  -8    2.40    3.50
   1 -10   8    6.30    3.50
   1 -10   8   -4.90    2.90
  -1 -10  -8   -1.00    2.90
   1  10   8   -3.30    2.80
   1  10   8    5.10    3.30
  -1  10  -8   -4.50    3.50
   1  10   8    2.50    3.30
  -1  10  -8    1.50    3.20
  -1  10  -8   -2.20    3.10
   1  10   8   -0.50    2.80
  -1  10  -8   -1.00    1.90
  -2 -10  -8   28.60    5.50
  -2 -10  -8   38.00    5.60
   2 -10   8   37.50    5.50
  -2 -10  -8   40.20    6.20
   2 -10   8   30.80    5.30
  -2  10  -8   35.50    4.20
   2  10   8   27.80    4.70
   2  10   8   34.40    5.60
   2  10   8   33.80    5.40
  -2  10  -8   51.59    6.50
  -2  10  -8   33.10    5.90
   2  10   8   37.80    5.50
  -3 -10  -8   87.69    7.70
  -3 -10  -8  109.49   11.50
   3  10   8  108.09    9.60
   3  10   8  107.79   10.70
  -3  10  -8   91.79   10.20
  -3  10  -8   85.99    7.50
   4 -11  -8   15.70    5.00
   4  11  -8   13.70    4.30
  -4  11   8   12.30    4.10
   4  11  -8   21.60    6.10
  -4  11   8   13.00    4.30
   4  11  -8   10.80    4.40
   3 -11  -8    5.40    4.90
   3 -11  -8   -0.90    3.70
  -3 -11   8    3.90    3.40
   3 -11  -8    4.70    3.80
  -3 -11   8    4.80    4.20
   3  11  -8    5.90    3.70
   3  11  -8   11.80    3.60
  -3  11   8    7.10    3.70
   3  11  -8   11.10    5.10
  -3  11   8    8.90    3.70
   3  11  -8    5.40    3.10
   3  11  -8    9.00    3.40
  -2 -11   8   62.19    6.50
   2 -11  -8   68.69    7.10
   2 -11  -8   48.40    6.50
  -2 -11   8   50.09    6.60
   2 -11  -8   53.89    7.10
   2 -11  -8   68.99    7.70
   2  11  -8   63.09    6.60
  -2  11   8   66.29    6.60
   2  11  -8   56.29    6.00
   2  11  -8   63.89    6.40
  -2  11   8   52.79    6.80
   2  11  -8   50.19    6.30
   2  11  -8   57.09    7.60
  -2  11   8   61.29    6.80
   1 -11  -8   41.40    6.20
  -1 -11   8   49.00    6.30
   1 -11  -8   43.20    6.00
   1 -11  -8   45.70    6.00
   1 -11  -8   52.69    6.70
  -1 -11   8   59.19    6.20
   1  11  -8   46.70    6.80
  -1  11   8   43.90    6.40
  -1  11   8   49.90    5.90
   1  11  -8   51.39    6.00
   1  11  -8   45.80    6.50
  -1  11   8   61.49    6.80
   0 -11  -8    8.10    3.70
   0 -11  -8   10.00    4.00
   0 -11  -8    4.80    3.80
   0 -11  -8    4.50    3.00
   0 -11   8    7.60    3.80
   0 -11   8   10.20    3.80
   0  11  -8    3.80    3.50
   0  11   8   16.70    4.10
   0  11  -8    4.90    4.00
   0  11   8    5.20    3.60
   0  11   8    7.40    3.30
   0  11  -8    8.00    4.00
   1 -11   8   71.29    7.30
  -1 -11  -8   69.79    7.40
  -1 -11  -8   76.39    7.20
  -1 -11  -8   79.29    7.60
   1 -11   8   66.19    7.30
   1  11   8   74.29    7.30
   1  11   8   79.99    7.30
  -1  11  -8   53.59    6.60
   1  11   8   78.69    6.90
  -1  11  -8   71.49    8.20
   1  11   8   66.59    7.60
  -1  11  -8   67.99    8.00
  -2 -11  -8   19.50    4.50
  -2 -11  -8   40.70    8.20
   2 -11   8   30.70    5.80
   2 -11   8   24.70    5.00
  -2 -11  -8   29.60    5.90
  -2  11  -8   24.50    6.90
   2  11   8   26.20    5.10
   2  11   8   35.40    5.10
  -2  11  -8   23.40    5.60
  -2  11  -8   26.40    3.70
   2  11   8   26.90    5.10
   2  11   8   28.10    5.10
  -3 -11  -8    0.70    3.60
  -3  11  -8    0.50    4.80
  -3  11  -8    0.00    2.60
  -3 -12   8   -1.40    3.30
   3 -12  -8   -5.20    3.50
  -3  12   8    2.40    3.40
  -3  12   8    1.50    3.70
   3  12  -8    2.40    3.00
   3  12  -8    1.40    2.80
   3  12  -8    4.70    4.90
  -3  12   8    1.90    3.50
  -2 -12   8    2.10    3.50
  -2 -12   8   -2.20    3.60
   2 -12  -8   -2.90    3.80
   2 -12  -8    4.70    3.60
   2 -12  -8   -0.70    3.80
   2 -12  -8    0.60    3.30
   2  12  -8    6.40    4.50
   2  12  -8    1.70    3.20
   2  12  -8    2.70    3.30
   2  12  -8    4.50    3.30
  -2  12   8    2.20    3.50
  -2  12   8    7.00    4.00
  -2  12   8    7.00    3.50
   1 -12  -8   -4.10    2.70
   1 -12  -8   -7.30    3.20
  -1 -12   8    3.70    3.30
   1 -12  -8   -0.20    3.50
   1 -12  -8   -0.90    3.00
  -1 -12   8    0.30    3.30
   1  12  -8    1.80    3.40
  -1  12   8    1.90    3.80
   1  12  -8    6.80    3.60
  -1  12   8    6.80    3.60
  -1  12   8    0.90    2.90
   1  12  -8    4.80    3.80
   0 -12  -8    1.40    3.50
   0 -12   8   -0.70    3.30
   0 -12  -8    2.00    3.60
   0 -12  -8    4.40    3.10
   0 -12   8    2.60    3.50
   0 -12  -8   -1.80    3.00
   0  12   8    1.00    3.40
   0  12   8    1.90    3.00
   0  12  -8    1.60    3.60
   0  12  -8    2.40    3.60
   0  12   8    1.20    3.40
   0  12  -8   -1.20    3.60
   1 -12   8    1.70    3.50
  -1 -12  -8    4.00    3.60
  -1 -12  -8    3.80    3.30
   1 -12   8    1.00    3.50
  -1 -12  -8   -3.50    2.70
   1  12   8    2.20    3.70
  -1  12  -8   -1.20    3.70
   1  12   8    2.30    3.30
   1  12   8    2.00    2.90
   1  12   8    3.00    3.30
  -1  12  -8   -0.60    3.50
  -1  12  -8   -1.20    3.50
  -2 -12  -8    1.70    3.60
  -2  12  -8    0.60    3.90
   2  12   8    0.10    3.40
   2  12   8    9.40    4.30
   3 -13  -8   13.30    4.80
  -3  13   8   12.40    4.90
   3  13  -8   14.10    7.60
  -2 -13   8   43.80    5.90
   2 -13  -8   40.40    6.30
  -2 -13   8   39.80    5.70
  -2 -13   8   34.90    5.90
   2 -13  -8   68.49   12.00
  -2  13   8   30.00    5.70
   2  13  -8   42.60    6.00
   2  13  -8   43.10    6.10
  -2  13   8   32.80    5.60
   2  13  -8   39.40    6.40
   2  13  -8   32.30    5.20
   1 -13  -8    8.70    4.30
   1 -13  -8   10.20    3.90
  -1 -13   8   10.20    4.20
   1 -13  -8   14.50    4.60
  -1 -13   8   11.70    4.20
   1  13  -8   18.80    4.60
   1  13  -8   14.20    4.60
  -1  13   8   16.20    4.30
   1  13  -8    9.90    3.70
  -1  13   8   20.30    4.60
   1  13  -8   14.90    4.30
   0 -13  -8    6.60    4.00
   0 -13   8   22.20    4.80
   0 -13  -8    3.70    3.70
   0 -13  -8   10.70    4.00
   0  13  -8    5.40    4.10
   0  13   8    6.40    3.60
   0  13  -8    6.30    3.90
   0  13  -8    1.80    3.70
   0  13   8    9.10    4.00
   1 -13   8   48.50    6.60
  -1 -13  -8   39.80    5.80
   1  13   8   50.19    6.50
  -1  13  -8   30.60    6.00
   1  13   8   30.10    5.30
  -2  13  -8   19.20    5.40
   2  13   8   24.50    8.30
  -2 -14   8    5.20    5.30
   2 -14  -8   -2.80    3.50
  -2 -14   8   -2.10    3.30
   2  14  -8   -1.00    3.20
   2  14  -8    4.10    3.80
  -2  14   8   -1.30    3.40
   2  14  -8   -2.40    3.10
  -1 -14   8   25.30    5.20
   1 -14  -8   17.40    5.30
   1  14  -8   21.10    4.70
   1  14  -8   21.30    5.00
  -1  14   8   20.60    4.90
   0  14   8   80.99   11.40
   1  14   8    4.00    4.20
   5   0  -9   -2.30    4.10
   5   0  -9    0.60    2.40
   4   0  -9    3.50    3.10
  -4   0   9    0.00    3.50
   4   0  -9    2.30    2.50
   4   0  -9    1.30    4.50
   4   0  -9    3.60    3.50
  -3   0   9    1.70    3.50
   3   0  -9    1.00    3.10
   3   0  -9    3.90    3.80
   3   0  -9   -4.10    2.70
   3   0  -9   -2.70    3.90
   3   0  -9   -2.30    2.20
   2   0  -9    1.70    2.90
  -2   0   9   -0.50    2.50
   2   0  -9   -4.40    2.40
   2   0  -9    2.00    3.90
   2   0  -9    3.30    3.10
  -2   0   9    4.40    3.60
   2   0  -9   -1.90    2.20
  -1   0   9    1.90    3.50
  -1   0   9   -0.20    2.60
   1   0  -9    0.80    2.40
   1   0  -9   -0.60    2.70
   1   0  -9   -6.10    2.70
   1   0  -9    3.90    2.80
   0   0  -9   -5.10    2.90
   0   0  -9    1.60    2.70
   0   0   9   -0.40    2.80
   0   0  -9   -0.80    3.40
   0   0  -9   -0.40    2.30
  -1   0  -9    2.10    4.20
   1   0   9   -3.40    2.70
  -1   0  -9    1.40    2.80
  -1   0  -9    1.20    3.40
  -1   0  -9   -4.30    2.70
  -1   0  -9   -1.20    2.50
  -2   0  -9    0.00    2.80
  -2   0  -9    2.80    4.90
  -2   0  -9    5.10    3.10
   2   0   9    3.50    3.00
  -2   0  -9    2.20    3.00
  -2   0  -9   -2.90    3.60
  -3   0  -9    2.00    4.10
   3   0   9    0.70    3.10
  -3   0  -9    0.90    3.00
  -3   0  -9    5.20    3.30
  -3   0  -9   -2.80    4.70
  -3   0  -9    3.60    3.40
  -4   0  -9   -3.80    4.10
   4   0   9   -1.60    3.50
   5  -1  -9   10.20    3.10
   5  -1  -9    9.40    6.00
   5   1  -9    2.70    4.20
   4  -1  -9   74.19    7.80
   4  -1  -9   70.49    7.80
  -4  -1   9   56.39    7.60
   4  -1  -9   74.29    6.40
   4  -1  -9   72.89    9.30
   4   1  -9   79.39   10.00
  -4   1   9   82.19    8.60
   4   1  -9   65.79    7.30
   4   1  -9   72.29    5.60
   4   1  -9   89.99    7.90
   3  -1  -9   30.40    6.60
   3  -1  -9   39.30    4.50
  -3  -1   9   32.80    5.60
   3  -1  -9   30.30    5.10
   3  -1  -9   32.50    5.20
   3  -1  -9   43.70    5.50
   3   1  -9   41.70    5.60
   3   1  -9   44.70    4.20
   3   1  -9   27.70    4.90
  -3   1   9   36.50    5.80
   3   1  -9   34.90    7.10
  -2  -1   9    3.80    3.70
   2  -1  -9   -0.50    2.70
  -2  -1   9    3.80    2.70
   2  -1  -9    0.00    3.70
   2  -1  -9    3.00    3.20
   2  -1  -9    2.50    3.00
   2  -1  -9    4.80    2.80
  -2   1   9    8.20    3.00
   2   1  -9    2.20    3.10
   2   1  -9    4.90    2.40
  -2   1   9   -2.30    3.00
   2   1  -9    6.00    2.80
   2   1  -9    3.40    4.20
   2   1  -9   -0.10    2.70
   1  -1  -9  180.88   11.40
  -1  -1   9  181.28   10.60
   1  -1  -9  191.18   10.30
   1  -1  -9  184.58   10.70
  -1  -1   9  152.88   11.30
   1  -1  -9  173.48   10.30
   1  -1  -9  182.38   12.60
  -1   1   9  186.28   10.50
   1   1  -9  177.28   12.60
  -1   1   9  171.68   11.40
   1   1  -9  160.88   11.00
   1   1  -9  165.08   10.30
   1   1  -9  182.28    9.90
   0  -1  -9   97.29    7.80
   0  -1   9  105.99    7.80
   0  -1  -9  121.29   10.00
   0  -1  -9  103.99    7.30
   0  -1  -9   89.39    8.40
   0   1  -9   93.29    7.00
   0   1  -9   97.29    7.50
   0   1  -9  100.29    9.50
   0   1  -9   99.09    7.90
   0   1  -9  107.99    8.60
   0   1   9  108.69    7.80
  -1  -1  -9    2.30    3.00
  -1  -1  -9    1.90    2.80
   1  -1   9    2.90    3.10
  -1  -1  -9   -2.60    3.20
  -1  -1  -9    0.70    2.70
  -1  -1  -9    4.40    4.20
  -1   1  -9    3.00    2.80
   1   1   9    3.40    3.10
  -1   1  -9   -2.00    3.30
  -1   1  -9   -0.80    2.50
  -1   1  -9    2.60    4.10
  -1   1  -9    3.90    3.00
   2  -1   9  126.59    9.10
  -2  -1  -9  137.39   12.10
  -2  -1  -9  135.59   10.40
  -2  -1  -9  130.29    9.20
  -2  -1  -9  120.69    9.00
  -2  -1  -9  137.89    9.00
  -2   1  -9  136.89    8.90
  -2   1  -9  130.59    9.10
  -2   1  -9  113.59   11.90
   2   1   9  122.89    8.80
   2   1   9  113.49    9.20
  -2   1  -9  125.19    9.00
   2   1   9  127.39    8.00
  -2   1  -9  140.59   10.60
  -3  -1  -9   65.39    7.20
  -3  -1  -9   75.59    8.20
  -3  -1  -9   65.69    6.50
   3  -1   9   70.59    6.60
  -3  -1  -9   45.80    8.30
   3  -1   9   68.49    6.90
  -3  -1  -9   63.49    6.60
  -3   1  -9   71.09    6.70
  -3   1  -9   38.30    7.90
  -3   1  -9   56.59    6.30
  -3   1  -9   61.99    6.70
   3   1   9   63.69    6.60
   3   1   9   64.29    6.90
  -3   1  -9   51.89    7.40
   3   1   9   69.99    6.10
   4  -1   9   -0.70    3.40
  -4  -1  -9    3.40    4.60
   4   1   9   -0.40    2.80
  -4   1  -9   -7.90    3.10
   5  -2  -9   40.10    5.00
   5   2  -9   41.50    6.50
   4  -2  -9    3.70    3.30
   4  -2  -9   -0.70    2.60
   4  -2  -9    1.70    3.20
  -4  -2   9    1.80    3.70
   4  -2  -9    8.00    4.90
   4  -2  -9    6.90    3.90
   4   2  -9    1.00    3.00
   4   2  -9    0.50    3.20
  -4   2   9    0.70    3.20
   4   2  -9    7.00    4.80
   3  -2  -9   75.69    7.40
   3  -2  -9   68.99    7.40
   3  -2  -9   71.19    7.40
   3  -2  -9   75.89    6.40
   3  -2  -9   92.69   10.40
  -3  -2   9   74.09    8.10
   3   2  -9   87.69    8.20
   3   2  -9   76.79    9.80
   3   2  -9   62.49    6.50
   3   2  -9   68.39    5.20
  -3   2   9   59.99    7.30
  -2  -2   9  176.48   10.00
  -2  -2   9  150.48   11.20
   2  -2  -9  151.58   10.40
   2  -2  -9  161.48   10.20
   2  -2  -9  160.68   10.90
   2  -2  -9  186.08   12.50
   2  -2  -9  141.99    9.40
   2   2  -9  152.88    8.70
   2   2  -9  181.78   12.90
  -2   2   9  137.69   10.50
  -2   2   9  161.58    9.60
   2   2  -9  157.08   10.50
   2   2  -9  148.99    9.50
   1  -2  -9   81.59    7.00
   1  -2  -9   61.89    6.20
  -1  -2   9   73.89    6.40
   1  -2  -9   69.59    7.30
   1  -2  -9   71.19    6.10
  -1  -2   9   76.99    8.10
   1  -2  -9   71.79    8.00
   1   2  -9   68.79    6.10
   1   2  -9   69.29    5.50
   1   2  -9   79.59    7.20
  -1   2   9   75.19    7.70
  -1   2   9   78.19    6.50
   1   2  -9   57.59    7.70
   0  -2  -9  144.89   10.80
   0  -2   9  140.59    9.20
   0  -2  -9  139.99    9.00
   0  -2  -9  134.69    9.40
   0  -2  -9  136.39   10.10
   0   2  -9  141.89    9.50
   0   2   9  136.99    9.00
   0   2  -9  133.79   11.20
   0   2  -9  136.99    8.30
   0   2  -9  124.09    8.50
   0   2  -9  134.59    9.70
   1  -2   9  253.67   13.90
  -1  -2  -9  239.48   14.40
  -1  -2  -9  237.48   13.50
  -1  -2  -9  250.87   13.70
  -1  -2  -9  248.38   14.00
  -1  -2  -9  266.57   16.10
   1   2   9  262.67   13.90
  -1   2  -9  248.98   13.20
   1   2   9  248.78   13.80
  -1   2  -9  240.58   13.40
  -1   2  -9  257.47   14.60
   1   2   9  239.08   12.70
  -1   2  -9  249.08   13.90
  -1   2  -9  231.68   16.20
   2  -2   9   38.40    5.10
  -2  -2  -9   23.40    5.50
  -2  -2  -9   34.30    6.90
  -2  -2  -9   28.70    4.60
  -2  -2  -9   29.70    4.70
   2  -2   9   30.70    4.50
  -2  -2  -9   37.10    5.60
   2   2   9   28.40    4.60
  -2   2  -9   21.00    4.10
  -2   2  -9   31.50    4.80
  -2   2  -9   24.80    4.40
   2   2   9   28.10    4.80
  -2   2  -9   28.20    6.80
   2   2   9   31.50    4.20
  -2   2  -9   30.60    5.90
  -3  -2  -9   32.90    7.00
   3  -2   9   37.00    5.40
  -3  -2  -9   32.90    5.20
  -3  -2  -9   33.60    4.90
  -3  -2  -9   31.60    6.30
  -3  -2  -9   35.40    5.70
   3  -2   9   39.40    5.30
  -3   2  -9   29.50    6.00
   3   2   9   35.90    5.00
  -3   2  -9   44.60    5.60
   3   2   9   41.90    6.00
  -3   2  -9   24.40    7.00
   3   2   9   35.40    4.60
  -3   2  -9   31.90    5.00
   4  -2   9   68.49    7.30
  -4  -2  -9   63.39    8.50
   4   2   9   69.39    6.80
  -4   2  -9   73.59    7.70
   5  -3  -9    0.20    3.50
   5  -3  -9    5.70    3.60
   5   3  -9   -1.00    4.20
   4  -3  -9   18.00    3.80
   4  -3  -9   12.80    4.30
   4  -3  -9    5.90    4.60
   4  -3  -9   11.00    4.10
   4  -3  -9   12.30    4.30
  -4  -3   9   15.50    4.80
   4   3  -9    7.20    3.70
   4   3  -9   14.40    5.70
  -4   3   9    9.30    4.20
   4   3  -9   10.50    3.80
   3  -3  -9   13.50    5.70
  -3  -3   9   14.60    4.60
   3  -3  -9    8.00    3.30
   3  -3  -9   10.90    4.40
   3  -3  -9   12.40    4.00
   3  -3  -9    6.40    3.80
  -3  -3   9    6.30    4.00
   3   3  -9   14.30    5.70
  -3   3   9   12.80    4.10
   3   3  -9   11.30    3.70
   3   3  -9    6.00    3.20
   2  -3  -9    4.20    3.20
  -2  -3   9    1.20    3.50
   2  -3  -9   -1.90    2.90
   2  -3  -9    2.60    4.20
   2  -3  -9    0.20    3.00
  -2  -3   9   -4.30    2.80
   2  -3  -9   -0.90    2.60
   2   3  -9    0.20    2.50
   2   3  -9    1.80    1.90
  -2   3   9   -1.30    3.00
   2   3  -9   -5.20    3.70
  -2   3   9    7.10    2.90
   2   3  -9    3.40    3.10
   1  -3  -9   44.60    5.20
   1  -3  -9   45.60    6.30
   1  -3  -9   45.60    5.20
   1  -3  -9   47.20    5.60
   1  -3  -9   40.20    6.20
   1   3  -9   41.30    5.50
  -1   3   9   40.60    4.90
   1   3  -9   50.09    4.20
  -1   3   9   40.80    5.60
   1   3  -9   43.00    5.60
   1   3  -9   31.50    6.00
   0  -3   9   18.70    3.90
   0  -3  -9   30.00    5.60
   0  -3  -9   18.80    3.80
   0  -3  -9   19.90    4.70
   0  -3  -9   27.10    4.70
   0   3   9   22.60    3.30
   0   3   9   23.50    3.90
   0   3  -9   25.30    3.40
   0   3  -9   20.10    3.60
   0   3  -9   20.40    5.40
   0   3  -9   23.00    4.40
   0   3  -9   24.90    4.60
   0   3   9   30.80    4.40
  -1  -3  -9    6.70    4.20
  -1  -3  -9    1.50    3.40
   1  -3   9    3.50    3.20
  -1  -3  -9   -4.30    2.80
  -1  -3  -9    2.30    3.00
  -1  -3  -9    4.00    2.90
   1   3   9   -0.90    2.80
  -1   3  -9    1.80    2.70
  -1   3  -9    2.30    3.10
   1   3   9    0.50    2.20
  -1   3  -9    7.10    3.80
  -1   3  -9    2.90    4.40
   1   3   9    1.40    3.00
  -1   3  -9    4.00    2.50
  -2  -3  -9   25.00    6.00
   2  -3   9   13.40    4.00
  -2  -3  -9   21.20    4.90
  -2  -3  -9   24.90    4.40
   2  -3   9   24.50    4.20
  -2  -3  -9   19.50    4.10
  -2  -3  -9   27.90    4.90
  -2   3  -9   24.80    5.50
   2   3   9   24.20    4.60
   2   3   9   26.50    4.60
   2   3   9   19.90    3.70
  -2   3  -9   17.00    4.00
  -2   3  -9   23.70    4.20
  -2   3  -9   29.70    6.90
  -2   3  -9   22.20    4.00
   3  -3   9   19.60    4.60
  -3  -3  -9   16.30    5.20
  -3  -3  -9   10.30    4.20
  -3  -3  -9   19.10    5.70
   3  -3   9   18.40    4.00
  -3  -3  -9   18.50    4.30
  -3   3  -9   18.50    4.20
  -3   3  -9   13.80    6.40
   3   3   9   16.60    4.40
  -3   3  -9    9.70    3.80
  -3   3  -9   10.10    3.80
   3   3   9   12.90    3.40
   3   3   9   16.10    4.20
   4  -3   9    6.30    3.60
  -4   3  -9    4.70    4.80
   5  -4  -9   16.30    4.60
   5   4  -9   12.10    8.50
   4  -4  -9    3.60    3.80
   4  -4  -9    7.40    4.80
  -4  -4   9   -0.80    3.80
   4  -4  -9    0.00    3.20
   4  -4  -9    1.10    2.90
   4  -4  -9   -3.80    3.50
   4   4  -9   -3.10    2.80
   4   4  -9   -2.60    4.60
  -4   4   9   -2.00    3.10
   4   4  -9    1.40    3.60
   3  -4  -9   27.10    5.10
   3  -4  -9   25.80    4.60
   3  -4  -9   30.30    5.00
   3  -4  -9   35.40    5.80
   3  -4  -9   34.20    6.90
  -3  -4   9   25.20    4.20
  -3  -4   9   30.20    5.60
   3   4  -9   24.00    6.30
  -3   4   9   20.80    4.80
   3   4  -9   21.20    4.20
   3   4  -9   26.30    4.70
  -2  -4   9   36.90    4.90
   2  -4  -9   41.00    5.60
  -2  -4   9   48.20    6.90
   2  -4  -9   45.40    7.10
   2  -4  -9   36.40    5.40
   2  -4  -9   41.60    5.90
   2  -4  -9   43.20    5.30
  -2   4   9   30.40    5.30
  -2   4   9   47.90    5.00
   2   4  -9   47.30    5.90
   2   4  -9   41.50    7.40
   1  -4  -9    0.70    3.10
   1  -4  -9    2.20    2.80
  -1  -4   9   -3.40    3.00
   1  -4  -9    5.50    3.70
   1  -4  -9    5.40    3.20
   1  -4  -9   -1.10    3.40
   1   4  -9    7.90    3.60
  -1   4   9    5.60    3.40
   1   4  -9    1.90    2.90
   1   4  -9    6.10    2.00
  -1   4   9    0.80    2.50
   1   4  -9    1.70    3.60
  -1   4   9    3.70    3.00
   0  -4  -9   52.99    6.20
   0  -4  -9   52.49    6.90
   0  -4   9   53.39    5.70
   0  -4  -9   42.40    5.30
   0  -4  -9   52.19    6.50
   0   4  -9   48.60    5.80
   0   4  -9   52.79    6.10
   0   4   9   44.20    4.60
   0   4  -9   49.00    4.40
   0   4   9   41.80    5.00
   0   4  -9   49.00    7.40
   0   4   9   50.59    5.50
  -1  -4  -9   54.19    7.10
   1  -4   9   54.99    5.80
  -1  -4  -9   43.70    5.90
  -1  -4  -9   38.30    5.50
  -1  -4  -9   41.60    5.30
  -1  -4  -9   34.10    4.90
   1  -4   9   37.50    4.90
   1   4   9   46.90    4.80
   1   4   9   46.90    5.40
  -1   4  -9   39.20    7.00
   1   4   9   41.80    5.20
  -1   4  -9   38.30    5.80
  -1   4  -9   48.40    5.90
  -1   4  -9   42.80    4.60
  -1   4  -9   47.40    5.10
   2  -4   9    2.60    3.20
   2  -4   9    9.10    3.70
  -2  -4  -9    2.40    4.30
  -2  -4  -9    7.60    3.40
  -2  -4  -9   14.70    4.60
  -2  -4  -9   12.20    3.50
  -2  -4  -9    9.20    3.90
   2   4   9    4.30    3.60
  -2   4  -9   -0.10    3.90
  -2   4  -9    3.90    5.10
  -2   4  -9    7.90    3.50
   2   4   9    2.00    3.00
  -2   4  -9    8.60    3.20
  -2   4  -9    5.90    3.40
  -3  -4  -9   16.50    4.70
  -3  -4  -9   22.00    5.40
   3  -4   9   18.60    4.40
  -3  -4  -9   10.70    5.00
   3  -4   9   13.80    4.20
  -3  -4  -9   18.40    5.40
   3   4   9   18.20    3.90
  -3   4  -9   18.60    4.40
   3   4   9   20.70    4.70
  -3   4  -9   16.80    4.40
  -3   4  -9   30.30    9.30
  -3   4  -9   18.70    4.30
   3   4   9   17.30    5.40
   5  -5  -9   18.30    4.90
   4  -5  -9  115.39    9.30
   4  -5  -9  104.29    9.60
  -4  -5   9   92.69    9.80
   4  -5  -9  104.69    9.10
   4  -5  -9   98.29   10.60
   4  -5  -9   96.59    8.10
   4   5  -9   87.39    8.60
  -4   5   9   95.79    9.60
   4   5  -9  131.49   11.90
   4   5  -9  107.59    8.90
   3  -5  -9   51.09    6.80
   3  -5  -9   57.79    7.10
  -3  -5   9   52.89    7.20
   3  -5  -9   60.89    8.50
  -3  -5   9   49.90    5.40
   3  -5  -9   52.19    6.70
   3  -5  -9   52.89    6.00
  -3   5   9   46.80    6.50
   3   5  -9   62.29    6.30
   3   5  -9   44.60    5.90
   3   5  -9   63.79    9.20
   2  -5  -9   23.30    5.00
   2  -5  -9   30.90    6.30
   2  -5  -9   29.40    5.10
   2  -5  -9   23.80    4.30
  -2  -5   9   30.50    5.70
   2  -5  -9   27.20    5.30
  -2  -5   9   25.40    4.40
   2   5  -9   21.70    5.90
  -2   5   9   17.20    4.30
   2   5  -9   23.80    4.50
  -2   5   9   22.70    4.00
   1  -5  -9  178.28   11.10
   1  -5  -9  192.78   11.00
   1  -5  -9  172.58   12.10
   1  -5  -9  200.58   12.00
   1  -5  -9  171.88   11.00
  -1  -5   9  167.78   10.90
  -1   5   9  175.18   10.80
  -1   5   9  158.08    9.50
  -1   5   9  193.18   10.60
   1   5  -9  160.38   10.70
   1   5  -9  163.48   12.50
   1   5  -9  157.88    8.80
   0  -5  -9  143.49    8.90
   0  -5   9  129.59    9.20
   0  -5  -9  136.29   10.10
   0  -5  -9  122.19    9.50
   0  -5  -9  120.99    8.90
   0   5  -9  106.79    7.10
   0   5  -9  111.49   10.50
   0   5   9  124.29    8.60
   0   5  -9  119.09    8.90
   0   5   9  109.49    7.50
   0   5  -9  110.39    8.90
  -1  -5  -9    3.80    3.50
  -1  -5  -9    4.00    3.70
   1  -5   9    9.60    3.20
  -1  -5  -9    3.90    3.20
  -1  -5  -9   12.40    4.60
   1   5   9    0.30    2.30
   1   5   9    7.80    3.40
  -1   5  -9    7.70    3.00
  -1   5  -9   -1.20    3.30
  -1   5  -9    2.80    4.40
   1   5   9    7.80    5.50
  -1   5  -9    0.80    2.40
   1   5   9    5.00    3.10
  -1   5  -9    4.40    3.30
   2  -5   9  135.79    9.90
  -2  -5  -9  150.28   11.90
  -2  -5  -9  157.78   10.70
  -2  -5  -9  141.09   10.00
  -2  -5  -9  157.18   11.00
   2  -5   9  159.88   10.20
  -2  -5  -9  144.59    9.50
   2   5   9  141.79   10.00
  -2   5  -9  126.89   12.70
  -2   5  -9  150.48   10.20
  -2   5  -9  156.48    9.90
   2   5   9  150.38    9.30
  -2   5  -9  152.18    9.40
   2   5   9  144.99   10.10
   2   5   9  167.28   10.50
   3  -5   9  120.69    8.80
  -3  -5  -9   86.69    9.50
  -3  -5  -9  113.59   10.00
  -3   5  -9   96.89    7.80
   3   5   9  112.59    8.60
  -3   5  -9   81.79    8.10
  -3   5  -9   86.89    8.40
   3   5   9   96.59    7.60
   3   5   9   99.49    8.70
   4  -6  -9    0.50    4.30
   4  -6  -9    4.30    3.60
   4  -6  -9    0.80    3.80
   4  -6  -9    2.80    3.40
   4  -6  -9    3.00    4.10
   4   6  -9    0.10    3.40
   4   6  -9    3.80    5.20
  -4   6   9    0.90    3.60
   4   6  -9    6.60    3.60
   3  -6  -9   53.69    7.70
   3  -6  -9   33.00    5.60
   3  -6  -9   40.70    5.60
  -3  -6   9   34.10    6.10
   3  -6  -9   47.50    6.90
   3  -6  -9   36.80    6.10
  -3  -6   9   35.90    4.90
   3   6  -9   31.90    6.80
   3   6  -9   23.80    4.70
  -3   6   9   27.60    5.10
   3   6  -9   37.60    5.20
   2  -6  -9   79.19    7.90
   2  -6  -9   71.89    6.90
   2  -6  -9   81.39    8.00
  -2  -6   9   77.89    7.10
   2  -6  -9  101.39   10.00
   2  -6  -9   78.89    8.10
  -2  -6   9   79.59    8.30
   2   6  -9   80.39    7.80
   2   6  -9   69.79    7.10
  -2   6   9   71.49    7.40
  -2   6   9   75.89    7.30
  -2   6   9   78.99    6.60
   2   6  -9   65.19    8.80
   1  -6  -9   17.60    4.00
   1  -6  -9    7.10    3.80
   1  -6  -9   16.80    4.60
   1  -6  -9   14.80    4.10
  -1  -6   9   20.50    4.30
   1  -6  -9   19.10    4.20
   1   6  -9   12.60    4.30
  -1   6   9   11.80    3.50
   1   6  -9   10.20    3.50
  -1   6   9   15.20    3.30
   1   6  -9    9.90    4.70
   0  -6  -9   48.90    6.00
   0  -6  -9   50.59    6.70
   0  -6   9   59.69    6.20
   0  -6   9   56.49    5.80
   0  -6  -9   54.39    5.80
   0  -6  -9   46.30    5.60
   0  -6  -9   46.90    6.40
   0   6  -9   45.20    7.20
   0   6  -9   46.40    6.00
   0   6  -9   51.39    4.40
   0   6  -9   49.10    5.80
   0   6   9   48.20    5.10
   0   6   9   52.39    5.80
  -1  -6  -9   74.99    7.60
   1  -6   9   80.89    7.80
   1  -6   9   82.19    7.10
  -1  -6  -9   96.19    8.60
  -1  -6  -9   80.39    7.60
  -1  -6  -9   83.49    8.70
  -1   6  -9   87.59    9.70
   1   6   9   86.69    7.50
   1   6   9   97.99    7.60
  -1   6  -9   90.29    6.20
   1   6   9   68.49    6.30
   1   6   9   74.59    7.30
  -1   6  -9  100.19    8.10
  -1   6  -9   74.19    8.20
  -2  -6  -9   13.90    4.50
  -2  -6  -9   19.10    4.20
  -2  -6  -9   19.90    5.10
  -2  -6  -9   15.00    4.70
   2  -6   9   22.40    4.90
   2  -6   9   22.30    4.40
   2   6   9   17.00    4.10
  -2   6  -9   18.40    6.30
   2   6   9   19.80    4.30
   2   6   9   17.40    4.30
  -2   6  -9   22.40    3.80
  -2   6  -9   21.30    4.10
  -2   6  -9   10.50    3.90
   2   6   9   16.20    3.60
   3  -6   9    9.70    4.20
  -3  -6  -9    6.30    4.70
  -3   6  -9   22.60    4.70
   3   6   9   11.20    4.00
   3   6   9   18.80    4.80
   3   6   9   15.10    3.80
  -3   6  -9   18.10    4.30
   4  -7  -9    2.30    4.60
   4  -7  -9   -0.20    5.30
   4  -7  -9   -3.90    3.80
   4   7  -9   -0.40    3.50
  -4   7   9   -0.70    3.20
   4   7  -9    4.60    4.00
  -3  -7   9   -1.60    3.70
   3  -7  -9    2.00    3.50
   3  -7  -9    3.70    3.60
   3  -7  -9    5.90    4.80
  -3  -7   9    3.10    3.10
   3  -7  -9   -1.50    3.90
   3  -7  -9    1.80    4.20
  -3   7   9   -3.40    2.90
   3   7  -9    3.60    4.50
   3   7  -9   -2.30    2.70
  -3   7   9    3.30    3.20
   3   7  -9   -1.40    3.10
   2  -7  -9    0.00    3.70
  -2  -7   9    3.00    3.90
   2  -7  -9   -2.60    3.30
   2  -7  -9    0.00    3.80
   2  -7  -9    3.70    3.50
  -2  -7   9    6.50    3.40
   2  -7  -9    0.50    2.90
   2   7  -9    0.80    3.20
   2   7  -9    2.00    4.20
  -2   7   9    0.00    3.00
  -2   7   9   -1.10    2.90
  -2   7   9    5.10    2.80
  -2   7   9    1.30    3.10
   2   7  -9   -3.50    2.60
   1  -7  -9    7.60    3.90
   1  -7  -9    0.60    3.10
   1  -7  -9   -1.10    3.40
   1  -7  -9   -0.40    3.00
  -1  -7   9    0.90    3.20
   1  -7  -9    1.40    3.60
   1   7  -9    3.40    3.50
   1   7  -9    2.40    3.90
  -1   7   9    1.80    2.90
  -1   7   9    5.00    3.30
   1   7  -9    3.30    3.00
  -1   7   9    5.00    2.90
  -1   7   9    6.70    3.50
   0  -7  -9    2.10    3.00
   0  -7   9   -4.80    3.00
   0  -7  -9    0.20    3.20
   0  -7  -9   -2.50    2.90
   0  -7  -9    1.70    3.10
   0  -7  -9   -0.30    2.90
   0  -7   9   -1.50    2.90
   0   7  -9    0.00    3.20
   0   7  -9    3.10    3.20
   0   7   9    2.00    2.40
   0   7   9   -5.30    2.90
   0   7   9   -0.20    2.80
   0   7  -9   -4.80    3.30
   1  -7   9    0.20    3.10
  -1  -7  -9   -0.70    3.40
  -1  -7  -9    1.40    3.50
  -1  -7  -9   -0.10    3.10
  -1  -7  -9    3.00    3.30
   1  -7   9   -2.10    3.20
  -1   7  -9    1.10    3.20
   1   7   9   -3.10    2.70
  -1   7  -9   -0.30    4.00
  -1   7  -9   -0.20    2.10
   1   7   9   -3.20    2.40
   1   7   9   -7.30    2.70
   1   7   9    5.90    3.00
  -2  -7  -9    6.00    3.60
   2  -7   9   12.50    4.30
  -2  -7  -9    8.30    4.20
   2  -7   9   10.00    4.00
  -2  -7  -9    8.10    4.40
  -2  -7  -9   14.70    4.70
   2   7   9    5.40    3.00
  -2   7  -9    5.30    3.70
   2   7   9   12.20    3.70
  -2   7  -9    8.20    3.10
   2   7   9    3.80    3.60
   2   7   9    9.00    3.70
  -2   7  -9    7.40    5.10
  -3  -7  -9   -2.20    3.80
  -3  -7  -9   -8.60    5.10
   3  -7   9   10.20    4.40
   3   7   9   -0.70    3.40
  -3   7  -9   -4.10    3.00
   4  -8  -9   -3.90    4.40
   4   8  -9   -2.50    3.10
  -4   8   9    0.70    3.30
   4   8  -9    2.20    3.40
  -4   8   9    8.30    4.00
  -3  -8   9   58.49    7.60
   3  -8  -9   59.39    8.00
   3  -8  -9   52.99    7.00
   3  -8  -9   49.70    7.20
   3  -8  -9   48.50    6.40
  -3  -8   9   55.39    5.90
   3   8  -9   31.30    7.30
  -3   8   9   61.99    6.90
  -3   8   9   44.10    6.10
   3   8  -9   52.29    6.50
   3   8  -9   61.29    6.50
   3   8  -9   60.09    6.40
   2  -8  -9   72.69    7.90
   2  -8  -9   60.19    7.40
   2  -8  -9   81.49    8.70
   2  -8  -9   73.29    7.30
  -2  -8   9   62.69    6.50
   2  -8  -9   59.09    7.50
   2   8  -9   72.79    9.00
  -2   8   9   60.49    7.30
  -2   8   9   62.99    7.00
  -2   8   9   62.79    6.10
   2   8  -9   67.89    7.10
   2   8  -9   55.49    6.50
  -2   8   9   55.69    6.00
   1  -8  -9   10.80    3.70
   1  -8  -9   14.80    4.40
   1  -8  -9   10.70    3.80
   1  -8  -9   14.40    4.40
   1  -8  -9   10.80    4.10
  -1  -8   9    8.90    4.00
  -1  -8   9   10.50    4.10
  -1   8   9   10.30    4.00
  -1   8   9   13.10    3.30
   1   8  -9   10.60    3.60
   1   8  -9   16.80    5.00
   1   8  -9    7.70    3.70
  -1   8   9    4.30    3.40
   0  -8  -9   64.09    6.80
   0  -8  -9   60.39    7.20
   0  -8  -9   71.79    7.80
   0  -8  -9   82.79    8.00
   0  -8   9   77.79    7.40
   0  -8  -9   59.19    6.50
   0  -8   9   62.59    6.60
   0   8   9   63.69    6.70
   0   8  -9   59.29    6.80
   0   8   9   64.49    7.10
   0   8   9   61.09    6.10
   0   8  -9   71.89    8.80
  -1  -8  -9   58.69    6.90
  -1  -8  -9   73.09    8.10
  -1  -8  -9   76.59    8.00
   1  -8   9   74.49    7.50
  -1  -8  -9   74.39    7.90
   1  -8   9   66.39    7.10
  -1   8  -9   75.09    9.10
  -1   8  -9   75.09    7.40
   1   8   9   71.49    7.30
   1   8   9   76.49    6.70
  -1   8  -9   71.09    5.50
   1   8   9   81.29    7.40
  -2  -8  -9   24.30    5.40
   2  -8   9   28.60    5.10
  -2  -8  -9   18.30    4.90
   2   8   9   19.10    4.60
  -2   8  -9   21.70    3.70
  -2   8  -9   21.00    6.00
   2   8   9   16.90    3.80
   2   8   9   23.10    4.80
  -3  -8  -9   15.50    5.10
  -3  -8  -9   10.50    3.90
   3   8   9   21.60    4.80
  -3   8  -9   21.10    7.40
   4  -9  -9   71.39    9.30
  -4   9   9   47.60    6.50
  -4   9   9   53.99    6.70
   4   9  -9   63.19    7.50
   4   9  -9   60.29    7.00
  -3  -9   9   34.10    4.80
  -3  -9   9   39.70   10.00
   3  -9  -9   44.40    6.90
   3  -9  -9   17.10    5.50
   3  -9  -9   33.50    5.90
   3  -9  -9   40.00    7.00
  -3   9   9   27.40    5.30
   3   9  -9   41.40    5.70
   3   9  -9   44.20    7.80
   3   9  -9   40.00    5.60
   3   9  -9   32.00    4.90
  -3   9   9   37.70    5.10
   2  -9  -9   11.90    4.50
  -2  -9   9   16.40    4.10
   2  -9  -9   11.10    4.60
   2  -9  -9    9.90    3.90
   2  -9  -9   16.80    4.90
   2  -9  -9   13.00    4.70
   2   9  -9   11.10    5.00
  -2   9   9   14.80    4.30
   2   9  -9   16.00    4.20
   2   9  -9    7.90    3.80
   2   9  -9   10.90    3.70
  -2   9   9   12.40    3.60
   1  -9  -9   79.89    8.10
   1  -9  -9   84.29    8.40
   1  -9  -9   64.69    7.30
  -1  -9   9   67.99    7.20
   1  -9  -9   78.09    7.60
  -1  -9   9   71.79    7.30
   1  -9  -9   71.99    7.70
   1   9  -9   74.69    7.20
   1   9  -9   80.89    7.80
   1   9  -9   78.09    9.20
  -1   9   9   69.09    7.40
  -1   9   9   65.39    7.60
  -1   9   9   79.29    6.70
   0  -9  -9   50.39    6.40
   0  -9   9   53.09    6.40
   0  -9  -9   53.39    6.70
   0  -9  -9   41.10    5.80
   0  -9   9   53.79    6.20
   0  -9  -9   53.19    6.30
   0  -9  -9   56.09    6.90
   0   9   9   57.49    6.60
   0   9  -9   54.99    7.60
   0   9  -9   55.19    6.80
   0   9   9   65.09    7.40
   0   9   9   47.00    5.60
  -1  -9  -9    0.10    3.10
  -1  -9  -9   -4.40    3.50
  -1  -9  -9   -1.00    3.50
   1  -9   9    1.50    3.30
   1  -9   9   -1.00    3.40
  -1  -9  -9    0.50    3.20
  -1   9  -9   -5.10    3.50
   1   9   9   -1.40    2.80
   1   9   9   -2.40    2.50
   1   9   9    1.60    3.10
  -1   9  -9    1.90    3.60
   2  -9   9   84.59    8.00
   2   9   9   85.09    8.30
  -2   9  -9   82.69    6.50
   2   9   9   77.49    7.90
   2   9   9   65.79    7.50
  -2   9  -9   64.89    9.00
  -3 -10   9    6.50    3.50
   3  10  -9    7.10    4.90
  -3  10   9    4.20    3.40
   3  10  -9   -0.60    4.50
  -3  10   9   -1.10    3.10
   3  10  -9    8.60    3.90
   3  10  -9    8.10    3.90
   2 -10  -9    2.10    4.10
  -2 -10   9    7.50    3.70
   2 -10  -9   18.40    5.00
   2 -10  -9    2.30    3.80
  -2  10   9    4.70    3.80
  -2  10   9    5.80    3.40
   2  10  -9    0.60    4.00
   2  10  -9    6.80    3.90
   2  10  -9   11.00    3.80
   2  10  -9    6.10    3.40
  -1 -10   9   -4.40    3.10
   1 -10  -9    7.40    3.50
   1 -10  -9   -1.70    3.50
  -1 -10   9    0.60    3.20
   1 -10  -9    1.60    3.40
   1 -10  -9   -5.60    3.30
   1  10  -9   -1.00    3.10
  -1  10   9    0.20    3.30
   1  10  -9    2.20    3.60
  -1  10   9    1.90    3.50
  -1  10   9    0.30    3.00
   1  10  -9   -3.30    3.70
   0 -10  -9   -0.90    3.40
   0 -10  -9    4.10    3.50
   0 -10  -9   -1.70    3.80
   0 -10   9    0.50    3.20
   0 -10  -9   -3.40    3.00
   0 -10   9    5.90    4.00
   0  10  -9   -0.30    3.40
   0  10   9   -2.10    3.20
   0  10   9    3.10    3.10
   0  10  -9    0.40    3.60
   0  10   9    2.70    3.40
   0  10  -9   -0.60    3.90
   1 -10   9    1.80    3.70
  -1  10  -9    0.10    3.90
   1  10   9   -1.00    3.40
   1  10   9    4.10    3.10
   1  10   9    3.40    4.10
   2 -10   9    7.40    4.40
   2  10   9    2.50    3.70
  -2  10  -9   11.30    3.30
   2  10   9    7.30    3.80
  -3 -11   9    5.70    3.80
   3  11  -9    9.40    3.90
  -3  11   9    7.40    3.60
   3  11  -9    5.50    5.60
   3  11  -9    6.40    3.60
  -2 -11   9    4.60    6.00
  -2 -11   9   -3.30    3.20
   2 -11  -9    0.30    4.30
   2  11  -9   -2.60    3.20
   2  11  -9   -3.30    4.00
  -2  11   9    0.60    3.20
   2  11  -9    5.70    3.90
   1 -11  -9   34.50    5.80
  -1 -11   9   29.80    5.30
  -1 -11   9   27.60    5.10
  -1  11   9   33.90    5.00
   1  11  -9   25.70    6.10
   1  11  -9   34.10    5.90
  -1  11   9   34.80    5.50
   1  11  -9   30.40    5.40
   0 -11   9    9.00    4.00
   0 -11  -9    9.60    4.20
   0  11   9    7.10    3.90
   0  11   9   14.60    3.80
   0  11  -9    8.70    4.90
   1 -11   9    0.40    3.20
   1  11   9    0.90    3.50
  -1  11  -9   -3.60    3.80
  -2 -12   9   39.00    6.40
   2  12  -9   49.40    7.70
   2  12  -9   42.10    6.20
  -1 -12   9    8.40    4.20
   1 -12  -9    7.10    4.10
   1  12  -9   10.80    4.00
  -1  12   9    9.00    4.20
   1  12  -9   11.70    5.00
   0 -12   9   31.80    5.50
   0 -12  -9   28.90    5.30
   0  12  -9   22.50    5.90
   0  12   9   31.20    5.40
   4   0 -10   93.39    8.90
   4   0 -10   82.49    6.60
   3   0 -10    1.70    3.80
   3   0 -10   12.40    3.00
  -3   0  10    7.80    4.40
   3   0 -10    4.60    3.80
   3   0 -10   12.80    5.30
   2   0 -10   97.89    8.90
   2   0 -10   90.39   10.50
  -2   0  10  126.19    8.10
  -2   0  10  101.39   10.10
   2   0 -10  107.49    7.20
   1   0 -10  119.49    9.70
   1   0 -10  118.99    8.60
   1   0 -10  110.89    7.80
   1   0 -10  107.39   10.20
  -1   0  10  133.59    8.70
   0   0 -10   21.30    4.20
   0   0 -10   20.70    4.40
   0   0 -10   23.90    4.00
   0   0  10   18.80    4.20
   0   0 -10   15.50    5.30
   0   0 -10   15.30    4.60
  -1   0 -10   29.50    5.70
  -1   0 -10   38.60    5.50
  -1   0 -10   40.00    5.10
  -1   0 -10   39.70    5.70
   1   0  10   30.50    5.00
  -1   0 -10   31.00    6.70
  -2   0 -10  124.09    9.20
  -2   0 -10  115.29   10.40
  -2   0 -10  124.29    9.10
  -2   0 -10  116.29    9.20
  -3   0 -10   33.80    6.70
  -3   0 -10   38.10    5.80
   4  -1 -10    2.80    4.10
   4  -1 -10    5.70    2.80
   4   1 -10    2.10    4.00
   3  -1 -10   48.50    6.50
  -3  -1  10   35.00    6.40
   3  -1 -10   48.70    8.00
   3  -1 -10   53.19    5.20
   3  -1 -10   43.10    6.00
   3   1 -10   46.10    8.00
  -3   1  10   37.30    6.20
   3   1 -10   42.00    4.40
   3   1 -10   51.29    6.60
   3   1 -10   47.30    6.00
   2  -1 -10   31.90    4.30
   2  -1 -10   38.20    5.30
  -2  -1  10   35.80    6.20
   2  -1 -10   31.80    5.40
   2  -1 -10   30.80    6.40
   2   1 -10   26.50    4.90
  -2   1  10   30.00    4.60
  -2   1  10   24.50    5.40
   2   1 -10   29.00    6.30
   2   1 -10   33.30    3.90
  -1  -1  10    3.40    3.20
   1  -1 -10    2.90    3.20
   1  -1 -10    4.50    4.30
   1  -1 -10    1.50    2.70
   1  -1 -10    1.50    3.70
   1   1 -10    4.30    2.50
   1   1 -10    1.90    3.70
   1   1 -10    2.60    3.40
  -1   1  10    2.40    2.90
   0  -1 -10   79.39    7.40
   0  -1  10   55.29    6.10
   0  -1 -10   54.89    6.90
   0  -1 -10   61.89    6.60
   0  -1 -10   52.99    7.70
   0  -1 -10   62.59    6.20
   0   1 -10   63.79    5.80
   0   1 -10   59.29    7.10
   0   1 -10   69.69    7.20
   0   1 -10   55.79    6.30
   0   1 -10   64.09    8.50
   0   1  10   60.69    6.40
  -1  -1 -10   26.10    4.40
  -1  -1 -10   18.30    5.80
  -1  -1 -10   27.30    5.30
  -1  -1 -10   23.30    5.20
  -1  -1 -10   31.50    5.00
   1  -1  10   25.20    4.60
  -1   1 -10   38.40    7.00
  -1   1 -10   20.80    5.00
  -1   1 -10   29.30    4.70
  -1   1 -10   27.20    4.50
   1   1  10   27.00    4.60
  -1   1 -10   20.70    4.10
  -2  -1 -10   -1.00    3.90
  -2  -1 -10    3.70    3.30
  -2  -1 -10   -1.40    6.10
  -2  -1 -10    0.60    3.10
  -2  -1 -10    2.90    4.90
  -2   1 -10   -3.40    2.90
  -2   1 -10    0.40    4.30
  -2   1 -10    2.80    3.50
  -2   1 -10    6.10    3.30
  -3  -1 -10   18.90    5.80
  -3  -1 -10   17.10    4.50
  -3   1 -10   17.80    7.70
   4  -2 -10    8.10    4.30
   4  -2 -10    5.30    3.10
   4   2 -10   -2.10    3.40
  -3  -2  10    5.60    4.50
   3  -2 -10    1.00    2.70
   3  -2 -10   -0.60    3.90
   3  -2 -10   -0.80    3.40
   3  -2 -10    3.60    4.80
   3  -2 -10   -3.70    3.40
  -3   2  10    4.70    3.90
   3   2 -10    1.70    4.80
   3   2 -10    0.60    3.40
   2  -2 -10    5.70    3.60
  -2  -2  10    3.50    3.50
  -2  -2  10    2.10    3.80
   2  -2 -10    3.30    2.90
   2  -2 -10    4.50    4.20
   2  -2 -10    4.40    3.40
   2   2 -10    0.60    4.10
   2   2 -10    1.30    3.30
   2   2 -10    3.70    2.40
  -2   2  10    3.30    3.80
  -2   2  10    5.40    3.20
   1  -2 -10    6.00    3.60
  -1  -2  10    3.60    3.20
   1  -2 -10   11.60    4.60
   1  -2 -10   11.00    3.40
   1  -2 -10    5.80    4.00
   1   2 -10    7.00    2.60
   1   2 -10    8.50    3.70
   1   2 -10    7.00    4.40
  -1   2  10    5.70    3.20
   1   2 -10   14.40    4.30
   0  -2 -10    0.20    3.10
   0  -2  10    1.80    3.10
   0  -2 -10    5.40    4.10
   0  -2 -10    0.10    2.80
   0  -2 -10   -2.20    3.40
   0   2  10    1.80    3.00
   0   2 -10   -1.20    3.50
   0   2 -10    4.00    2.90
   0   2 -10    0.00    2.60
   0   2 -10    1.10    4.00
   0   2 -10    7.10    3.80
  -1  -2 -10    3.70    4.40
  -1  -2 -10    6.20    4.10
  -1  -2 -10    4.70    3.40
  -1  -2 -10    2.60    3.10
  -1  -2 -10    0.20    3.10
   1  -2  10    2.10    3.20
  -1   2 -10   -1.70    3.40
  -1   2 -10    0.40    3.10
  -1   2 -10    4.80    4.70
  -1   2 -10    3.40    2.80
  -1   2 -10   -0.10    3.00
   1   2  10   -6.30    2.60
  -2  -2 -10    5.80    5.40
  -2  -2 -10   14.50    3.90
  -2  -2 -10    8.30    4.60
  -2  -2 -10    8.10    3.90
   2   2  10    8.90    3.80
  -2   2 -10   13.00    3.50
  -2   2 -10   10.70    3.80
  -2   2 -10    7.80    3.90
  -2   2 -10    3.80    4.60
   4  -3 -10    4.60    4.20
   4  -3 -10    4.50    4.80
   4   3 -10    7.50    4.00
   3  -3 -10  109.39   11.40
  -3  -3  10   80.59    9.60
   3  -3 -10   89.29    7.60
   3  -3 -10   93.29    9.00
   3   3 -10  108.39    9.10
  -3   3  10   85.09    9.10
   3   3 -10  109.39   16.90
   2  -3 -10   22.90    5.00
   2  -3 -10   20.60    4.80
  -2  -3  10   32.30    5.00
   2  -3 -10   41.60    5.70
   2  -3 -10   33.40    6.40
   2  -3 -10   35.10    4.80
  -2  -3  10   19.80    5.30
   2   3 -10   26.20    6.00
  -2   3  10   29.40    4.50
  -2   3  10   26.40    5.40
   2   3 -10   33.80    5.40
   1  -3 -10   14.70    4.10
   1  -3 -10   -1.90    3.40
   1  -3 -10    3.60    3.10
   1  -3 -10   -0.80    3.80
   1   3 -10   -0.40    3.70
   1   3 -10    1.30    3.20
  -1   3  10    6.20    3.20
   1   3 -10    0.00    2.20
   1   3 -10    4.80    3.50
  -1   3  10   -1.30    3.40
   0  -3 -10  111.69    9.10
   0  -3  10  125.19    8.80
   0  -3 -10  106.89    9.40
   0  -3 -10  123.49   10.20
   0  -3 -10  117.99    8.40
   0   3 -10  110.29   10.80
   0   3 -10  111.09    9.10
   0   3  10  126.79    8.70
   0   3 -10  110.09    9.50
   0   3 -10  110.29    7.50
  -1  -3 -10   41.70    7.10
  -1  -3 -10   33.90    5.80
  -1  -3 -10   51.39    6.00
  -1  -3 -10   54.59    6.40
   1  -3  10   42.20    5.50
  -1  -3 -10   48.60    5.70
  -1   3 -10   46.80    5.10
   1   3  10   51.39    5.90
  -1   3 -10   46.00    6.10
  -1   3 -10   46.40    5.60
  -1   3 -10   46.10    6.60
   1   3  10   58.29    6.20
  -1   3 -10   50.29    8.10
  -2  -3 -10   -1.90    2.90
  -2  -3 -10   -3.60    3.70
  -2  -3 -10    0.20    3.50
  -2  -3 -10   -2.70    4.50
  -2   3 -10    2.60    3.50
  -2   3 -10    2.70    5.40
  -2   3 -10   -0.20    2.80
   2   3  10    4.70    3.40
  -2   3 -10    0.70    3.10
   4  -4 -10   47.30   11.20
   4  -4 -10   73.19    8.40
   4   4 -10   46.00    6.40
   3  -4 -10    3.30    4.20
   3  -4 -10    3.30    3.00
   3  -4 -10    0.80    4.00
   3  -4 -10    2.00    4.90
  -3   4  10   11.80    4.40
   3   4 -10    3.20    3.70
   2  -4 -10   55.29    6.10
   2  -4 -10   58.49    6.90
  -2  -4  10   55.29    6.40
   2  -4 -10   55.69    7.80
  -2  -4  10   58.69    7.90
   2  -4 -10   54.29    7.30
   2  -4 -10   56.99    6.70
  -2   4  10   60.89    7.50
   2   4 -10   61.69    8.60
  -2   4  10   59.39    5.80
   2   4 -10   50.49    6.50
  -1  -4  10   95.09    8.10
   1  -4 -10   89.09    7.30
   1  -4 -10   89.79    9.30
   1  -4 -10   80.49    8.10
   1  -4 -10   75.39    8.50
  -1   4  10   78.99    8.10
   1   4 -10   97.69    8.70
   1   4 -10   81.09    8.10
   1   4 -10   71.79    7.60
   1   4 -10   69.79    8.90
  -1   4  10   93.19    7.30
   0  -4 -10   10.80    4.60
   0  -4 -10    6.20    4.10
   0  -4 -10   16.80    4.30
   0  -4 -10    8.20    3.60
   0   4 -10   10.00    4.80
   0   4  10   16.10    4.00
   0   4 -10   10.30    4.00
   0   4 -10    8.50    2.60
   0   4 -10    4.20    3.60
   1  -4  10   21.90    4.40
  -1  -4 -10   17.80    4.20
  -1  -4 -10   14.90    5.20
  -1  -4 -10   22.80    5.00
  -1  -4 -10   17.70    4.90
  -1  -4 -10   17.10    4.10
   1   4  10   20.70    4.30
  -1   4 -10   20.50    6.30
  -1   4 -10   19.60    3.60
  -1   4 -10   15.60    4.80
   1   4  10   21.50    4.40
  -1   4 -10   13.30    4.60
  -2  -4 -10   60.89    9.10
  -2  -4 -10   93.79   12.60
  -2  -4 -10   77.19    7.50
  -2   4 -10   89.59    7.60
   2   4  10   98.39    8.20
  -2   4 -10   68.19    6.80
   3  -5 -10   -1.80    3.90
   3  -5 -10   -0.40    3.80
   3  -5 -10    3.40    4.40
   3  -5 -10   -0.20    3.40
  -3   5  10    3.80    3.80
   3   5 -10    0.50    3.50
   2  -5 -10   -0.10    4.00
   2  -5 -10    4.20    4.10
   2  -5 -10    1.40    3.40
   2  -5 -10    1.90    3.90
   2  -5 -10    3.50    3.90
  -2  -5  10   -1.70    3.10
  -2  -5  10   -0.70    4.20
   2   5 -10   -1.20    3.40
  -2   5  10   10.70    4.20
  -2   5  10    3.90    3.70
   2   5 -10    3.00    4.30
   2   5 -10    5.00    4.00
  -1  -5  10    0.50    3.50
   1  -5 -10   -1.60    3.60
   1  -5 -10    1.90    3.20
   1  -5 -10    1.60    3.50
   1  -5 -10   -2.20    3.60
  -1   5  10   -5.50    3.00
  -1   5  10    0.50    3.00
   1   5 -10    3.60    3.90
   1   5 -10   -2.70    3.10
   1   5 -10   -0.10    3.90
   0  -5 -10   -1.10    3.70
   0  -5 -10    7.90    4.00
   0  -5 -10    3.70    3.30
   0  -5  10    9.60    4.00
   0  -5 -10   -1.30    3.70
   0   5 -10   -1.20    3.30
   0   5 -10    8.00    4.60
   0   5 -10   -0.10    3.40
   0   5  10    9.20    3.50
   0   5 -10    4.50    2.50
  -1  -5 -10    2.60    3.10
  -1  -5 -10    3.90    4.00
  -1  -5 -10   -2.30    3.70
  -1  -5 -10    1.30    3.60
   1  -5  10    8.80    3.90
  -1  -5 -10    0.50    3.30
   1   5  10   -1.70    2.90
  -1   5 -10   -0.30    2.40
  -1   5 -10   -0.40    3.60
   1   5  10    0.60    3.00
  -1   5 -10   -0.80    4.40
  -2  -5 -10   -4.20    4.10
   2   5  10    4.30    2.70
  -2   5 -10    2.80    2.90
   2   5  10    0.00    3.40
   3  -6 -10   -1.70    4.20
   3  -6 -10    1.60    3.90
   3  -6 -10   -2.10    4.10
   3   6 -10   -2.20    3.50
  -3   6  10   -0.80    3.40
   2  -6 -10   20.20    5.20
   2  -6 -10   19.00    5.40
   2  -6 -10   29.00    5.50
  -2  -6  10   22.90    4.80
   2  -6 -10   22.10    4.50
  -2   6  10   16.90    4.80
   2   6 -10   17.20    4.50
   2   6 -10   22.60    6.00
   2   6 -10   19.60    4.70
   1  -6 -10   45.80    5.90
   1  -6 -10   46.90    7.00
   1  -6 -10   41.60    6.60
   1  -6 -10   40.70    6.00
  -1  -6  10   39.10    5.70
   1   6 -10   45.80    7.50
   1   6 -10   49.10    6.40
  -1   6  10   55.29    6.60
  -1   6  10   48.50    5.60
   1   6 -10   40.30    5.80
   0  -6  10    5.70    3.90
   0  -6 -10    3.90    4.00
   0  -6 -10    5.10    3.40
   0  -6 -10    2.10    4.00
   0  -6 -10    6.80    3.70
   0   6 -10    6.00    4.50
   0   6 -10    3.50    3.80
   0   6 -10    9.80    4.00
   0   6  10    3.50    3.40
  -1  -6 -10   25.10    4.50
  -1  -6 -10   14.30    5.10
  -1  -6 -10    9.10    4.50
   1   6  10   16.60    5.40
  -1   6 -10   20.70    3.50
   1   6  10   16.80    3.60
  -2  -6 -10   47.40    7.30
  -2   6 -10   50.39    5.60
   2   6  10   57.29    6.60
   2   6  10   44.70    5.60
   3  -7 -10   64.79    8.80
   3  -7 -10   60.89    7.60
  -3   7  10   45.10    6.60
   3   7 -10   67.69   10.50
  -2  -7  10   25.60    4.90
   2  -7 -10   36.30    6.00
   2  -7 -10   29.70    5.80
   2  -7 -10   28.50    6.10
   2   7 -10   20.30    4.60
   1  -7 -10   -2.60    3.30
  -1  -7  10   -1.10    3.30
   1  -7 -10   -1.30    3.20
  -1   7  10   -1.00    3.10
   1   7 -10   -1.70    3.00
   1   7 -10   -0.50    4.20
   1   7 -10    2.90    6.50
   0  -7 -10   75.59    7.90
   0  -7  10   87.39    8.40
   0  -7 -10  110.19    9.30
   0   7  10   95.29    7.00
   0   7  10   70.89    7.40
   0   7 -10  100.29   10.70
  -1  -7 -10   51.39    6.90
   1   7  10   44.20    5.30
   2  -8 -10   -3.50    3.80
   2  -8 -10   -2.30    4.10
  -2  -8  10    4.50    3.70
   2   8 -10    6.30    3.80
   1  -8 -10   26.60    7.70
   1  -8 -10   19.40    5.20
   1  -8 -10   27.50    5.50
  -1  -8  10   20.40    4.90
  -1   8  10   13.20    4.10
   1   8 -10   21.90    7.80
  -1   8  10   17.30    5.00
   0  -8 -10    6.50    4.30
   0   8  10    4.80    3.10
   0   8  10    3.20    3.40
  -1  -8 -10    2.60    3.90
   1   8  10   -1.70    2.60
  -2  -9  10   -1.50    3.80
   2  -9 -10    3.70    4.40
   2   9 -10    3.10    3.90
   2   9 -10    3.90    3.70
   1  -9 -10    0.10    3.60
  -1   9  10    4.30    3.20
  -1   9  10    3.50    3.70
   0   9  10    5.60    3.30
  -1  10  10   49.40    6.30
  -2   0  11   -2.10    3.30
   2   0 -11   -2.30    2.70
   1   0 -11    2.90    2.80
  -1   0  11   -2.00    3.10
   0   0 -11    1.00    2.70
   0   0 -11   -4.40    4.10
   0   0 -11    3.10    3.50
  -1   0 -11   -1.00    3.10
   2  -1 -11   24.80    4.10
   2   1 -11   30.90    4.10
   1  -1 -11   39.40    5.00
   1  -1 -11   34.60    5.90
  -1  -1  11   45.00    5.60
   1   1 -11   38.70    8.90
  -1   1  11   41.20    5.50
   1   1 -11   35.10    4.50
   0  -1 -11    4.10    3.50
   0  -1 -11    1.40    4.30
   0   1 -11   -0.90    3.90
   0   1 -11   -2.70    2.70
  -1  -1 -11   31.30    5.70
  -1   1 -11   28.70    5.90
  -1   1 -11   28.20    5.20
  -2  -2  11   10.70    4.20
   2  -2 -11    3.40    3.10
  -2   2  11    4.10    4.40
   1  -2 -11   19.30    4.40
   1  -2 -11   22.50    4.80
  -1   2  11   23.00    4.40
   1   2 -11    8.40    4.70
   1   2 -11   12.50    3.10
   0  -2 -11   62.89    7.10
   0   2 -11   64.49    7.90
   0   2 -11   69.39    6.10
  -1   2 -11   27.10    5.90
  -2  -3  11   -0.10    3.60
   2  -3 -11    6.70    4.00
  -2   3  11    5.00    4.20
   1  -3 -11   13.60    4.30
  -1  -3  11    6.30    4.40
   1   3 -11    2.80    4.10
  -1   3  11   12.20    3.80
   0  -3 -11    1.20    3.40
   0   3 -11   -7.20    3.50
   0   3 -11    0.30    2.50
   2  -4 -11    9.50    3.90
  -2  -4  11    1.80    3.80
  -2   4  11   -0.40    3.80
   1  -4 -11    4.70    3.80
   1   4 -11    0.20    3.70
  -1   4  11   12.10    3.90
   0  -4 -11   22.30    7.30
   0   4 -11    4.20    4.20
  -1   5  11   38.80    5.20
   1   5 -11   34.30    6.00
   0   0   0    0.00    0.00


_computing_structure_solution     'SHELXT 2014/5 (Sheldrick, 2014)'
_computing_structure_solution     'SHELXT 2014/5 (Sheldrick, 2014)'
;
_shelx_hkl_checksum              35251
_olex2_submission_special_instructions 'No special instructions were received'
loop_
_space_group_symop_operation_xyz
'x, y, z'
'-x, y+1/2, -z+1/2'
'-x, -y, -z'
'x, -y-1/2, z-1/2'
loop_
_atom_site_label
_atom_site_type_symbol
_atom_site_fract_x
_atom_site_fract_y
_atom_site_fract_z
_atom_site_U_iso_or_equiv
_atom_site_adp_type
_atom_site_occupancy
_atom_site_site_symmetry_order
_atom_site_calc_flag
_atom_site_refinement_flags_posn
_atom_site_refinement_flags_adp
_atom_site_refinement_flags_occupancy
_atom_site_disorder_assembly
_atom_site_disorder_group
Te1 Te 0.15744(2) 0.60408(2) 0.06836(2) 0.04372(7) Uani 1 1 d . . . . .
N1 N 0.6927(4) 0.60617(15) 0.0910(3) 0.0657(7) Uani 1 1 d . . . . .
C7 C 0.1594(4) 0.69004(15) 0.2600(3) 0.0506(5) Uani 1 1 d . . . . .
H7AA H 0.229788 0.741583 0.232912 0.061 Uiso 0.46(3) 1 calc R . P A 1
H7AB H 0.006480 0.702886 0.276343 0.061 Uiso 0.46(3) 1 calc R . P A 1
H7BC H 0.212560 0.744079 0.229987 0.061 Uiso 0.54(3) 1 calc R . P A 2
H7BD H 0.008657 0.696941 0.287302 0.061 Uiso 0.54(3) 1 calc R . P A 2
C8 C 0.5040(4) 0.60730(15) 0.0836(3) 0.0490(6) Uani 1 1 d . . . . .
C1 C 0.272(3) 0.6600(14) 0.401(2) 0.041(3) Uani 0.46(3) 1 d D U P A 1
C2 C 0.492(3) 0.6793(15) 0.450(2) 0.052(3) Uani 0.46(3) 1 d D U P A 1
H2 H 0.568504 0.715698 0.391968 0.062 Uiso 0.46(3) 1 calc R . P A 1
C3 C 0.605(3) 0.6463(13) 0.585(2) 0.065(3) Uani 0.46(3) 1 d D U P A 1
H3 H 0.750587 0.661669 0.617436 0.078 Uiso 0.46(3) 1 calc R . P A 1
C4 C 0.491(4) 0.5905(10) 0.6659(15) 0.067(4) Uani 0.46(3) 1 d D U P A 1
H4 H 0.557929 0.569854 0.758102 0.080 Uiso 0.46(3) 1 calc R . P A 1
C5 C 0.283(4) 0.5649(12) 0.615(2) 0.072(3) Uani 0.46(3) 1 d D U P A 1
H5 H 0.211493 0.525247 0.669876 0.086 Uiso 0.46(3) 1 calc R . P A 1
C6 C 0.177(3) 0.5972(15) 0.482(2) 0.054(3) Uani 0.46(3) 1 d D U P A 1
H6 H 0.038077 0.576499 0.445977 0.065 Uiso 0.46(3) 1 calc R . P A 1
C1A C 0.309(3) 0.6580(12) 0.3996(17) 0.038(3) Uani 0.54(3) 1 d D U P A 2
C2A C 0.514(3) 0.6978(13) 0.435(2) 0.047(2) Uani 0.54(3) 1 d D U P A 2
H2A H 0.559579 0.740571 0.373903 0.056 Uiso 0.54(3) 1 calc R . P A 2
C3A C 0.647(2) 0.6719(11) 0.5639(16) 0.060(3) Uani 0.54(3) 1 d D U P A 2
H3A H 0.784100 0.697275 0.589005 0.072 Uiso 0.54(3) 1 calc R . P A 2
C4A C 0.579(3) 0.6090(10) 0.6561(14) 0.068(3) Uani 0.54(3) 1 d D U P A 2
H4A H 0.675883 0.589617 0.737534 0.081 Uiso 0.54(3) 1 calc R . P A 2
C5A C 0.371(3) 0.5750(8) 0.6287(15) 0.065(3) Uani 0.54(3) 1 d D U P A 2
H5A H 0.321832 0.534701 0.693463 0.078 Uiso 0.54(3) 1 calc R . P A 2
C6A C 0.237(3) 0.6021(12) 0.503(2) 0.058(3) Uani 0.54(3) 1 d D U P A 2
H6A H 0.092226 0.581886 0.486716 0.069 Uiso 0.54(3) 1 calc R . P A 2
loop_
_atom_site_aniso_label
_atom_site_aniso_U_11
_atom_site_aniso_U_22
_atom_site_aniso_U_33
_atom_site_aniso_U_23
_atom_site_aniso_U_13
_atom_site_aniso_U_12
Te1 0.03091(9) 0.05197(10) 0.04732(10) -0.00577(7) -0.00069(6) -0.00163(6)
N1 0.0363(12) 0.0881(19) 0.0725(16) -0.0066(12) 0.0048(10) 0.0011(10)
C7 0.0486(13) 0.0466(13) 0.0555(14) -0.0094(11) -0.0006(11) 0.0078(11)
C8 0.0368(12) 0.0581(14) 0.0519(14) -0.0046(11) 0.0041(10) -0.0009(10)
C1 0.030(5) 0.034(5) 0.061(6) -0.015(4) 0.012(4) 0.006(4)
C2 0.053(5) 0.051(10) 0.054(5) -0.007(4) 0.014(4) -0.009(4)
C3 0.057(6) 0.064(10) 0.071(7) -0.016(6) -0.006(5) -0.001(5)
C4 0.082(10) 0.061(8) 0.054(5) -0.005(4) -0.006(6) 0.004(7)
C5 0.095(10) 0.066(6) 0.051(5) -0.003(4) -0.008(6) -0.022(7)
C6 0.056(7) 0.060(5) 0.045(5) -0.010(4) -0.003(4) -0.020(5)
C1A 0.030(5) 0.049(5) 0.035(4) -0.003(3) 0.000(3) 0.007(3)
C2A 0.046(4) 0.042(6) 0.051(5) -0.008(3) -0.002(3) -0.010(3)
C3A 0.054(5) 0.064(7) 0.058(5) -0.022(4) -0.014(3) 0.000(4)
C4A 0.084(8) 0.062(7) 0.053(5) -0.009(4) -0.016(5) 0.016(6)
C5A 0.090(10) 0.052(5) 0.052(5) 0.000(4) -0.006(6) -0.007(6)
C6A 0.059(7) 0.059(4) 0.055(6) -0.008(4) 0.003(4) -0.017(5)
loop_
_atom_type_symbol
_atom_type_description
_atom_type_scat_dispersion_real
_atom_type_scat_dispersion_imag
_atom_type_scat_source
C C 0.0033 0.0016 'International Tables Vol C Tables 4.2.6.8 and 6.1.1.4'
H H 0.0000 0.0000 'International Tables Vol C Tables 4.2.6.8 and 6.1.1.4'
N N 0.0061 0.0033 'International Tables Vol C Tables 4.2.6.8 and 6.1.1.4'
Te Te -0.5308 1.6751 'International Tables Vol C Tables 4.2.6.8 and 6.1.1.4'
loop_
_geom_angle_atom_site_label_1
_geom_angle_atom_site_label_2
_geom_angle_atom_site_label_3
_geom_angle
C8 Te1 C7 90.45(9)
Te1 C7 H7AA 108.6
Te1 C7 H7AB 108.6
Te1 C7 H7BC 109.4
Te1 C7 H7BD 109.4
H7AA C7 H7AB 107.5
H7BC C7 H7BD 108.0
C1 C7 Te1 114.8(11)
C1 C7 H7AA 108.6
C1 C7 H7AB 108.6
C1A C7 Te1 111.3(9)
C1A C7 H7BC 109.4
C1A C7 H7BD 109.4
N1 C8 Te1 177.6(2)
C2 C1 C7 123.4(13)
C2 C1 C6 115.1(11)
C6 C1 C7 120.5(12)
C1 C2 H2 118.4
C1 C2 C3 123.1(11)
C3 C2 H2 118.4
C2 C3 H3 121.4
C4 C3 C2 117.2(10)
C4 C3 H3 121.4
C3 C4 H4 119.2
C5 C4 C3 121.6(10)
C5 C4 H4 119.2
C4 C5 H5 120.0
C4 C5 C6 120.1(11)
C6 C5 H5 120.0
C1 C6 H6 118.9
C5 C6 C1 122.3(10)
C5 C6 H6 118.9
C2A C1A C7 117.4(10)
C6A C1A C7 122.9(10)
C6A C1A C2A 118.8(8)
C1A C2A H2A 121.0
C3A C2A C1A 118.0(9)
C3A C2A H2A 121.0
C2A C3A H3A 119.3
C4A C3A C2A 121.3(8)
C4A C3A H3A 119.3
C3A C4A H4A 119.7
C5A C4A C3A 120.6(8)
C5A C4A H4A 119.7
C4A C5A H5A 121.0
C4A C5A C6A 118.1(8)
C6A C5A H5A 121.0
C1A C6A H6A 118.8
C5A C6A C1A 122.5(9)
C5A C6A H6A 118.8
loop_
_geom_bond_atom_site_label_1
_geom_bond_atom_site_label_2
_geom_bond_distance
Te1 C7 2.176(3)
Te1 C8 2.081(3)
N1 C8 1.134(3)
C7 H7AA 0.9700
C7 H7AB 0.9700
C7 H7BC 0.9700
C7 H7BD 0.9700
C7 C1 1.430(16)
C7 C1A 1.537(12)
C1 C2 1.391(11)
C1 C6 1.393(11)
C2 H2 0.9300
C2 C3 1.405(11)
C3 H3 0.9300
C3 C4 1.372(12)
C4 H4 0.9300
C4 C5 1.351(11)
C5 H5 0.9300
C5 C6 1.371(11)
C6 H6 0.9300
C1A C2A 1.395(9)
C1A C6A 1.378(9)
C2A H2A 0.9300
C2A C3A 1.383(9)
C3A H3A 0.9300
C3A C4A 1.381(10)
C4A H4A 0.9300
C4A C5A 1.366(10)
C5A H5A 0.9300
C5A C6A 1.371(10)
C6A H6A 0.9300
loop_
_geom_torsion_atom_site_label_1
_geom_torsion_atom_site_label_2
_geom_torsion_atom_site_label_3
_geom_torsion_atom_site_label_4
_geom_torsion
Te1 C7 C1 C2 96(2)
Te1 C7 C1 C6 -72(3)
Te1 C7 C1A C2A 106.2(19)
Te1 C7 C1A C6A -84(2)
C7 C1 C2 C3 -177(2)
C7 C1 C6 C5 178(2)
C7 C1A C2A C3A 177.5(17)
C7 C1A C6A C5A -178.8(17)
C1 C2 C3 C4 2(4)
C2 C1 C6 C5 9(4)
C2 C3 C4 C5 3(3)
C3 C4 C5 C6 -3(3)
C4 C5 C6 C1 -4(4)
C6 C1 C2 C3 -8(4)
C1A C2A C3A C4A -1(3)
C2A C1A C6A C5A -9(4)
C2A C3A C4A C5A -5(2)
C3A C4A C5A C6A 3(2)
C4A C5A C6A C1A 4(3)
C6A C1A C2A C3A 8(3)
