#------------------------------------------------------------------------------
#$Date: 2020-06-16 04:24:09 +0300 (Tue, 16 Jun 2020) $
#$Revision: 253165 $
#$URL: file:///home/coder/svn-repositories/cod/cif/7/24/07/7240724.cif $
#------------------------------------------------------------------------------
#
# This file is available in the Crystallography Open Database (COD),
# http://www.crystallography.net/
#
# All data on this site have been placed in the public domain by the
# contributors.
#
data_7240724
loop_
_publ_author_name
'Malaspina, Lorraine Andrade'
'Hoser, Anna A.'
'Edwards, Alison'
'Woinska, Magdalena'
'Turner, Michael J.'
'Price, Jason R.'
'Sugimoto, Kunihisa'
'Nishibori, Eiji'
'Burgi, Hans-Beat'
'Jayatilaka, Dylan'
'Grabowsky, Simon'
_publ_section_title
;
 Hydrogen atoms in bridging positions from quantum crystallographic
 refinements: Influence of hydrogen atom displacement parameters on
 geometry and electron density
;
_journal_name_full               CrystEngComm
_journal_paper_doi               10.1039/D0CE00378F
_journal_year                    2020
_chemical_formula_moiety         'C4 H3 O4, Li, 2(H2 O)'
_chemical_formula_sum            'C4 H7 Li O6'
_chemical_formula_weight         158.0358
_chemical_name_common            'Lithium hydrogen maleate dihydrate'
_space_group_IT_number           14
_space_group_name_Hall           '-P 2yn'
_space_group_name_H-M_alt        'P 1 21/n 1'
_symmetry_cell_setting           monoclinic
_symmetry_Int_Tables_number      14
_symmetry_space_group_name_Hall  '-P 2yn'
_symmetry_space_group_name_H-M   'P 1 21/n 1'
_atom_sites_solution_hydrogens   difmap
_atom_sites_solution_primary     dual
_audit_creation_date             2019-04-30T17:40:19-00:00
_audit_creation_method           'WinGX routine CIF_UPDATE'
_audit_update_record
;
2020-03-10 deposited with the CCDC.	2020-06-15 downloaded from the CCDC.
;
_cell_angle_alpha                90
_cell_angle_beta                 91.3050(10)
_cell_angle_gamma                90
_cell_formula_units_Z            4
_cell_length_a                   5.83310(10)
_cell_length_b                   5.94390(10)
_cell_length_c                   18.7920(4)
_cell_measurement_reflns_used    8603
_cell_measurement_temperature    100(2)
_cell_measurement_theta_max      52.15
_cell_measurement_theta_min      19.82
_cell_measurement_wavelength     0.71073
_cell_volume                     651.38(2)
_computing_cell_refinement       'CrystalClear (Rigaku/MSC Inc., 2006)'
_computing_data_collection       'CrystalClear (Rigaku/MSC Inc., 2006)'
_computing_data_reduction
'CrystalClear (Rigaku/MSC Inc., 2006), SORTAV (Blessing, 1995)'
_computing_structure_refinement
'Tonto 18.12.17 github v. 2b3dd9c (Capelli, 2014)'
_computing_structure_solution    'SHELXT-2014 (Sheldrick, 2014)'
_diffrn_ambient_temperature      100(2)
_diffrn_detector                 'APEX-II CCD'
_diffrn_measured_fraction_theta_full 0.998
_diffrn_measured_fraction_theta_max 0.998
_diffrn_measurement_device       '\k-geometry diffractometer'
_diffrn_measurement_device_type  'Bruker APEX-II'
_diffrn_measurement_method       '\f or \w oscillation scans'
_diffrn_orient_matrix_UB_11      0.103298
_diffrn_orient_matrix_UB_12      -0.000761
_diffrn_orient_matrix_UB_13      0.043161
_diffrn_orient_matrix_UB_21      0.10872
_diffrn_orient_matrix_UB_22      -0.101465
_diffrn_orient_matrix_UB_23      -0.024906
_diffrn_orient_matrix_UB_31      0.082885
_diffrn_orient_matrix_UB_32      0.13404
_diffrn_orient_matrix_UB_33      -0.018608
_diffrn_radiation_monochromator  graphite
_diffrn_radiation_probe          x-ray
_diffrn_radiation_type           MoK\a
_diffrn_radiation_wavelength     0.71073
_diffrn_reflns_av_R_equivalents  0.0302
_diffrn_reflns_av_unetI/netI     0.0119
_diffrn_reflns_Laue_measured_fraction_full 0.998
_diffrn_reflns_Laue_measured_fraction_max 0.998
_diffrn_reflns_limit_h_max       12
_diffrn_reflns_limit_h_min       -12
_diffrn_reflns_limit_k_max       13
_diffrn_reflns_limit_k_min       -13
_diffrn_reflns_limit_l_max       40
_diffrn_reflns_limit_l_min       -41
_diffrn_reflns_number            99272
_diffrn_reflns_point_group_measured_fraction_full 0.998
_diffrn_reflns_point_group_measured_fraction_max 0.998
_diffrn_reflns_theta_full        25.242
_diffrn_reflns_theta_max         52.306
_diffrn_reflns_theta_min         2.168
_diffrn_source                   'sealed x-ray tube'
_diffrn_standards_number         0
_exptl_absorpt_coefficient_mu    0.152
_exptl_absorpt_correction_T_max  0.752
_exptl_absorpt_correction_T_min  0.699
_exptl_absorpt_correction_type   multi-scan
_exptl_absorpt_process_details
;
SADABS-2016/2 - Bruker AXS area detector scaling and absorption correction
;
_exptl_crystal_colour            colorless
_exptl_crystal_density_diffrn    1.612
_exptl_crystal_density_method    'not measured'
_exptl_crystal_description       block
_exptl_crystal_F_000             328
_exptl_crystal_size_max          0.215
_exptl_crystal_size_mid          0.213
_exptl_crystal_size_min          0.171
_refine_diff_density_max         0.1573
_refine_diff_density_min         -0.2317
_refine_diff_density_rms         0.0395
_refine_ls_extinction_method     none
_refine_ls_goodness_of_fit_all   2.4666
_refine_ls_goodness_of_fit_gt    2.4666
_refine_ls_hydrogen_treatment    refxyz
_refine_ls_matrix_type           full
_refine_ls_number_constraints    42
_refine_ls_number_parameters     121
_refine_ls_number_reflns         6436
_refine_ls_number_restraints     0
_refine_ls_R_factor_all          0.0195
_refine_ls_R_factor_gt           0.0195
_refine_ls_shift/su_max          0.0091
_refine_ls_structure_factor_coef F
_refine_ls_weighting_details     w=1/\s(F)
_refine_ls_weighting_scheme      sigma
_refine_ls_wR_factor_all         0.016
_refine_ls_wR_factor_gt          0.016
_reflns_Friedel_coverage         0
_reflns_number_gt                6436
_reflns_number_total             7520
_reflns_threshold_expression     'F>0 & F/u(F)>4.0 & |F_calc|>10^-3'
_iucr_refine_instructions_details
;
!!!!!!!!!!!!!!!!!!!!!!!!!!!!!!!!!!!!!!!!!!!!!!!!!!!!!!!!!!!!!!!!!!!!!!!!!!!!!!!
!!!                                                                         !!!
!!!                        This stdin was written with lamaGOET             !!!
!!!                                                                         !!!
!!!                    script written by Lorraine Andrade Malaspina         !!!
!!!                        contact: lorraine.malaspina@gmail.com            !!!
!!!                                                                         !!!
!!!!!!!!!!!!!!!!!!!!!!!!!!!!!!!!!!!!!!!!!!!!!!!!!!!!!!!!!!!!!!!!!!!!!!!!!!!!!!!
{

   name= Li_HAR_neutron

   charge= 0
   multiplicity= 1

   ! Process the CIF
   cif= {
      file_name=  ./Li_scaled_ADPs.cif
   }

   process_cif 

   name= Li_HAR_neutron

   basis_directory= /basis_sets
   basis_name= def2-TZVP 


   crystal= {

      xray_data= {
         thermal_smearing_model= hirshfeld
         partition_model= mulliken
         optimise_extinction= false
         correct_dispersion= false
         optimise_scale_factor= true
         wavelength= 0.71073 Angstrom
         refine_H_U_iso= no
	 refine_H_ADPs= false

         REDIRECT ./LiHmal_100K_olex2.hkl

         f_sigma_cutoff= 4.0
      }
   }

   ! Geometry
   put

   ! Normal SCF
   scfdata= {
      initial_density= promolecule 
      kind=            rhf
      use_SC_cluster_charges= FALSE
      convergence= 0.001
      diis= { convergence_tolerance= 0.002 }
   }

   scf

   ! SC cluster charge SCF
   scfdata= {
      initial_MOs= restricted
      kind=            rhf
      use_SC_cluster_charges= TRUE
      cluster_radius= 8 angstrom
      defragment= false
      convergence= 0.001
      diis= {
         convergence_tolerance= 0.0002
      }
   }

   refine_hirshfeld_atoms

}
;
_cod_data_source_file            d0ce00378f2.cif
_cod_data_source_block           Li_HAR_neutron
_cod_depositor_comments
;
The following automatic conversions were performed:

data item '_symmetry_cell_setting' value 'Monoclinic' was changed to
'monoclinic' in accordance with the
/home/data/users/saulius/crontab/automatic-downloads/rss-feeds/RSC/lib/dictionaries/cif_core.dic
dictionary named 'cif_core.dic' version 2.4.2 last updated on
2011-04-26.

Automatic conversion script
Id: cif_fix_values 7556 2019-12-06 15:28:31Z antanas 
;
_cod_original_sg_symbol_Hall     '-p 2yn'
_cod_original_sg_symbol_H-M      'p 1 21/n 1'
_cod_database_code               7240724
_refine_ls_coordinate_system     cartesian
_refine_ls_svd_threshold         0.1E-02
_iucr_refine_reflections_details
;
reflection_data= {
   keys= { h= k= l= i_exp= i_sigma= }
      data= {
 -12   0 -10     7.76     0.25
 -12   0  -8     7.94     0.29
 -12   0  -6     6.39     0.30
 -12   0  -4     1.94     0.09
 -12   0  -2     5.25     0.14
 -12   0   0     0.12     0.02
 -12   0   2     0.59     0.03
 -12   0   4     1.04     0.04
 -12   0   6     0.19     0.06
 -12   0   8     4.60     0.07
 -12   0  10     0.42     0.03
 -12   0  12     0.99     0.04
 -12   0  14     1.86     0.06
 -12   0  16     0.14     0.04
 -12   1 -11     0.01     0.02
 -12   1 -10     0.49     0.04
 -12   1  -9     0.01     0.05
 -12   1  -8     0.26     0.06
 -12   1  -7     0.01     0.02
 -12   1  -6     0.97     0.05
 -12   1  -5     0.04     0.04
 -12   1  -4     5.93     0.11
 -12   1  -3     0.05     0.04
 -12   1  -2     2.18     0.05
 -12   1  -1     0.07     0.02
 -12   1   0     2.65     0.04
 -12   1   1     0.02     0.02
 -12   1   2     3.15     0.04
 -12   1   3     0.01     0.02
 -12   1   4     1.25     0.04
 -12   1   5     0.09     0.02
 -12   1   6     0.63     0.03
 -12   1   7     0.06     0.03
 -12   1   8    13.34     0.11
 -12   1   9     0.01     0.03
 -12   1  10     0.87     0.03
 -12   1  11     0.00     0.04
 -12   1  12     2.08     0.04
 -12   1  13     0.04     0.02
 -12   1  14     0.16     0.02
 -12   1  15     0.01     0.02
 -12   1  16     3.95     0.06
 -12   2 -11     0.03     0.03
 -12   2 -10     6.57     0.14
 -12   2  -9     0.12     0.02
 -12   2  -8     7.54     0.13
 -12   2  -7     0.24     0.03
 -12   2  -6     5.60     0.07
 -12   2  -5     0.29     0.02
 -12   2  -4     1.92     0.03
 -12   2  -3     0.04     0.03
 -12   2  -2     5.28     0.07
 -12   2  -1     0.00     0.03
 -12   2   0     0.06     0.02
 -12   2   1     0.00     0.03
 -12   2   2     0.32     0.03
 -12   2   3     0.08     0.02
 -12   2   4     0.74     0.03
 -12   2   5     0.22     0.03
 -12   2   6     0.11     0.03
 -12   2   7     0.09     0.02
 -12   2   8     3.90     0.04
 -12   2   9     0.02     0.02
 -12   2  10     0.26     0.03
 -12   2  11     0.07     0.02
 -12   2  12     0.67     0.02
 -12   2  13     0.11     0.02
 -12   2  14     2.08     0.04
 -12   2  15     0.01     0.02
 -12   3 -11     0.10     0.02
 -12   3 -10     0.89     0.03
 -12   3  -9     0.15     0.02
 -12   3  -8     0.06     0.02
 -12   3  -7     0.24     0.02
 -12   3  -6     0.89     0.04
 -12   3  -5     0.06     0.03
 -12   3  -4     4.86     0.09
 -12   3  -3     0.10     0.02
 -12   3  -2     2.35     0.04
 -12   3  -1     0.32     0.03
 -12   3   0     1.63     0.03
 -12   3   1     0.09     0.02
 -12   3   2     1.97     0.04
 -12   3   3     0.04     0.02
 -12   3   4     1.35     0.03
 -12   3   5     0.39     0.03
 -12   3   6     0.51     0.03
 -12   3   7     0.26     0.02
 -12   3   8    10.95     0.11
 -12   3   9     0.09     0.02
 -12   3  10     0.80     0.02
 -12   3  11     0.02     0.01
 -12   3  12     1.92     0.03
 -12   3  13     0.21     0.02
 -12   4  -8     6.22     0.08
 -12   4  -7     0.43     0.03
 -12   4  -6     4.75     0.06
 -12   4  -5     0.44     0.02
 -12   4  -4     1.13     0.03
 -12   4  -3     0.02     0.02
 -12   4  -2     3.79     0.06
 -12   4  -1     0.03     0.02
 -12   4   0     0.00     0.02
 -12   4   1     0.00     0.03
 -12   4   2     0.04     0.02
 -12   4   3     0.34     0.02
 -12   4   4     0.33     0.02
 -12   4   5     0.76     0.03
 -12   4   6     0.07     0.02
 -12   4   7     0.21     0.02
 -12   4   8     2.40     0.04
 -12   4   9     0.01     0.02
 -12   4  10     0.01     0.02
 -12   5  -1     0.54     0.03
 -12   5   0     0.73     0.03
 -12   5   1     0.24     0.02
 -12   5   2     1.05     0.03
 -12   5   3     0.02     0.02
 -11   0  -9     0.40     0.10
 -11   0  -7     7.33     0.10
 -11   0  -5     0.73     0.03
 -11   0  -3     0.14     0.03
 -11   0  -1     2.80     0.05
 -11   0   1    11.05     0.13
 -11   0   3     0.07     0.02
 -11   0   5     2.06     0.06
 -11   0   7     0.85     0.04
 -11   0   9     0.04     0.02
 -11   0  11     2.62     0.05
 -11   0  13     0.10     0.03
 -11   0  15     0.12     0.03
 -11   0  17     4.67     0.10
 -11   0  19     0.34     0.10
 -11   0  21     3.34     0.11
 -11   0  23     0.78     0.06
 -11   1 -10     0.05     0.04
 -11   1  -9     0.01     0.03
 -11   1  -8     0.00     0.03
 -11   1  -7     6.05     0.08
 -11   1  -6     0.00     0.01
 -11   1  -5     0.39     0.03
 -11   1  -4     0.00     0.02
 -11   1  -3     3.17     0.04
 -11   1  -2     0.06     0.02
 -11   1  -1     1.13     0.03
 -11   1   0     0.05     0.02
 -11   1   1     8.85     0.08
 -11   1   2     0.05     0.02
 -11   1   3     2.68     0.04
 -11   1   4     0.06     0.02
 -11   1   5     0.67     0.02
 -11   1   6     0.14     0.02
 -11   1   7     0.97     0.03
 -11   1   8     0.08     0.02
 -11   1   9     0.04     0.02
 -11   1  10     0.00     0.02
 -11   1  11     0.04     0.02
 -11   1  12     0.00     0.02
 -11   1  13     0.26     0.02
 -11   1  14     0.05     0.02
 -11   1  15     2.12     0.03
 -11   1  16     0.02     0.02
 -11   1  17    19.45     0.17
 -11   1  18     0.04     0.03
 -11   1  19     2.60     0.05
 -11   1  20     0.00     0.02
 -11   1  21     0.03     0.02
 -11   1  22     0.03     0.02
 -11   2 -10     0.01     0.03
 -11   2  -9     0.34     0.03
 -11   2  -8     0.73     0.23
 -11   2  -7     7.01     0.10
 -11   2  -6     0.23     0.02
 -11   2  -5     0.75     0.03
 -11   2  -4     0.24     0.02
 -11   2  -3     0.19     0.02
 -11   2  -2     0.06     0.02
 -11   2  -1     3.16     0.05
 -11   2   0     0.15     0.01
 -11   2   1     8.69     0.08
 -11   2   2     0.03     0.02
 -11   2   3     0.00     0.01
 -11   2   4     0.02     0.01
 -11   2   5     1.64     0.04
 -11   2   6     0.01     0.02
 -11   2   7     0.93     0.03
 -11   2   8     0.04     0.02
 -11   2   9     0.12     0.02
 -11   2  10     0.07     0.02
 -11   2  11     1.67     0.03
 -11   2  12     0.08     0.03
 -11   2  13     0.26     0.02
 -11   2  14     0.12     0.02
 -11   2  15     0.09     0.02
 -11   2  16     0.01     0.03
 -11   2  17     4.48     0.06
 -11   2  18     0.19     0.02
 -11   2  19     0.30     0.03
 -11   2  20     0.35     0.03
 -11   2  21     3.21     0.06
 -11   2  22     0.03     0.02
 -11   3 -10     0.16     0.03
 -11   3  -9     0.17     0.02
 -11   3  -8     0.05     0.03
 -11   3  -7     4.25     0.06
 -11   3  -6     0.00     0.02
 -11   3  -5     0.26     0.03
 -11   3  -4     0.00     0.05
 -11   3  -3     2.09     0.04
 -11   3  -2     0.35     0.02
 -11   3  -1     0.60     0.02
 -11   3   0     0.60     0.03
 -11   3   1     8.29     0.10
 -11   3   2     0.35     0.02
 -11   3   3     2.34     0.04
 -11   3   4     0.16     0.02
 -11   3   5     0.48     0.02
 -11   3   6     0.47     0.03
 -11   3   7     0.94     0.03
 -11   3   8     0.28     0.02
 -11   3   9     0.04     0.01
 -11   3  10     0.02     0.01
 -11   3  11     0.02     0.02
 -11   3  12     0.16     0.02
 -11   3  13     0.40     0.02
 -11   3  14     0.49     0.03
 -11   3  15     1.29     0.05
 -11   3  16     0.07     0.02
 -11   3  17    15.58     0.14
 -11   3  18     0.05     0.03
 -11   3  19     2.16     0.06
 -11   3  20     0.00     0.02
 -11   4 -10     0.00     0.05
 -11   4  -9     0.37     0.03
 -11   4  -8     0.17     0.03
 -11   4  -7     4.82     0.06
 -11   4  -6     0.25     0.04
 -11   4  -5     0.36     0.02
 -11   4  -4     0.24     0.02
 -11   4  -3     0.08     0.02
 -11   4  -2     0.47     0.02
 -11   4  -1     2.80     0.06
 -11   4   0     0.78     0.04
 -11   4   1     5.28     0.09
 -11   4   2     0.20     0.02
 -11   4   3     0.15     0.02
 -11   4   4     0.08     0.02
 -11   4   5     0.88     0.04
 -11   4   6     0.01     0.01
 -11   4   7     0.84     0.02
 -11   4   8     0.17     0.02
 -11   4   9     0.25     0.01
 -11   4  10     0.26     0.02
 -11   4  11     0.77     0.03
 -11   4  12     0.61     0.03
 -11   4  13     0.41     0.02
 -11   4  14     0.66     0.04
 -11   4  15     0.08     0.03
 -11   4  16     0.02     0.02
 -11   4  17     3.12     0.05
 -11   4  18     0.26     0.03
 -11   4  19     0.05     0.04
 -11   5 -10     0.45     0.03
 -11   5  -9     0.35     0.02
 -11   5  -8     0.17     0.05
 -11   5  -7     2.59     0.08
 -11   5  -6     0.00     0.02
 -11   5  -5     0.04     0.02
 -11   5  -4     0.02     0.02
 -11   5  -3     0.89     0.03
 -11   5  -2     0.61     0.03
 -11   5  -1     0.33     0.02
 -11   5   0     1.17     0.03
 -11   5   1     5.70     0.09
 -11   5   2     0.78     0.05
 -11   5   3     1.04     0.03
 -11   5   4     0.08     0.02
 -11   5   5     0.71     0.03
 -11   5   6     0.43     0.03
 -11   5   7     0.31     0.02
 -11   5   8     0.18     0.02
 -11   5   9     0.00     0.02
 -11   5  10     0.00     0.04
 -11   5  11     0.00     0.02
 -11   5  12     0.38     0.02
 -11   5  13     0.48     0.02
 -11   5  14     0.84     0.03
 -11   5  15     0.36     0.02
 -11   5  16     0.02     0.03
 -11   6 -10     0.00     0.02
 -11   6  -9     0.54     0.02
 -11   6  -8     0.17     0.02
 -11   6  -7     1.91     0.04
 -11   6  -6     0.20     0.02
 -11   6  -5     0.02     0.02
 -11   6  -4     0.22     0.02
 -11   6  -3     0.01     0.02
 -11   6  -2     0.65     0.04
 -11   6  -1     1.54     0.04
 -11   6   0     1.01     0.03
 -11   6   1     3.00     0.04
 -11   6   2     0.18     0.02
 -11   6   3     0.41     0.03
 -11   6   4     0.05     0.02
 -11   6   5     0.22     0.02
 -11   6   6     0.01     0.02
 -11   6   7     0.51     0.02
 -11   6   8     0.22     0.02
 -11   6   9     0.25     0.02
 -11   6  10     0.29     0.02
 -11   6  11     0.33     0.02
 -11   6  12     0.65     0.03
 -11   7  -1     0.15     0.02
 -11   7   0     0.94     0.04
 -11   7   1     2.93     0.04
 -11   7   2     0.67     0.03
 -11   7   3     0.23     0.04
 -10   0  -8     1.33     0.04
 -10   0  -6     1.37     0.03
 -10   0  -4     2.14     0.05
 -10   0  -2    14.73     0.16
 -10   0   0     6.86     0.09
 -10   0   2     3.29     0.05
 -10   0   4    24.32     0.25
 -10   0   6    14.86     0.16
 -10   0   8     3.39     0.06
 -10   0  10    13.96     0.15
 -10   0  12    14.49     0.15
 -10   0  14     4.26     0.06
 -10   0  16     1.41     0.04
 -10   0  18     0.20     0.03
 -10   0  20     5.22     0.09
 -10   0  22     8.08     0.12
 -10   0  24     3.41     0.07
 -10   0  26     1.32     0.08
 -10   1  -9     0.01     0.02
 -10   1  -8    12.43     0.11
 -10   1  -7     0.07     0.01
 -10   1  -6     3.27     0.04
 -10   1  -5     0.08     0.01
 -10   1  -4     0.07     0.01
 -10   1  -3     0.01     0.01
 -10   1  -2     0.02     0.01
 -10   1  -1     0.00     0.01
 -10   1   0    17.65     0.14
 -10   1   1     0.02     0.02
 -10   1   2     0.02     0.01
 -10   1   3     0.04     0.01
 -10   1   4     6.77     0.06
 -10   1   5     0.24     0.01
 -10   1   6     6.93     0.06
 -10   1   7     0.34     0.02
 -10   1   8     5.61     0.05
 -10   1   9     0.10     0.02
 -10   1  10     9.35     0.10
 -10   1  11     0.03     0.01
 -10   1  12     7.04     0.06
 -10   1  13     0.08     0.01
 -10   1  14     1.90     0.03
 -10   1  15     0.16     0.01
 -10   1  16     0.72     0.02
 -10   1  17     0.04     0.02
 -10   1  18     0.21     0.02
 -10   1  19     0.01     0.06
 -10   1  20     0.95     0.05
 -10   1  21     0.00     0.02
 -10   1  22    11.65     0.12
 -10   1  23     0.00     0.02
 -10   1  24     0.00     0.02
 -10   1  25     0.00     0.02
 -10   1  26     5.82     0.08
 -10   1  27     0.03     0.02
 -10   2  -9     0.28     0.02
 -10   2  -8     1.52     0.04
 -10   2  -7     0.48     0.02
 -10   2  -6     0.83     0.03
 -10   2  -5     0.71     0.02
 -10   2  -4     1.26     0.03
 -10   2  -3     0.44     0.02
 -10   2  -2    11.34     0.09
 -10   2  -1     0.04     0.02
 -10   2   0     7.89     0.07
 -10   2   1     0.30     0.02
 -10   2   2     2.38     0.03
 -10   2   3     0.02     0.02
 -10   2   4    21.50     0.16
 -10   2   5     0.00     0.02
 -10   2   6    13.21     0.10
 -10   2   7     0.10     0.02
 -10   2   8     4.17     0.04
 -10   2   9     0.11     0.02
 -10   2  10    10.21     0.09
 -10   2  11     0.04     0.01
 -10   2  12    11.00     0.09
 -10   2  13     0.09     0.02
 -10   2  14     5.08     0.05
 -10   2  15     0.13     0.01
 -10   2  16     1.09     0.03
 -10   2  17     0.25     0.02
 -10   2  18     0.19     0.05
 -10   2  19     0.28     0.02
 -10   2  20     5.09     0.06
 -10   2  21     0.22     0.02
 -10   2  22     7.54     0.08
 -10   2  23     0.04     0.03
 -10   2  24     3.16     0.05
 -10   2  25     0.16     0.03
 -10   2  26     1.25     0.04
 -10   3  -9     0.00     0.01
 -10   3  -8     8.73     0.09
 -10   3  -7     0.37     0.03
 -10   3  -6     3.01     0.07
 -10   3  -5     0.59     0.04
 -10   3  -4     0.21     0.02
 -10   3  -3     0.27     0.03
 -10   3  -2     0.31     0.02
 -10   3  -1     0.02     0.02
 -10   3   0    12.24     0.10
 -10   3   1     0.00     0.02
 -10   3   2     0.02     0.01
 -10   3   3     0.05     0.02
 -10   3   4     6.55     0.06
 -10   3   5     0.76     0.02
 -10   3   6     5.28     0.05
 -10   3   7     1.46     0.03
 -10   3   8     5.84     0.06
 -10   3   9     0.35     0.02
 -10   3  10     6.41     0.06
 -10   3  11     0.05     0.01
 -10   3  12     5.04     0.05
 -10   3  13     0.47     0.02
 -10   3  14     1.96     0.03
 -10   3  15     0.97     0.03
 -10   3  16     0.64     0.03
 -10   3  17     0.02     0.02
 -10   3  18     0.36     0.02
 -10   3  19     0.17     0.02
 -10   3  20     1.47     0.04
 -10   3  21     0.01     0.02
 -10   3  22     7.66     0.08
 -10   3  23     0.08     0.02
 -10   3  24     0.10     0.02
 -10   3  25     0.00     0.02
 -10   4  -9     0.30     0.02
 -10   4  -8     0.82     0.03
 -10   4  -7     0.57     0.02
 -10   4  -6     0.56     0.02
 -10   4  -5     0.88     0.04
 -10   4  -4     0.63     0.02
 -10   4  -3     0.46     0.02
 -10   4  -2     7.25     0.09
 -10   4  -1     0.31     0.02
 -10   4   0     8.30     0.10
 -10   4   1     1.22     0.03
 -10   4   2     1.02     0.03
 -10   4   3     0.04     0.01
 -10   4   4    14.52     0.12
 -10   4   5     0.01     0.01
 -10   4   6    10.45     0.09
 -10   4   7     0.62     0.02
 -10   4   8     4.65     0.05
 -10   4   9     0.80     0.03
 -10   4  10     5.39     0.05
 -10   4  11     0.02     0.02
 -10   4  12     6.39     0.06
 -10   4  13     0.03     0.02
 -10   4  14     4.93     0.08
 -10   4  15     0.12     0.02
 -10   4  16     0.88     0.03
 -10   4  17     0.29     0.02
 -10   4  18     0.23     0.02
 -10   4  19     0.50     0.02
 -10   4  20     3.85     0.06
 -10   4  21     0.51     0.04
 -10   4  22     5.89     0.15
 -10   4  23     0.09     0.03
 -10   4  24     2.85     0.07
 -10   5  -9     0.04     0.02
 -10   5  -8     5.27     0.07
 -10   5  -7     0.40     0.02
 -10   5  -6     2.21     0.04
 -10   5  -5     0.85     0.03
 -10   5  -4     0.40     0.02
 -10   5  -3     0.45     0.03
 -10   5  -2     0.62     0.03
 -10   5  -1     0.11     0.02
 -10   5   0     7.94     0.08
 -10   5   1     0.02     0.02
 -10   5   2     0.01     0.02
 -10   5   3     0.01     0.02
 -10   5   4     3.39     0.07
 -10   5   5     0.61     0.03
 -10   5   6     5.24     0.06
 -10   5   7     1.61     0.03
 -10   5   8     4.06     0.05
 -10   5   9     0.26     0.03
 -10   5  10     3.77     0.12
 -10   5  11     0.05     0.02
 -10   5  12     2.59     0.06
 -10   5  13     0.62     0.02
 -10   5  14     1.97     0.04
 -10   5  15     1.29     0.04
 -10   5  16     0.74     0.04
 -10   5  17     0.00     0.02
 -10   5  18     0.13     0.04
 -10   5  19     0.57     0.04
 -10   5  20     1.01     0.06
 -10   5  21     0.12     0.03
 -10   5  22     4.45     0.17
 -10   6  -9     0.29     0.05
 -10   6  -8     0.08     0.03
 -10   6  -7     0.42     0.04
 -10   6  -6     0.75     0.04
 -10   6  -5     0.79     0.04
 -10   6  -4     0.59     0.02
 -10   6  -3     0.50     0.02
 -10   6  -2     4.62     0.06
 -10   6  -1     0.51     0.02
 -10   6   0     6.26     0.09
 -10   6   1     1.54     0.04
 -10   6   2     0.34     0.02
 -10   6   3     0.02     0.03
 -10   6   4     7.42     0.09
 -10   6   5     0.04     0.02
 -10   6   6     7.74     0.09
 -10   6   7     0.75     0.03
 -10   6   8     3.68     0.05
 -10   6   9     0.94     0.03
 -10   6  10     2.44     0.04
 -10   6  11     0.01     0.02
 -10   6  12     3.55     0.07
 -10   6  13     0.05     0.04
 -10   6  14     2.89     0.07
 -10   6  15     0.03     0.02
 -10   6  16     1.19     0.04
 -10   6  17     0.25     0.02
 -10   6  18     0.46     0.03
 -10   6  19     0.48     0.03
 -10   7  -9     0.00     0.02
 -10   7  -8     2.76     0.05
 -10   7  -7     0.41     0.02
 -10   7  -6     1.34     0.04
 -10   7  -5     0.71     0.03
 -10   7  -4     0.57     0.04
 -10   7  -3     0.30     0.02
 -10   7  -2     0.86     0.04
 -10   7  -1     0.00     0.01
 -10   7   0     4.60     0.06
 -10   7   1     0.01     0.03
 -10   7   2     0.06     0.03
 -10   7   3     0.00     0.04
 -10   7   4     0.97     0.03
 -10   7   5     0.49     0.07
 -10   7   6     4.85     0.07
 -10   7   7     1.46     0.04
 -10   7   8     2.13     0.04
 -10   7   9     0.21     0.04
 -10   7  10     1.78     0.04
 -10   7  11     0.05     0.02
 -10   7  12     1.15     0.05
 -10   7  13     0.59     0.06
 -10   7  14     1.87     0.05
 -10   7  15     1.26     0.04
 -10   8  -7     0.35     0.02
 -10   8  -6     0.52     0.04
 -10   8  -5     0.63     0.03
 -10   8  -4     0.31     0.02
 -10   8  -3     0.69     0.04
 -10   8  -2     2.36     0.04
 -10   8  -1     0.24     0.02
 -10   8   0     4.38     0.07
 -10   8   1     1.00     0.03
 -10   8   2     0.05     0.02
 -10   8   3     0.03     0.02
 -10   8   4     3.15     0.05
 -10   8   5     0.04     0.02
 -10   8   6     4.82     0.07
 -10   8   7     0.37     0.02
 -10   8   8     2.84     0.05
 -10   8   9     0.48     0.03
  -9   0  -7     2.79     0.05
  -9   0  -5    17.61     0.18
  -9   0  -3     0.35     0.02
  -9   0  -1    30.17     0.31
  -9   0   1     4.55     0.06
  -9   0   3    12.86     0.14
  -9   0   5     3.33     0.05
  -9   0   7    30.24     0.30
  -9   0   9     3.36     0.09
  -9   0  11     0.49     0.02
  -9   0  13    27.57     0.29
  -9   0  15     6.40     0.08
  -9   0  17     4.50     0.06
  -9   0  19     9.08     0.22
  -9   0  21     0.79     0.04
  -9   0  23     0.71     0.07
  -9   0  25     2.23     0.06
  -9   0  27     0.51     0.07
  -9   0  29     0.00     0.04
  -9   1  -8     0.01     0.01
  -9   1  -7     5.59     0.04
  -9   1  -6     0.07     0.01
  -9   1  -5     2.77     0.03
  -9   1  -4     0.04     0.01
  -9   1  -3    21.99     0.16
  -9   1  -2     0.02     0.01
  -9   1  -1     0.00     0.01
  -9   1   0     0.19     0.01
  -9   1   1     6.78     0.06
  -9   1   2     0.36     0.01
  -9   1   3     7.15     0.06
  -9   1   4     0.21     0.02
  -9   1   5     5.36     0.05
  -9   1   6     0.10     0.01
  -9   1   7     0.37     0.02
  -9   1   8     0.03     0.02
  -9   1   9     0.00     0.01
  -9   1  10     0.02     0.02
  -9   1  11     4.57     0.04
  -9   1  12     0.06     0.01
  -9   1  13     5.89     0.05
  -9   1  14     0.17     0.01
  -9   1  15     0.20     0.02
  -9   1  16     0.32     0.02
  -9   1  17     2.45     0.03
  -9   1  18     0.03     0.02
  -9   1  19     0.64     0.03
  -9   1  20     0.04     0.02
  -9   1  21     0.04     0.02
  -9   1  22     0.00     0.02
  -9   1  23     1.36     0.06
  -9   1  24     0.00     0.02
  -9   1  25     3.45     0.05
  -9   1  26     0.01     0.02
  -9   1  27     0.29     0.03
  -9   1  28     0.04     0.02
  -9   1  29     1.47     0.05
  -9   1  30     0.00     0.02
  -9   2  -8     0.70     0.02
  -9   2  -7     1.97     0.03
  -9   2  -6     0.40     0.01
  -9   2  -5    18.51     0.13
  -9   2  -4     0.11     0.01
  -9   2  -3     0.03     0.02
  -9   2  -2     0.09     0.01
  -9   2  -1    24.08     0.18
  -9   2   0     0.39     0.02
  -9   2   1     5.09     0.05
  -9   2   2     1.07     0.02
  -9   2   3    11.58     0.09
  -9   2   4     0.20     0.01
  -9   2   5     4.01     0.04
  -9   2   6     0.00     0.02
  -9   2   7    24.44     0.18
  -9   2   8     0.04     0.01
  -9   2   9     4.59     0.04
  -9   2  10     0.17     0.01
  -9   2  11     1.33     0.04
  -9   2  12     0.20     0.02
  -9   2  13    22.32     0.16
  -9   2  14     0.48     0.02
  -9   2  15     6.69     0.06
  -9   2  16     0.27     0.02
  -9   2  17     4.14     0.05
  -9   2  18     0.07     0.02
  -9   2  19     8.09     0.09
  -9   2  20     0.01     0.02
  -9   2  21     0.63     0.03
  -9   2  22     0.03     0.02
  -9   2  23     0.68     0.04
  -9   2  24     0.12     0.02
  -9   2  25     2.16     0.05
  -9   2  26     0.28     0.02
  -9   2  27     0.40     0.03
  -9   2  28     0.25     0.03
  -9   2  29     0.10     0.03
  -9   2  30     0.05     0.02
  -9   3  -8     0.09     0.02
  -9   3  -7     5.13     0.05
  -9   3  -6     0.52     0.02
  -9   3  -5     1.34     0.03
  -9   3  -4     0.38     0.02
  -9   3  -3    13.64     0.12
  -9   3  -2     0.06     0.01
  -9   3  -1     0.41     0.02
  -9   3   0     0.48     0.02
  -9   3   1     3.71     0.05
  -9   3   2     0.98     0.02
  -9   3   3     7.20     0.06
  -9   3   4     0.51     0.02
  -9   3   5     4.91     0.05
  -9   3   6     0.17     0.02
  -9   3   7     0.40     0.02
  -9   3   8     0.05     0.02
  -9   3   9     0.02     0.02
  -9   3  10     0.14     0.01
  -9   3  11     4.67     0.07
  -9   3  12     0.39     0.02
  -9   3  13     4.69     0.05
  -9   3  14     0.76     0.03
  -9   3  15     0.10     0.02
  -9   3  16     1.52     0.06
  -9   3  17     1.32     0.04
  -9   3  18     0.02     0.02
  -9   3  19     0.10     0.02
  -9   3  20     0.47     0.04
  -9   3  21     0.04     0.02
  -9   3  22     0.40     0.03
  -9   3  23     0.63     0.03
  -9   3  24     0.17     0.02
  -9   3  25     3.68     0.06
  -9   3  26     0.03     0.02
  -9   3  27     0.31     0.03
  -9   3  28     0.41     0.03
  -9   3  29     1.77     0.04
  -9   4  -8     0.81     0.02
  -9   4  -7     1.97     0.04
  -9   4  -6     0.25     0.03
  -9   4  -5    15.12     0.12
  -9   4  -4     0.04     0.01
  -9   4  -3     0.08     0.03
  -9   4  -2     0.05     0.02
  -9   4  -1    15.33     0.12
  -9   4   0     1.47     0.03
  -9   4   1     5.23     0.08
  -9   4   2     3.08     0.04
  -9   4   3     8.52     0.07
  -9   4   4     0.27     0.01
  -9   4   5     4.31     0.06
  -9   4   6     0.10     0.01
  -9   4   7    15.58     0.13
  -9   4   8     0.63     0.02
  -9   4   9     5.54     0.05
  -9   4  10     1.46     0.03
  -9   4  11     2.26     0.03
  -9   4  12     0.06     0.02
  -9   4  13    15.28     0.12
  -9   4  14     0.49     0.02
  -9   4  15     5.03     0.06
  -9   4  16     0.21     0.02
  -9   4  17     2.29     0.04
  -9   4  18     0.08     0.02
  -9   4  19     4.59     0.06
  -9   4  20     0.00     0.03
  -9   4  21     0.33     0.03
  -9   4  22     0.06     0.04
  -9   4  23     0.43     0.03
  -9   4  24     0.19     0.03
  -9   4  25     1.55     0.06
  -9   4  26     0.41     0.05
  -9   4  27     0.42     0.04
  -9   4  28     0.40     0.06
  -9   5  -8     0.27     0.01
  -9   5  -7     4.33     0.04
  -9   5  -6     0.81     0.02
  -9   5  -5     0.42     0.02
  -9   5  -4     0.75     0.02
  -9   5  -3     7.06     0.08
  -9   5  -2     0.23     0.02
  -9   5  -1     0.70     0.03
  -9   5   0     0.25     0.02
  -9   5   1     2.84     0.04
  -9   5   2     0.64     0.03
  -9   5   3     3.11     0.05
  -9   5   4     0.13     0.02
  -9   5   5     1.75     0.04
  -9   5   6     0.00     0.01
  -9   5   7     0.00     0.01
  -9   5   8     0.00     0.01
  -9   5   9     0.00     0.01
  -9   5  10     0.31     0.02
  -9   5  11     4.09     0.05
  -9   5  12     0.47     0.02
  -9   5  13     2.49     0.03
  -9   5  14     0.78     0.03
  -9   5  15     0.14     0.02
  -9   5  16     1.71     0.04
  -9   5  17     0.88     0.03
  -9   5  18     0.00     0.02
  -9   5  19     0.01     0.02
  -9   5  20     1.14     0.04
  -9   5  21     0.14     0.03
  -9   5  22     0.91     0.05
  -9   5  23     0.32     0.06
  -9   5  24     0.44     0.05
  -9   5  25     2.61     0.07
  -9   5  26     0.00     0.03
  -9   6  -8     0.71     0.02
  -9   6  -7     3.15     0.04
  -9   6  -6     0.07     0.02
  -9   6  -5     7.38     0.07
  -9   6  -4     0.04     0.01
  -9   6  -3     0.03     0.02
  -9   6  -2     0.04     0.02
  -9   6  -1     8.77     0.10
  -9   6   0     1.66     0.04
  -9   6   1     3.98     0.06
  -9   6   2     3.53     0.05
  -9   6   3     5.26     0.07
  -9   6   4     0.22     0.02
  -9   6   5     3.44     0.05
  -9   6   6     0.20     0.02
  -9   6   7     9.70     0.11
  -9   6   8     0.70     0.03
  -9   6   9     4.08     0.07
  -9   6  10     2.06     0.05
  -9   6  11     1.81     0.03
  -9   6  12     0.02     0.02
  -9   6  13    10.67     0.13
  -9   6  14     0.43     0.03
  -9   6  15     2.16     0.06
  -9   6  16     0.13     0.02
  -9   6  17     0.42     0.02
  -9   6  18     0.00     0.02
  -9   6  19     1.39     0.05
  -9   6  20     0.01     0.03
  -9   6  21     0.16     0.03
  -9   6  22     0.03     0.03
  -9   6  23     0.07     0.03
  -9   6  24     0.11     0.11
  -9   7  -8     0.26     0.02
  -9   7  -7     3.23     0.08
  -9   7  -6     0.72     0.03
  -9   7  -5     0.03     0.02
  -9   7  -4     0.49     0.02
  -9   7  -3     2.96     0.05
  -9   7  -2     0.14     0.02
  -9   7  -1     0.74     0.03
  -9   7   0     0.39     0.02
  -9   7   1     2.34     0.05
  -9   7   2     0.75     0.03
  -9   7   3     0.65     0.03
  -9   7   4     0.11     0.02
  -9   7   5     0.16     0.02
  -9   7   6     0.00     0.02
  -9   7   7     0.15     0.05
  -9   7   8     0.00     0.03
  -9   7   9     0.02     0.02
  -9   7  10     0.20     0.03
  -9   7  11     3.17     0.05
  -9   7  12     0.31     0.07
  -9   7  13     1.00     0.07
  -9   7  14     0.62     0.04
  -9   7  15     0.33     0.02
  -9   7  16     1.77     0.06
  -9   7  17     0.57     0.04
  -9   7  18     0.04     0.02
  -9   7  19     0.00     0.02
  -9   7  20     0.90     0.05
  -9   7  21     0.13     0.03
  -9   8  -8     0.67     0.03
  -9   8  -7     3.06     0.05
  -9   8  -6     0.14     0.02
  -9   8  -5     3.51     0.10
  -9   8  -4     0.00     0.02
  -9   8  -3     0.08     0.02
  -9   8  -2     0.18     0.02
  -9   8  -1     3.87     0.06
  -9   8   0     0.84     0.03
  -9   8   1     2.74     0.05
  -9   8   2     2.42     0.05
  -9   8   3     2.77     0.08
  -9   8   4     0.10     0.05
  -9   8   5     2.60     0.08
  -9   8   6     0.03     0.03
  -9   8   7     4.83     0.13
  -9   8   8     0.15     0.04
  -9   8   9     2.77     0.06
  -9   8  10     1.12     0.04
  -9   8  11     1.62     0.08
  -9   8  12     0.13     0.03
  -9   8  13     5.60     0.17
  -9   8  14     0.53     0.05
  -9   8  15     0.80     0.04
  -9   8  16     0.08     0.02
  -9   8  17     0.00     0.03
  -9   9  -8     0.16     0.02
  -9   9  -7     1.93     0.04
  -9   9  -6     0.42     0.03
  -9   9  -5     0.02     0.01
  -9   9  -4     0.19     0.02
  -9   9  -3     0.74     0.03
  -9   9  -2     0.03     0.03
  -9   9  -1     1.01     0.04
  -9   9   0     0.37     0.03
  -9   9   1     1.06     0.10
  -9   9   2     0.59     0.03
  -9   9   3     0.16     0.03
  -9   9   4     0.05     0.03
  -9   9   5     0.00     0.02
  -9   9   6     0.01     0.02
  -9   9   7     0.26     0.02
  -9   9   8     0.04     0.02
  -9   9   9     0.00     0.02
  -9   9  10     0.16     0.04
  -8   0  -6     2.14     0.04
  -8   0  -4     2.25     0.04
  -8   0  -2     0.07     0.02
  -8   0   0    22.42     0.21
  -8   0   2     0.22     0.02
  -8   0   4     1.78     0.05
  -8   0   6     0.86     0.04
  -8   0   8     0.12     0.02
  -8   0  10    10.16     0.11
  -8   0  12    25.24     0.24
  -8   0  14     0.96     0.03
  -8   0  16     5.09     0.12
  -8   0  18     3.47     0.09
  -8   0  20     0.46     0.04
  -8   0  22     0.00     0.03
  -8   0  24     0.06     0.03
  -8   0  26    10.40     0.16
  -8   0  28     4.65     0.09
  -8   0  30     0.94     0.06
  -8   0  32     2.95     0.08
  -8   1  -7     0.00     0.02
  -8   1  -6    32.26     0.18
  -8   1  -5     0.13     0.01
  -8   1  -4    29.53     0.17
  -8   1  -3     0.12     0.01
  -8   1  -2     0.62     0.02
  -8   1  -1     0.02     0.01
  -8   1   0     0.29     0.02
  -8   1   1     0.30     0.01
  -8   1   2     0.94     0.02
  -8   1   3     0.61     0.02
  -8   1   4     0.51     0.02
  -8   1   5     0.20     0.02
  -8   1   6    23.24     0.16
  -8   1   7     0.01     0.02
  -8   1   8     0.91     0.02
  -8   1   9     0.01     0.02
  -8   1  10     9.68     0.08
  -8   1  11     0.12     0.01
  -8   1  12     3.86     0.05
  -8   1  13     0.07     0.01
  -8   1  14    16.18     0.12
  -8   1  15     0.01     0.01
  -8   1  16     0.01     0.01
  -8   1  17     0.04     0.01
  -8   1  18    12.95     0.11
  -8   1  19     0.00     0.02
  -8   1  20    12.61     0.12
  -8   1  21     0.00     0.02
  -8   1  22     7.40     0.08
  -8   1  23     0.00     0.02
  -8   1  24     1.41     0.04
  -8   1  25     0.00     0.03
  -8   1  26     0.05     0.02
  -8   1  27     0.08     0.03
  -8   1  28     0.55     0.04
  -8   1  29     0.08     0.02
  -8   1  30     1.55     0.04
  -8   1  31     0.00     0.03
  -8   1  32     0.91     0.04
  -8   1  33     0.00     0.02
  -8   2  -7     0.26     0.01
  -8   2  -6     1.21     0.02
  -8   2  -5     0.01     0.01
  -8   2  -4     3.34     0.04
  -8   2  -3     0.31     0.02
  -8   2  -2     0.06     0.01
  -8   2  -1     0.02     0.01
  -8   2   0    17.63     0.12
  -8   2   1     0.10     0.01
  -8   2   2     0.30     0.02
  -8   2   3     0.29     0.02
  -8   2   4     2.31     0.03
  -8   2   5     0.02     0.02
  -8   2   6     0.19     0.03
  -8   2   7     0.19     0.02
  -8   2   8     0.29     0.01
  -8   2   9     0.26     0.03
  -8   2  10     6.56     0.06
  -8   2  11     0.21     0.02
  -8   2  12    26.51     0.20
  -8   2  13     0.12     0.01
  -8   2  14     1.28     0.03
  -8   2  15     1.15     0.04
  -8   2  16     4.31     0.05
  -8   2  17     0.47     0.02
  -8   2  18     3.27     0.04
  -8   2  19     0.03     0.02
  -8   2  20     0.51     0.02
  -8   2  21     0.09     0.03
  -8   2  22     0.01     0.03
  -8   2  23     0.21     0.02
  -8   2  24     0.07     0.02
  -8   2  25     0.13     0.02
  -8   2  26     9.50     0.10
  -8   2  27     0.04     0.02
  -8   2  28     4.76     0.08
  -8   2  29     0.00     0.02
  -8   2  30     0.61     0.03
  -8   2  31     0.00     0.03
  -8   2  32     2.24     0.05
  -8   3  -7     0.07     0.01
  -8   3  -6    23.26     0.15
  -8   3  -5     1.37     0.02
  -8   3  -4    29.31     0.17
  -8   3  -3     1.69     0.02
  -8   3  -2     1.43     0.02
  -8   3  -1     0.06     0.01
  -8   3   0     0.85     0.02
  -8   3   1     0.52     0.02
  -8   3   2     1.54     0.03
  -8   3   3     1.65     0.03
  -8   3   4     0.17     0.02
  -8   3   5     0.26     0.02
  -8   3   6    19.52     0.14
  -8   3   7     0.04     0.03
  -8   3   8     1.05     0.02
  -8   3   9     0.34     0.01
  -8   3  10     6.44     0.06
  -8   3  11     0.53     0.02
  -8   3  12     2.35     0.03
  -8   3  13     0.13     0.02
  -8   3  14    13.35     0.11
  -8   3  15     0.01     0.01
  -8   3  16     0.15     0.02
  -8   3  17     0.05     0.02
  -8   3  18     7.86     0.08
  -8   3  19     0.24     0.02
  -8   3  20    14.25     0.18
  -8   3  21     0.91     0.06
  -8   3  22     4.61     0.06
  -8   3  23     0.35     0.02
  -8   3  24     1.62     0.04
  -8   3  25     0.09     0.02
  -8   3  26     0.08     0.03
  -8   3  27     0.26     0.02
  -8   3  28     0.61     0.03
  -8   3  29     0.84     0.04
  -8   3  30     0.94     0.04
  -8   3  31     0.29     0.02
  -8   3  32     1.12     0.06
  -8   4  -7     0.03     0.01
  -8   4  -6     1.11     0.03
  -8   4  -5     0.46     0.02
  -8   4  -4     3.40     0.04
  -8   4  -3     1.98     0.02
  -8   4  -2     0.57     0.02
  -8   4  -1     0.13     0.01
  -8   4   0    10.05     0.08
  -8   4   1     0.20     0.01
  -8   4   2     0.49     0.02
  -8   4   3     0.44     0.02
  -8   4   4     2.04     0.03
  -8   4   5     0.32     0.02
  -8   4   6     0.02     0.01
  -8   4   7     1.51     0.03
  -8   4   8     0.99     0.03
  -8   4   9     2.12     0.03
  -8   4  10     3.84     0.04
  -8   4  11     2.03     0.04
  -8   4  12    21.40     0.17
  -8   4  13     0.03     0.01
  -8   4  14     0.90     0.03
  -8   4  15     1.66     0.04
  -8   4  16     4.02     0.05
  -8   4  17     0.67     0.03
  -8   4  18     2.07     0.04
  -8   4  19     0.06     0.02
  -8   4  20     0.67     0.02
  -8   4  21     0.22     0.03
  -8   4  22     0.00     0.03
  -8   4  23     0.19     0.03
  -8   4  24     0.00     0.03
  -8   4  25     0.06     0.03
  -8   4  26     6.20     0.08
  -8   4  27     0.03     0.03
  -8   4  28     3.62     0.05
  -8   4  29     0.10     0.02
  -8   4  30     0.33     0.02
  -8   5  -7     0.10     0.01
  -8   5  -6    14.30     0.10
  -8   5  -5     2.55     0.03
  -8   5  -4    20.95     0.18
  -8   5  -3     3.95     0.04
  -8   5  -2     0.68     0.02
  -8   5  -1     0.60     0.02
  -8   5   0     0.16     0.02
  -8   5   1     0.10     0.02
  -8   5   2     0.36     0.02
  -8   5   3     1.14     0.03
  -8   5   4     0.82     0.03
  -8   5   5     0.01     0.01
  -8   5   6     9.41     0.09
  -8   5   7     0.16     0.02
  -8   5   8     0.49     0.03
  -8   5   9     0.65     0.03
  -8   5  10     3.06     0.06
  -8   5  11     0.63     0.03
  -8   5  12     0.44     0.02
  -8   5  13     0.00     0.02
  -8   5  14     6.64     0.07
  -8   5  15     0.15     0.02
  -8   5  16     0.02     0.02
  -8   5  17     0.00     0.02
  -8   5  18     5.13     0.06
  -8   5  19     0.80     0.03
  -8   5  20    11.29     0.11
  -8   5  21     1.95     0.05
  -8   5  22     3.13     0.11
  -8   5  23     0.78     0.04
  -8   5  24     1.02     0.06
  -8   5  25     0.30     0.04
  -8   5  26     0.02     0.04
  -8   5  27     0.33     0.04
  -8   5  28     0.83     0.05
  -8   5  29     1.52     0.09
  -8   6  -7     0.02     0.01
  -8   6  -6     2.47     0.04
  -8   6  -5     0.67     0.02
  -8   6  -4     1.45     0.05
  -8   6  -3     2.59     0.03
  -8   6  -2     0.64     0.03
  -8   6  -1     0.05     0.01
  -8   6   0     4.52     0.06
  -8   6   1     0.16     0.02
  -8   6   2     0.77     0.03
  -8   6   3     0.49     0.02
  -8   6   4     0.97     0.03
  -8   6   5     0.32     0.02
  -8   6   6     0.04     0.02
  -8   6   7     1.74     0.04
  -8   6   8     0.64     0.02
  -8   6   9     2.47     0.04
  -8   6  10     3.55     0.05
  -8   6  11     2.71     0.05
  -8   6  12    10.51     0.10
  -8   6  13     0.09     0.02
  -8   6  14     0.07     0.02
  -8   6  15     1.74     0.08
  -8   6  16     4.38     0.07
  -8   6  17     0.65     0.05
  -8   6  18     0.78     0.03
  -8   6  19     0.04     0.03
  -8   6  20     0.54     0.04
  -8   6  21     0.23     0.03
  -8   6  22     0.01     0.03
  -8   6  23     0.22     0.03
  -8   6  24     0.29     0.03
  -8   6  25     0.00     0.03
  -8   6  26     1.98     0.07
  -8   6  27     0.03     0.04
  -8   7  -7     0.03     0.01
  -8   7  -6     7.24     0.07
  -8   7  -5     1.78     0.03
  -8   7  -4    12.35     0.10
  -8   7  -3     2.88     0.04
  -8   7  -2     0.08     0.02
  -8   7  -1     0.26     0.02
  -8   7   0     0.03     0.02
  -8   7   1     0.18     0.02
  -8   7   2     0.00     0.02
  -8   7   3     1.33     0.04
  -8   7   4     2.01     0.04
  -8   7   5     0.03     0.02
  -8   7   6     2.78     0.05
  -8   7   7     0.12     0.03
  -8   7   8     0.05     0.02
  -8   7   9     0.49     0.03
  -8   7  10     1.07     0.04
  -8   7  11     0.49     0.03
  -8   7  12     0.03     0.03
  -8   7  13     0.00     0.05
  -8   7  14     2.06     0.06
  -8   7  15     0.15     0.02
  -8   7  16     0.01     0.02
  -8   7  17     0.01     0.02
  -8   7  18     2.93     0.06
  -8   7  19     0.47     0.05
  -8   7  20     7.05     0.11
  -8   7  21     1.29     0.04
  -8   7  22     2.00     0.07
  -8   7  23     0.54     0.08
  -8   7  24     0.41     0.04
  -8   8  -7     0.04     0.03
  -8   8  -6     2.47     0.05
  -8   8  -5     0.20     0.02
  -8   8  -4     0.69     0.02
  -8   8  -3     1.42     0.03
  -8   8  -2     0.75     0.02
  -8   8  -1     0.02     0.02
  -8   8   0     1.49     0.03
  -8   8   1     0.02     0.02
  -8   8   2     0.79     0.03
  -8   8   3     0.51     0.05
  -8   8   4     0.45     0.04
  -8   8   5     0.07     0.02
  -8   8   6     0.14     0.02
  -8   8   7     0.64     0.03
  -8   8   8     0.62     0.04
  -8   8   9     0.84     0.06
  -8   8  10     2.23     0.12
  -8   8  11     1.35     0.07
  -8   8  12     5.06     0.13
  -8   8  13     0.02     0.03
  -8   8  14     0.03     0.07
  -8   8  15     1.76     0.08
  -8   8  16     3.49     0.08
  -8   8  17     0.49     0.04
  -8   8  18     0.19     0.06
  -8   8  19     0.03     0.03
  -8   8  20     0.48     0.04
  -8   8  21     0.20     0.04
  -8   9  -7     0.02     0.01
  -8   9  -6     2.79     0.05
  -8   9  -5     0.74     0.03
  -8   9  -4     7.15     0.08
  -8   9  -3     1.33     0.03
  -8   9  -2     0.03     0.02
  -8   9  -1     0.03     0.02
  -8   9   0     0.02     0.02
  -8   9   1     0.24     0.02
  -8   9   2     0.05     0.02
  -8   9   3     1.05     0.04
  -8   9   4     1.63     0.04
  -8   9   5     0.00     0.02
  -8   9   6     0.80     0.03
  -8   9   7     0.02     0.02
  -8   9   8     0.00     0.02
  -8   9   9     0.22     0.02
  -8   9  10     0.25     0.02
  -8   9  11     0.25     0.03
  -8   9  12     0.29     0.04
  -8   9  13     0.00     0.03
  -8   9  14     0.64     0.07
  -8   9  15     0.02     0.08
  -8   9  16     0.03     0.04
  -8   9  17     0.10     0.07
  -8  10  -7     0.00     0.01
  -8  10  -6     1.35     0.03
  -8  10  -5     0.10     0.02
  -8  10  -4     0.46     0.03
  -8  10  -3     0.74     0.03
  -8  10  -2     0.82     0.03
  -8  10  -1     0.15     0.02
  -8  10   0     0.27     0.03
  -8  10   1     0.00     0.02
  -8  10   2     0.52     0.05
  -8  10   3     0.31     0.03
  -8  10   4     0.30     0.03
  -8  10   5     0.03     0.02
  -8  10   6     0.40     0.04
  -8  10   7     0.15     0.02
  -8  10   8     0.71     0.05
  -8  10   9     0.22     0.03
  -7   0  -5     0.66     0.02
  -7   0  -3     0.08     0.02
  -7   0  -1    43.29     0.38
  -7   0   1    13.84     0.12
  -7   0   3     0.21     0.02
  -7   0   5    18.69     0.16
  -7   0   7    19.84     0.17
  -7   0   9     0.79     0.03
  -7   0  11     3.13     0.04
  -7   0  13     2.11     0.04
  -7   0  15     4.98     0.10
  -7   0  17    11.97     0.14
  -7   0  19     3.95     0.10
  -7   0  21     2.45     0.06
  -7   0  23     0.34     0.03
  -7   0  25     0.00     0.03
  -7   0  27     1.17     0.07
  -7   0  29     1.29     0.06
  -7   0  31     0.59     0.05
  -7   0  33    11.27     0.36
  -7   0  35     1.70     0.13
  -7   1  -6     0.00     0.01
  -7   1  -5    36.52     0.20
  -7   1  -4     0.01     0.01
  -7   1  -3     1.68     0.02
  -7   1  -2     0.05     0.01
  -7   1  -1     3.32     0.03
  -7   1   0     0.44     0.01
  -7   1   1     1.52     0.02
  -7   1   2     1.14     0.02
  -7   1   3    11.17     0.07
  -7   1   4     1.28     0.03
  -7   1   5    45.65     0.28
  -7   1   6     0.39     0.02
  -7   1   7     0.73     0.02
  -7   1   8     0.02     0.01
  -7   1   9    12.41     0.08
  -7   1  10     0.18     0.02
  -7   1  11     0.04     0.01
  -7   1  12     0.39     0.01
  -7   1  13     6.12     0.05
  -7   1  14     0.08     0.02
  -7   1  15    41.57     0.25
  -7   1  16     0.03     0.02
  -7   1  17     7.19     0.08
  -7   1  18     0.04     0.01
  -7   1  19    27.89     0.24
  -7   1  20     0.01     0.02
  -7   1  21     1.20     0.04
  -7   1  22     0.02     0.02
  -7   1  23    10.96     0.11
  -7   1  24     0.07     0.03
  -7   1  25     0.87     0.06
  -7   1  26     0.00     0.03
  -7   1  27    15.21     0.16
  -7   1  28     0.02     0.02
  -7   1  29     9.30     0.11
  -7   1  30     0.04     0.03
  -7   1  31     0.62     0.03
  -7   1  32     0.00     0.04
  -7   1  33     0.01     0.03
  -7   1  34     0.02     0.03
  -7   1  35     0.22     0.03
  -7   2  -6     0.66     0.01
  -7   2  -5     0.03     0.01
  -7   2  -4     0.04     0.01
  -7   2  -3     0.58     0.01
  -7   2  -2     0.38     0.01
  -7   2  -1    33.90     0.18
  -7   2   0     0.02     0.01
  -7   2   1    11.32     0.07
  -7   2   2     0.10     0.01
  -7   2   3     0.60     0.02
  -7   2   4     0.00     0.01
  -7   2   5    11.42     0.08
  -7   2   6     0.02     0.01
  -7   2   7    11.15     0.08
  -7   2   8     0.05     0.01
  -7   2   9     0.03     0.02
  -7   2  10     0.17     0.02
  -7   2  11     1.23     0.03
  -7   2  12     0.28     0.02
  -7   2  13     1.08     0.03
  -7   2  14     0.81     0.02
  -7   2  15     5.33     0.07
  -7   2  16     1.46     0.04
  -7   2  17    10.53     0.09
  -7   2  18     0.69     0.02
  -7   2  19     3.38     0.05
  -7   2  20     0.01     0.03
  -7   2  21     2.44     0.05
  -7   2  22     0.55     0.03
  -7   2  23     0.47     0.03
  -7   2  24     0.82     0.03
  -7   2  25     0.05     0.03
  -7   2  26     0.29     0.02
  -7   2  27     0.73     0.04
  -7   2  28     0.01     0.02
  -7   2  29     0.78     0.04
  -7   2  30     0.07     0.04
  -7   2  31     0.97     0.04
  -7   2  32     0.00     0.05
  -7   2  33     8.93     0.11
  -7   2  34     0.03     0.02
  -7   2  35     1.24     0.04
  -7   3  -6     0.41     0.01
  -7   3  -5    21.54     0.12
  -7   3  -4     0.23     0.01
  -7   3  -3     0.17     0.01
  -7   3  -2     0.17     0.01
  -7   3  -1     6.04     0.04
  -7   3   0     0.43     0.01
  -7   3   1     0.39     0.01
  -7   3   2     3.24     0.03
  -7   3   3    12.13     0.08
  -7   3   4     4.55     0.04
  -7   3   5    29.95     0.19
  -7   3   6     1.03     0.02
  -7   3   7     1.43     0.02
  -7   3   8     0.14     0.02
  -7   3   9     8.80     0.07
  -7   3  10     0.82     0.02
  -7   3  11     0.13     0.02
  -7   3  12     1.49     0.02
  -7   3  13     4.47     0.05
  -7   3  14     0.00     0.02
  -7   3  15    39.17     0.25
  -7   3  16     0.24     0.02
  -7   3  17     3.16     0.04
  -7   3  18     0.01     0.01
  -7   3  19    15.78     0.12
  -7   3  20     0.04     0.03
  -7   3  21     0.06     0.02
  -7   3  22     0.00     0.02
  -7   3  23     7.18     0.08
  -7   3  24     0.15     0.02
  -7   3  25     0.86     0.03
  -7   3  26     0.08     0.02
  -7   3  27    12.04     0.12
  -7   3  28     0.39     0.02
  -7   3  29     9.03     0.10
  -7   3  30     0.79     0.04
  -7   3  31     0.39     0.02
  -7   3  32     0.00     0.03
  -7   3  33     0.04     0.03
  -7   3  34     0.21     0.03
  -7   4  -6     0.18     0.01
  -7   4  -5     0.23     0.01
  -7   4  -4     0.95     0.02
  -7   4  -3     1.73     0.02
  -7   4  -2     1.68     0.02
  -7   4  -1    17.55     0.10
  -7   4   0     0.00     0.01
  -7   4   1     5.40     0.05
  -7   4   2     0.77     0.02
  -7   4   3     0.72     0.02
  -7   4   4     0.35     0.02
  -7   4   5     4.51     0.06
  -7   4   6     1.11     0.04
  -7   4   7     3.56     0.04
  -7   4   8     0.34     0.01
  -7   4   9     0.65     0.03
  -7   4  10     0.06     0.02
  -7   4  11     0.41     0.02
  -7   4  12     0.00     0.01
  -7   4  13     0.75     0.02
  -7   4  14     0.69     0.03
  -7   4  15     4.00     0.04
  -7   4  16     2.74     0.04
  -7   4  17     8.93     0.08
  -7   4  18     1.73     0.03
  -7   4  19     2.68     0.06
  -7   4  20     0.03     0.03
  -7   4  21     1.59     0.03
  -7   4  22     0.74     0.03
  -7   4  23     0.27     0.02
  -7   4  24     1.25     0.04
  -7   4  25     0.02     0.02
  -7   4  26     0.20     0.02
  -7   4  27     0.61     0.06
  -7   4  28     0.02     0.01
  -7   4  29     0.37     0.04
  -7   4  30     0.58     0.06
  -7   4  31     1.51     0.07
  -7   4  32     0.04     0.03
  -7   4  33     5.47     0.10
  -7   5  -6     1.00     0.02
  -7   5  -5    11.85     0.08
  -7   5  -4     0.98     0.02
  -7   5  -3     0.15     0.01
  -7   5  -2     1.48     0.03
  -7   5  -1     3.16     0.03
  -7   5   0     0.01     0.01
  -7   5   1     1.27     0.02
  -7   5   2     2.01     0.02
  -7   5   3     5.40     0.05
  -7   5   4     3.92     0.04
  -7   5   5    19.75     0.14
  -7   5   6     0.63     0.04
  -7   5   7     1.26     0.03
  -7   5   8     0.35     0.02
  -7   5   9     4.73     0.05
  -7   5  10     0.89     0.04
  -7   5  11     0.66     0.02
  -7   5  12     1.48     0.04
  -7   5  13     5.22     0.05
  -7   5  14     0.38     0.02
  -7   5  15    24.74     0.19
  -7   5  16     1.23     0.03
  -7   5  17     2.01     0.03
  -7   5  18     0.19     0.02
  -7   5  19     8.35     0.08
  -7   5  20     0.18     0.02
  -7   5  21     0.12     0.03
  -7   5  22     0.14     0.02
  -7   5  23     4.72     0.06
  -7   5  24     0.10     0.02
  -7   5  25     0.33     0.03
  -7   5  26     0.06     0.03
  -7   5  27     7.26     0.10
  -7   5  28     0.58     0.04
  -7   5  29     7.32     0.12
  -7   5  30     1.69     0.07
  -7   5  31     0.46     0.03
  -7   6  -6     0.12     0.02
  -7   6  -5     0.03     0.01
  -7   6  -4     1.25     0.03
  -7   6  -3     1.60     0.03
  -7   6  -2     1.96     0.03
  -7   6  -1     6.92     0.06
  -7   6   0     0.01     0.02
  -7   6   1     1.18     0.02
  -7   6   2     1.04     0.02
  -7   6   3     0.15     0.01
  -7   6   4     0.33     0.02
  -7   6   5     2.31     0.04
  -7   6   6     1.31     0.04
  -7   6   7     1.59     0.05
  -7   6   8     0.48     0.04
  -7   6   9     0.43     0.03
  -7   6  10     0.13     0.02
  -7   6  11     0.77     0.02
  -7   6  12     0.05     0.02
  -7   6  13     1.48     0.06
  -7   6  14     0.45     0.03
  -7   6  15     1.51     0.04
  -7   6  16     2.71     0.05
  -7   6  17     6.76     0.13
  -7   6  18     1.98     0.05
  -7   6  19     2.07     0.04
  -7   6  20     0.02     0.02
  -7   6  21     0.45     0.02
  -7   6  22     0.72     0.04
  -7   6  23     0.00     0.04
  -7   6  24     1.12     0.05
  -7   6  25     0.10     0.03
  -7   6  26     0.11     0.03
  -7   6  27     0.84     0.05
  -7   6  28     0.04     0.03
  -7   6  29     0.30     0.04
  -7   6  30     0.70     0.06
  -7   7  -6     0.47     0.02
  -7   7  -5     5.71     0.05
  -7   7  -4     0.33     0.02
  -7   7  -3     0.19     0.03
  -7   7  -2     0.89     0.03
  -7   7  -1     0.75     0.03
  -7   7   0     0.03     0.02
  -7   7   1     2.68     0.04
  -7   7   2     1.99     0.04
  -7   7   3     1.31     0.03
  -7   7   4     3.69     0.04
  -7   7   5    12.49     0.13
  -7   7   6     0.62     0.03
  -7   7   7     0.85     0.04
  -7   7   8     0.24     0.02
  -7   7   9     1.99     0.07
  -7   7  10     0.66     0.03
  -7   7  11     1.19     0.06
  -7   7  12     1.55     0.03
  -7   7  13     5.65     0.06
  -7   7  14     0.32     0.04
  -7   7  15    11.28     0.14
  -7   7  16     0.83     0.03
  -7   7  17     1.38     0.04
  -7   7  18     0.00     0.03
  -7   7  19     3.61     0.06
  -7   7  20     0.05     0.02
  -7   7  21     0.46     0.03
  -7   7  22     0.06     0.03
  -7   7  23     2.73     0.06
  -7   7  24     0.14     0.04
  -7   7  25     0.03     0.06
  -7   7  26     0.00     0.04
  -7   7  27     3.52     0.09
  -7   8  -6     0.30     0.03
  -7   8  -5     0.04     0.02
  -7   8  -4     0.49     0.02
  -7   8  -3     1.48     0.03
  -7   8  -2     1.05     0.03
  -7   8  -1     1.81     0.03
  -7   8   0     0.02     0.02
  -7   8   1     0.09     0.04
  -7   8   2     0.70     0.02
  -7   8   3     0.02     0.02
  -7   8   4     0.03     0.03
  -7   8   5     0.63     0.04
  -7   8   6     0.35     0.06
  -7   8   7     0.29     0.02
  -7   8   8     0.00     0.02
  -7   8   9     0.57     0.03
  -7   8  10     0.02     0.02
  -7   8  11     0.58     0.03
  -7   8  12     0.00     0.02
  -7   8  13     1.40     0.06
  -7   8  14     0.30     0.03
  -7   8  15     0.57     0.03
  -7   8  16     1.96     0.07
  -7   8  17     4.26     0.07
  -7   8  18     1.34     0.07
  -7   8  19     1.21     0.04
  -7   8  20     0.00     0.04
  -7   8  21     0.03     0.02
  -7   8  22     0.64     0.04
  -7   8  23     0.04     0.03
  -7   8  24     0.94     0.06
  -7   8  25     0.07     0.07
  -7   9  -6     0.08     0.02
  -7   9  -5     1.69     0.04
  -7   9  -4     0.00     0.02
  -7   9  -3     0.01     0.01
  -7   9  -2     0.33     0.03
  -7   9  -1     0.43     0.02
  -7   9   0     0.00     0.01
  -7   9   1     1.81     0.04
  -7   9   2     1.36     0.05
  -7   9   3     0.60     0.03
  -7   9   4     2.36     0.04
  -7   9   5     5.40     0.07
  -7   9   6     0.40     0.04
  -7   9   7     0.74     0.05
  -7   9   8     0.17     0.07
  -7   9   9     0.70     0.03
  -7   9  10     0.28     0.03
  -7   9  11     0.95     0.07
  -7   9  12     1.25     0.10
  -7   9  13     3.90     0.19
  -7   9  14     0.13     0.03
  -7   9  15     5.61     0.32
  -7   9  16     0.39     0.10
  -7   9  17     0.42     0.08
  -7   9  18     0.01     0.05
  -7   9  19     0.73     0.08
  -7   9  20     0.00     0.02
  -7   9  21     0.93     0.07
  -7  10  -6     0.22     0.03
  -7  10  -5     0.07     0.03
  -7  10  -4     0.17     0.03
  -7  10  -3     1.23     0.03
  -7  10  -2     0.44     0.03
  -7  10  -1     0.30     0.03
  -7  10   0     0.07     0.03
  -7  10   1     0.02     0.02
  -7  10   2     0.50     0.05
  -7  10   3     0.03     0.02
  -7  10   4     0.00     0.04
  -7  10   5     0.06     0.06
  -7  10   6     0.06     0.05
  -7  10   7     0.03     0.03
  -7  10   8     0.01     0.03
  -7  10   9     0.83     0.05
  -7  10  10     0.05     0.07
  -7  10  11     0.17     0.05
  -7  10  12     0.03     0.05
  -7  10  13     0.61     0.06
  -7  10  14     0.05     0.05
  -7  10  15     0.23     0.07
  -7  10  16     0.74     0.06
  -7  11  -5     0.45     0.02
  -7  11  -4     0.01     0.02
  -7  11  -3     0.04     0.02
  -7  11  -2     0.23     0.02
  -7  11  -1     0.18     0.02
  -7  11   0     0.02     0.02
  -7  11   1     0.89     0.03
  -7  11   2     0.32     0.02
  -7  11   3     0.24     0.02
  -7  11   4     0.67     0.03
  -7  11   5     1.91     0.04
  -7  11   6     0.08     0.02
  -6   0  -4    59.07     0.44
  -6   0  -2    53.65     0.36
  -6   0   0     6.98     0.07
  -6   0   2     0.02     0.01
  -6   0   4     6.89     0.06
  -6   0   6     7.58     0.07
  -6   0   8    14.78     0.13
  -6   0  10    47.77     0.51
  -6   0  12    19.33     0.18
  -6   0  14    31.88     0.27
  -6   0  16     1.36     0.04
  -6   0  18     8.43     0.11
  -6   0  20    16.09     0.20
  -6   0  22     6.33     0.10
  -6   0  24     1.66     0.05
  -6   0  26     0.51     0.03
  -6   0  28     0.39     0.04
  -6   0  30     0.13     0.03
  -6   0  32     0.90     0.07
  -6   0  34     3.63     0.09
  -6   0  36     1.04     0.06
  -6   1  -5     0.31     0.01
  -6   1  -4    10.41     0.06
  -6   1  -3     0.77     0.02
  -6   1  -2     0.77     0.02
  -6   1  -1     1.12     0.02
  -6   1   0     1.54     0.03
  -6   1   1     0.80     0.01
  -6   1   2    17.24     0.09
  -6   1   3     0.74     0.02
  -6   1   4     4.04     0.03
  -6   1   5     0.40     0.02
  -6   1   6     3.99     0.03
  -6   1   7     0.00     0.01
  -6   1   8     2.04     0.02
  -6   1   9     0.52     0.01
  -6   1  10     1.79     0.03
  -6   1  11     0.91     0.02
  -6   1  12     1.46     0.03
  -6   1  13     0.98     0.02
  -6   1  14    43.83     0.27
  -6   1  15     0.19     0.01
  -6   1  16     1.60     0.03
  -6   1  17     0.04     0.02
  -6   1  18     0.75     0.03
  -6   1  19     0.02     0.01
  -6   1  20     7.61     0.07
  -6   1  21     0.02     0.02
  -6   1  22     2.76     0.04
  -6   1  23     0.05     0.01
  -6   1  24     0.06     0.02
  -6   1  25     0.08     0.02
  -6   1  26     1.71     0.04
  -6   1  27     0.01     0.04
  -6   1  28    35.43     0.30
  -6   1  29     0.08     0.03
  -6   1  30     6.48     0.08
  -6   1  31     0.00     0.02
  -6   1  32    10.66     0.15
  -6   1  33     0.06     0.04
  -6   1  34     2.00     0.05
  -6   1  35     0.00     0.02
  -6   1  36     7.47     0.11
  -6   1  37     0.06     0.02
  -6   2  -5     0.02     0.01
  -6   2  -4    43.52     0.21
  -6   2  -3     1.41     0.02
  -6   2  -2    50.27     0.24
  -6   2  -1     3.25     0.03
  -6   2   0     4.59     0.03
  -6   2   1     0.36     0.01
  -6   2   2     0.30     0.01
  -6   2   3     0.01     0.01
  -6   2   4     2.26     0.02
  -6   2   5     0.00     0.01
  -6   2   6     2.15     0.03
  -6   2   7     0.09     0.01
  -6   2   8     5.71     0.05
  -6   2   9     0.78     0.02
  -6   2  10    31.86     0.19
  -6   2  11     1.46     0.02
  -6   2  12    20.58     0.13
  -6   2  13     0.39     0.01
  -6   2  14    29.37     0.19
  -6   2  15     0.27     0.01
  -6   2  16     0.89     0.02
  -6   2  17     0.04     0.02
  -6   2  18     6.96     0.07
  -6   2  19     0.03     0.02
  -6   2  20    16.16     0.15
  -6   2  21     0.54     0.02
  -6   2  22     4.73     0.05
  -6   2  23     1.38     0.03
  -6   2  24     0.87     0.03
  -6   2  25     1.03     0.04
  -6   2  26     1.03     0.03
  -6   2  27     0.19     0.02
  -6   2  28     0.13     0.02
  -6   2  29     0.04     0.02
  -6   2  30     0.00     0.02
  -6   2  31     0.33     0.02
  -6   2  32     1.09     0.04
  -6   2  33     0.13     0.02
  -6   2  34     3.04     0.07
  -6   2  35     0.00     0.02
  -6   2  36     0.96     0.04
  -6   2  37     0.05     0.05
  -6   3  -5     0.22     0.01
  -6   3  -4     1.59     0.02
  -6   3  -3     1.12     0.02
  -6   3  -2     0.03     0.01
  -6   3  -1     1.88     0.02
  -6   3   0     3.09     0.03
  -6   3   1     0.91     0.02
  -6   3   2    18.06     0.09
  -6   3   3     1.46     0.02
  -6   3   4     2.50     0.03
  -6   3   5     1.03     0.02
  -6   3   6     4.92     0.04
  -6   3   7     0.09     0.01
  -6   3   8     2.15     0.04
  -6   3   9     2.38     0.03
  -6   3  10     2.06     0.03
  -6   3  11     3.37     0.03
  -6   3  12     2.50     0.03
  -6   3  13     3.24     0.03
  -6   3  14    27.14     0.18
  -6   3  15     0.07     0.02
  -6   3  16     4.63     0.06
  -6   3  17     1.45     0.03
  -6   3  18     0.02     0.02
  -6   3  19     0.13     0.02
  -6   3  20     3.16     0.04
  -6   3  21     0.00     0.02
  -6   3  22     3.89     0.05
  -6   3  23     0.04     0.02
  -6   3  24     0.07     0.02
  -6   3  25     0.39     0.03
  -6   3  26     2.38     0.04
  -6   3  27     0.01     0.03
  -6   3  28    25.46     0.21
  -6   3  29     0.12     0.02
  -6   3  30     3.99     0.05
  -6   3  31     0.05     0.02
  -6   3  32     9.96     0.11
  -6   3  33     0.08     0.04
  -6   3  34     1.74     0.04
  -6   3  35     0.41     0.03
  -6   3  36     6.96     0.11
  -6   4  -5     0.18     0.01
  -6   4  -4    23.62     0.13
  -6   4  -3     4.39     0.03
  -6   4  -2    38.22     0.19
  -6   4  -1     6.91     0.05
  -6   4   0     2.04     0.02
  -6   4   1     0.06     0.01
  -6   4   2     0.72     0.02
  -6   4   3     0.94     0.02
  -6   4   4     0.22     0.01
  -6   4   5     1.37     0.02
  -6   4   6     0.06     0.01
  -6   4   7     0.76     0.02
  -6   4   8     0.59     0.02
  -6   4   9     0.05     0.02
  -6   4  10    17.55     0.11
  -6   4  11     0.85     0.02
  -6   4  12    14.20     0.10
  -6   4  13     0.05     0.02
  -6   4  14    17.38     0.12
  -6   4  15     0.20     0.01
  -6   4  16     0.07     0.02
  -6   4  17     0.08     0.02
  -6   4  18     4.63     0.05
  -6   4  19     0.00     0.01
  -6   4  20    12.44     0.10
  -6   4  21     0.50     0.02
  -6   4  22     3.67     0.05
  -6   4  23     1.81     0.04
  -6   4  24     0.54     0.04
  -6   4  25     1.23     0.04
  -6   4  26     1.18     0.05
  -6   4  27     0.08     0.02
  -6   4  28     0.04     0.03
  -6   4  29     0.51     0.02
  -6   4  30     0.05     0.02
  -6   4  31     1.49     0.03
  -6   4  32     1.44     0.05
  -6   4  33     0.49     0.04
  -6   4  34     2.01     0.07
  -6   4  35     0.07     0.03
  -6   5  -5     0.01     0.02
  -6   5  -4     0.20     0.02
  -6   5  -3     0.15     0.02
  -6   5  -2     0.13     0.01
  -6   5  -1     0.39     0.01
  -6   5   0     0.47     0.01
  -6   5   1     0.00     0.01
  -6   5   2     7.54     0.05
  -6   5   3     0.45     0.02
  -6   5   4     3.94     0.04
  -6   5   5     0.63     0.01
  -6   5   6     3.35     0.03
  -6   5   7     0.23     0.01
  -6   5   8     2.34     0.03
  -6   5   9     2.46     0.03
  -6   5  10     0.92     0.02
  -6   5  11     2.82     0.03
  -6   5  12     0.88     0.03
  -6   5  13     2.65     0.03
  -6   5  14    19.22     0.14
  -6   5  15     0.20     0.02
  -6   5  16     4.28     0.05
  -6   5  17     4.83     0.05
  -6   5  18     0.07     0.02
  -6   5  19     0.80     0.03
  -6   5  20     1.70     0.05
  -6   5  21     0.25     0.02
  -6   5  22     3.44     0.05
  -6   5  23     0.00     0.03
  -6   5  24     0.01     0.02
  -6   5  25     0.59     0.03
  -6   5  26     3.30     0.06
  -6   5  27     0.03     0.03
  -6   5  28    14.46     0.19
  -6   5  29     0.07     0.04
  -6   5  30     2.20     0.05
  -6   5  31     0.21     0.03
  -6   5  32     6.59     0.09
  -6   5  33     0.06     0.02
  -6   6  -5     0.15     0.01
  -6   6  -4    12.96     0.10
  -6   6  -3     4.32     0.04
  -6   6  -2    23.94     0.17
  -6   6  -1     7.11     0.06
  -6   6   0     1.10     0.02
  -6   6   1     0.00     0.01
  -6   6   2     0.21     0.01
  -6   6   3     1.27     0.03
  -6   6   4     0.25     0.02
  -6   6   5     1.66     0.03
  -6   6   6     0.01     0.01
  -6   6   7     1.13     0.02
  -6   6   8     0.17     0.01
  -6   6   9     0.01     0.01
  -6   6  10    12.68     0.10
  -6   6  11     0.68     0.02
  -6   6  12     4.83     0.05
  -6   6  13     0.00     0.01
  -6   6  14     5.25     0.06
  -6   6  15     0.05     0.02
  -6   6  16     0.23     0.03
  -6   6  17     0.07     0.02
  -6   6  18     2.99     0.05
  -6   6  19     0.02     0.02
  -6   6  20     6.15     0.07
  -6   6  21     0.33     0.04
  -6   6  22     4.06     0.06
  -6   6  23     1.60     0.04
  -6   6  24     0.94     0.04
  -6   6  25     1.08     0.05
  -6   6  26     0.45     0.04
  -6   6  27     0.05     0.03
  -6   6  28     0.09     0.03
  -6   6  29     0.68     0.05
  -6   6  30     0.01     0.03
  -6   6  31     1.76     0.07
  -6   6  32     1.39     0.05
  -6   7  -5     0.04     0.01
  -6   7  -4     0.01     0.01
  -6   7  -3     0.40     0.02
  -6   7  -2     0.81     0.02
  -6   7  -1     0.61     0.02
  -6   7   0     0.25     0.02
  -6   7   1     0.00     0.01
  -6   7   2     1.37     0.02
  -6   7   3     0.51     0.02
  -6   7   4     4.93     0.05
  -6   7   5     0.76     0.02
  -6   7   6     1.75     0.03
  -6   7   7     0.13     0.02
  -6   7   8     2.17     0.03
  -6   7   9     1.82     0.03
  -6   7  10     0.17     0.01
  -6   7  11     2.12     0.03
  -6   7  12     0.11     0.02
  -6   7  13     2.92     0.04
  -6   7  14    12.80     0.11
  -6   7  15     0.08     0.04
  -6   7  16     2.54     0.05
  -6   7  17     3.69     0.05
  -6   7  18     0.07     0.02
  -6   7  19     0.25     0.02
  -6   7  20     0.96     0.03
  -6   7  21     0.10     0.04
  -6   7  22     2.41     0.08
  -6   7  23     0.02     0.03
  -6   7  24     0.04     0.05
  -6   7  25     0.58     0.04
  -6   7  26     3.48     0.10
  -6   7  27     0.00     0.05
  -6   7  28     6.59     0.12
  -6   7  29     0.21     0.03
  -6   7  30     0.85     0.05
  -6   8  -5     0.01     0.03
  -6   8  -4     5.68     0.06
  -6   8  -3     2.13     0.04
  -6   8  -2    13.75     0.11
  -6   8  -1     4.91     0.06
  -6   8   0     0.43     0.02
  -6   8   1     0.00     0.02
  -6   8   2     0.15     0.01
  -6   8   3     0.39     0.03
  -6   8   4     0.07     0.02
  -6   8   5     0.30     0.02
  -6   8   6     0.19     0.02
  -6   8   7     0.17     0.03
  -6   8   8     0.04     0.03
  -6   8   9     0.21     0.04
  -6   8  10     6.39     0.07
  -6   8  11     1.07     0.04
  -6   8  12     1.50     0.04
  -6   8  13     0.00     0.03
  -6   8  14     0.87     0.03
  -6   8  15     0.03     0.03
  -6   8  16     0.60     0.04
  -6   8  17     0.04     0.02
  -6   8  18     1.62     0.07
  -6   8  19     0.00     0.03
  -6   8  20     2.56     0.06
  -6   8  21     0.24     0.03
  -6   8  22     3.10     0.09
  -6   8  23     1.25     0.06
  -6   8  24     0.72     0.08
  -6   8  25     0.98     0.11
  -6   8  26     0.20     0.03
  -6   8  27     0.15     0.05
  -6   9  -5     0.18     0.02
  -6   9  -4     0.23     0.02
  -6   9  -3     0.55     0.03
  -6   9  -2     0.34     0.02
  -6   9  -1     0.59     0.03
  -6   9   0     0.23     0.02
  -6   9   1     0.00     0.02
  -6   9   2     0.32     0.02
  -6   9   3     0.35     0.03
  -6   9   4     3.00     0.05
  -6   9   5     0.64     0.02
  -6   9   6     1.09     0.05
  -6   9   7     0.04     0.02
  -6   9   8     1.56     0.03
  -6   9   9     0.84     0.04
  -6   9  10     0.02     0.02
  -6   9  11     1.03     0.04
  -6   9  12     0.15     0.03
  -6   9  13     2.18     0.05
  -6   9  14     5.68     0.12
  -6   9  15     0.06     0.02
  -6   9  16     2.09     0.08
  -6   9  17     1.83     0.08
  -6   9  18     0.28     0.03
  -6   9  19     0.00     0.02
  -6   9  20     0.21     0.03
  -6   9  21     0.00     0.04
  -6   9  22     1.83     0.05
  -6   9  23     0.01     0.03
  -6   9  24     0.01     0.03
  -6  10  -5     0.10     0.02
  -6  10  -4     1.88     0.04
  -6  10  -3     0.72     0.04
  -6  10  -2     6.98     0.10
  -6  10  -1     2.27     0.06
  -6  10   0     0.11     0.03
  -6  10   1     0.08     0.04
  -6  10   2     0.21     0.04
  -6  10   3     0.18     0.04
  -6  10   4     0.02     0.02
  -6  10   5     0.04     0.02
  -6  10   6     0.70     0.05
  -6  10   7     0.04     0.02
  -6  10   8     0.49     0.02
  -6  10   9     0.20     0.04
  -6  10  10     2.04     0.07
  -6  10  11     0.61     0.03
  -6  10  12     0.57     0.04
  -6  10  13     0.06     0.04
  -6  10  14     0.06     0.02
  -6  10  15     0.02     0.04
  -6  10  16     0.55     0.08
  -6  10  17     0.00     0.04
  -6  10  18     0.63     0.05
  -6  10  19     0.07     0.06
  -6  11  -5     0.09     0.02
  -6  11  -4     0.46     0.02
  -6  11  -3     0.15     0.02
  -6  11  -2     0.12     0.02
  -6  11  -1     0.13     0.02
  -6  11   0     0.15     0.04
  -6  11   1     0.14     0.04
  -6  11   2     0.02     0.02
  -6  11   3     0.05     0.03
  -6  11   4     1.43     0.10
  -6  11   5     0.24     0.04
  -6  11   6     0.53     0.03
  -6  11   7     0.00     0.02
  -6  11   8     0.88     0.03
  -6  11   9     0.18     0.03
  -6  11  10     0.01     0.02
  -6  11  11     0.14     0.03
  -6  11  12     0.10     0.03
  -6  11  13     0.84     0.04
  -5   0  -3    80.58     0.68
  -5   0  -1     1.70     0.03
  -5   0   1    84.16     0.61
  -5   0   3    91.87     0.56
  -5   0   5   116.23     1.23
  -5   0   7     9.73     0.09
  -5   0   9    58.28     0.46
  -5   0  11    29.45     0.24
  -5   0  13     4.35     0.05
  -5   0  15    14.68     0.12
  -5   0  17     0.35     0.02
  -5   0  19    11.39     0.13
  -5   0  21    33.89     0.32
  -5   0  23    16.79     0.19
  -5   0  25     0.03     0.03
  -5   0  27     0.00     0.02
  -5   0  29    16.93     0.22
  -5   0  31     5.55     0.14
  -5   0  33     0.00     0.08
  -5   0  35     0.01     0.03
  -5   0  37     0.90     0.07
  -5   1  -4     0.55     0.02
  -5   1  -3     0.28     0.01
  -5   1  -2     1.80     0.02
  -5   1  -1     0.05     0.01
  -5   1   0     1.60     0.02
  -5   1   1    29.31     0.14
  -5   1   2     0.55     0.01
  -5   1   3   128.53     0.69
  -5   1   4     0.00     0.01
  -5   1   5     6.76     0.04
  -5   1   6     0.02     0.01
  -5   1   7    21.17     0.11
  -5   1   8     0.33     0.01
  -5   1   9    15.24     0.10
  -5   1  10     0.64     0.02
  -5   1  11     1.71     0.02
  -5   1  12     0.54     0.01
  -5   1  13     0.10     0.01
  -5   1  14     0.35     0.02
  -5   1  15     0.28     0.02
  -5   1  16     0.02     0.02
  -5   1  17     3.50     0.04
  -5   1  18     0.21     0.02
  -5   1  19    28.86     0.21
  -5   1  20     0.04     0.02
  -5   1  21    26.07     0.19
  -5   1  22     0.04     0.02
  -5   1  23     1.78     0.03
  -5   1  24     0.06     0.01
  -5   1  25    13.83     0.12
  -5   1  26     0.19     0.02
  -5   1  27    10.12     0.10
  -5   1  28     0.01     0.02
  -5   1  29     2.85     0.04
  -5   1  30     0.09     0.02
  -5   1  31     0.91     0.06
  -5   1  32     0.00     0.03
  -5   1  33    17.31     0.17
  -5   1  34     0.02     0.02
  -5   1  35     0.49     0.04
  -5   1  36     0.00     0.03
  -5   1  37     2.71     0.06
  -5   1  38     0.00     0.02
  -5   2  -4     0.30     0.01
  -5   2  -3    63.07     0.31
  -5   2  -2     0.95     0.02
  -5   2  -1     1.80     0.02
  -5   2   0     3.02     0.03
  -5   2   1    58.32     0.27
  -5   2   2     0.01     0.01
  -5   2   3    99.79     0.45
  -5   2   4     0.79     0.02
  -5   2   5    74.21     0.37
  -5   2   6     0.40     0.02
  -5   2   7    15.61     0.09
  -5   2   8     0.07     0.01
  -5   2   9    63.33     0.34
  -5   2  10     1.14     0.02
  -5   2  11    20.62     0.12
  -5   2  12     2.47     0.03
  -5   2  13     4.18     0.04
  -5   2  14     0.49     0.02
  -5   2  15    12.33     0.09
  -5   2  16     0.03     0.02
  -5   2  17     0.75     0.02
  -5   2  18     0.21     0.02
  -5   2  19     8.65     0.08
  -5   2  20     0.51     0.02
  -5   2  21    32.90     0.26
  -5   2  22     0.31     0.02
  -5   2  23    17.24     0.14
  -5   2  24     0.35     0.03
  -5   2  25     0.04     0.02
  -5   2  26     0.13     0.02
  -5   2  27     0.19     0.03
  -5   2  28     0.00     0.02
  -5   2  29    13.39     0.12
  -5   2  30     0.26     0.02
  -5   2  31     5.91     0.07
  -5   2  32     0.44     0.02
  -5   2  33     0.08     0.04
  -5   2  34     0.00     0.02
  -5   2  35     0.07     0.03
  -5   2  36     0.04     0.03
  -5   2  37     1.06     0.04
  -5   2  38     0.18     0.03
  -5   3  -4     0.12     0.01
  -5   3  -3     2.87     0.02
  -5   3  -2     2.71     0.02
  -5   3  -1     0.43     0.01
  -5   3   0     2.51     0.03
  -5   3   1    21.45     0.11
  -5   3   2     0.43     0.01
  -5   3   3    94.83     0.57
  -5   3   4     0.35     0.01
  -5   3   5     4.57     0.03
  -5   3   6     0.08     0.01
  -5   3   7    12.26     0.07
  -5   3   8     0.93     0.02
  -5   3   9     9.72     0.06
  -5   3  10     1.26     0.02
  -5   3  11     3.00     0.03
  -5   3  12     0.61     0.02
  -5   3  13     0.31     0.02
  -5   3  14     0.23     0.01
  -5   3  15     2.20     0.03
  -5   3  16     0.31     0.02
  -5   3  17     0.54     0.02
  -5   3  18     3.57     0.05
  -5   3  19    31.65     0.22
  -5   3  20     0.94     0.02
  -5   3  21    18.84     0.15
  -5   3  22     0.03     0.03
  -5   3  23     1.62     0.04
  -5   3  24     0.30     0.02
  -5   3  25    10.24     0.10
  -5   3  26     1.46     0.03
  -5   3  27    11.23     0.10
  -5   3  28     0.11     0.02
  -5   3  29     1.51     0.03
  -5   3  30     0.22     0.02
  -5   3  31     0.57     0.02
  -5   3  32     0.06     0.02
  -5   3  33    15.15     0.14
  -5   3  34     0.01     0.03
  -5   3  35     0.50     0.05
  -5   3  36     0.07     0.04
  -5   3  37     2.37     0.05
  -5   4  -4     1.02     0.02
  -5   4  -3    35.37     0.17
  -5   4  -2     1.21     0.02
  -5   4  -1     0.72     0.01
  -5   4   0     3.55     0.03
  -5   4   1    31.48     0.16
  -5   4   2     1.21     0.02
  -5   4   3    82.47     0.38
  -5   4   4     7.50     0.05
  -5   4   5    37.22     0.18
  -5   4   6     5.69     0.04
  -5   4   7    14.30     0.08
  -5   4   8     3.66     0.03
  -5   4   9    50.05     0.24
  -5   4  10     0.21     0.02
  -5   4  11    14.55     0.09
  -5   4  12     2.69     0.03
  -5   4  13     1.77     0.03
  -5   4  14     0.47     0.02
  -5   4  15     6.50     0.05
  -5   4  16     0.03     0.02
  -5   4  17     1.55     0.05
  -5   4  18     0.05     0.02
  -5   4  19     6.61     0.06
  -5   4  20     0.21     0.02
  -5   4  21    21.81     0.16
  -5   4  22     0.02     0.02
  -5   4  23    11.12     0.10
  -5   4  24     0.05     0.02
  -5   4  25     0.01     0.02
  -5   4  26     0.00     0.03
  -5   4  27     0.56     0.03
  -5   4  28     0.17     0.02
  -5   4  29     8.58     0.09
  -5   4  30     1.03     0.03
  -5   4  31     5.32     0.07
  -5   4  32     1.42     0.04
  -5   4  33     0.15     0.03
  -5   4  34     0.13     0.04
  -5   4  35     0.13     0.02
  -5   4  36     0.37     0.03
  -5   5  -4     0.48     0.02
  -5   5  -3     0.98     0.02
  -5   5  -2     0.47     0.01
  -5   5  -1     0.22     0.01
  -5   5   0     0.42     0.01
  -5   5   1     4.20     0.03
  -5   5   2     0.09     0.01
  -5   5   3    42.34     0.21
  -5   5   4     1.48     0.02
  -5   5   5     4.17     0.03
  -5   5   6     0.08     0.01
  -5   5   7     3.97     0.04
  -5   5   8     0.56     0.02
  -5   5   9     1.83     0.02
  -5   5  10     0.37     0.01
  -5   5  11     0.80     0.02
  -5   5  12     0.00     0.01
  -5   5  13     0.01     0.01
  -5   5  14     0.04     0.01
  -5   5  15     1.25     0.03
  -5   5  16     1.83     0.04
  -5   5  17     0.38     0.02
  -5   5  18     8.86     0.08
  -5   5  19    22.52     0.17
  -5   5  20     2.42     0.04
  -5   5  21    14.72     0.12
  -5   5  22     0.01     0.02
  -5   5  23     0.81     0.03
  -5   5  24     0.40     0.02
  -5   5  25     6.07     0.09
  -5   5  26     2.66     0.06
  -5   5  27    10.17     0.14
  -5   5  28     0.42     0.04
  -5   5  29     0.87     0.07
  -5   5  30     0.21     0.05
  -5   5  31     0.77     0.08
  -5   5  32     0.00     0.06
  -5   5  33     8.60     0.11
  -5   5  34     0.04     0.02
  -5   5  35     1.17     0.04
  -5   6  -4     0.77     0.02
  -5   6  -3    17.04     0.11
  -5   6  -2     0.72     0.02
  -5   6  -1     0.02     0.01
  -5   6   0     3.59     0.03
  -5   6   1    20.61     0.12
  -5   6   2     1.63     0.02
  -5   6   3    46.12     0.26
  -5   6   4     8.08     0.05
  -5   6   5    25.76     0.15
  -5   6   6     5.74     0.06
  -5   6   7     4.39     0.05
  -5   6   8     4.57     0.05
  -5   6   9    22.44     0.13
  -5   6  10     0.08     0.02
  -5   6  11    14.28     0.09
  -5   6  12     2.46     0.04
  -5   6  13     0.05     0.02
  -5   6  14     0.29     0.02
  -5   6  15     2.00     0.03
  -5   6  16     0.09     0.01
  -5   6  17     1.53     0.03
  -5   6  18     0.00     0.02
  -5   6  19     6.50     0.07
  -5   6  20     0.07     0.03
  -5   6  21     7.35     0.08
  -5   6  22     0.06     0.02
  -5   6  23     2.94     0.05
  -5   6  24     0.05     0.03
  -5   6  25     0.12     0.03
  -5   6  26     0.01     0.04
  -5   6  27     0.34     0.03
  -5   6  28     0.18     0.03
  -5   6  29     4.99     0.09
  -5   6  30     1.16     0.06
  -5   6  31     3.78     0.11
  -5   6  32     1.65     0.05
  -5   6  33     0.11     0.02
  -5   7  -4     0.07     0.02
  -5   7  -3     0.02     0.01
  -5   7  -2     0.84     0.03
  -5   7  -1     1.91     0.03
  -5   7   0     0.60     0.02
  -5   7   1     0.00     0.01
  -5   7   2     0.04     0.02
  -5   7   3    14.22     0.10
  -5   7   4     1.04     0.04
  -5   7   5     3.48     0.03
  -5   7   6     0.00     0.01
  -5   7   7     0.70     0.02
  -5   7   8     0.44     0.01
  -5   7   9     0.03     0.01
  -5   7  10     0.35     0.02
  -5   7  11     0.02     0.01
  -5   7  12     0.02     0.01
  -5   7  13     0.17     0.01
  -5   7  14     0.04     0.02
  -5   7  15     0.27     0.02
  -5   7  16     0.67     0.03
  -5   7  17     0.42     0.02
  -5   7  18     6.52     0.07
  -5   7  19    12.56     0.13
  -5   7  20     1.43     0.04
  -5   7  21     9.87     0.12
  -5   7  22     0.02     0.03
  -5   7  23     0.20     0.03
  -5   7  24     0.25     0.05
  -5   7  25     2.99     0.07
  -5   7  26     2.40     0.06
  -5   7  27     7.43     0.11
  -5   7  28     0.24     0.03
  -5   7  29     0.50     0.04
  -5   7  30     0.31     0.04
  -5   7  31     0.81     0.05
  -5   8  -4     0.13     0.02
  -5   8  -3     7.08     0.07
  -5   8  -2     0.27     0.02
  -5   8  -1     0.06     0.02
  -5   8   0     3.69     0.06
  -5   8   1    10.46     0.09
  -5   8   2     0.50     0.02
  -5   8   3    26.92     0.20
  -5   8   4     3.08     0.03
  -5   8   5    13.18     0.10
  -5   8   6     1.44     0.05
  -5   8   7     1.84     0.04
  -5   8   8     1.67     0.02
  -5   8   9    10.58     0.08
  -5   8  10     0.36     0.02
  -5   8  11     9.70     0.08
  -5   8  12     2.41     0.03
  -5   8  13     0.07     0.03
  -5   8  14     0.15     0.03
  -5   8  15     0.42     0.02
  -5   8  16     0.15     0.03
  -5   8  17     1.43     0.05
  -5   8  18     0.02     0.02
  -5   8  19     4.67     0.06
  -5   8  20     0.17     0.05
  -5   8  21     1.76     0.05
  -5   8  22     0.00     0.03
  -5   8  23     0.49     0.04
  -5   8  24     0.09     0.03
  -5   8  25     0.27     0.04
  -5   8  26     0.03     0.03
  -5   8  27     0.37     0.05
  -5   8  28     0.00     0.03
  -5   8  29     2.18     0.06
  -5   9  -4     0.03     0.03
  -5   9  -3     0.15     0.02
  -5   9  -2     0.90     0.03
  -5   9  -1     1.25     0.03
  -5   9   0     0.60     0.02
  -5   9   1     0.31     0.02
  -5   9   2     0.01     0.02
  -5   9   3     4.84     0.05
  -5   9   4     0.53     0.03
  -5   9   5     1.83     0.05
  -5   9   6     0.03     0.01
  -5   9   7     0.02     0.01
  -5   9   8     0.19     0.01
  -5   9   9     0.36     0.03
  -5   9  10     0.15     0.02
  -5   9  11     0.04     0.02
  -5   9  12     0.07     0.01
  -5   9  13     0.01     0.02
  -5   9  14     0.25     0.02
  -5   9  15     0.34     0.03
  -5   9  16     0.01     0.02
  -5   9  17     0.03     0.02
  -5   9  18     3.05     0.07
  -5   9  19     7.41     0.10
  -5   9  20     0.39     0.06
  -5   9  21     4.75     0.07
  -5   9  22     0.12     0.03
  -5   9  23     0.11     0.05
  -5   9  24     0.02     0.03
  -5   9  25     1.22     0.05
  -5   9  26     1.38     0.05
  -5  10  -4     0.03     0.02
  -5  10  -3     2.51     0.04
  -5  10  -2     0.02     0.02
  -5  10  -1     0.11     0.02
  -5  10   0     2.27     0.04
  -5  10   1     3.88     0.06
  -5  10   2     0.24     0.02
  -5  10   3    15.91     0.14
  -5  10   4     1.23     0.03
  -5  10   5     4.55     0.05
  -5  10   6     0.28     0.02
  -5  10   7     1.27     0.05
  -5  10   8     0.74     0.03
  -5  10   9     5.79     0.06
  -5  10  10     0.18     0.03
  -5  10  11     4.71     0.09
  -5  10  12     1.17     0.06
  -5  10  13     0.08     0.02
  -5  10  14     0.03     0.04
  -5  10  15     0.05     0.05
  -5  10  16     0.19     0.02
  -5  10  17     1.23     0.07
  -5  10  18     0.04     0.03
  -5  10  19     2.33     0.07
  -5  10  20     0.04     0.02
  -5  10  21     0.43     0.03
  -5  10  22     0.03     0.02
  -5  11  -4     0.02     0.02
  -5  11  -3     0.23     0.02
  -5  11  -2     0.23     0.02
  -5  11  -1     0.53     0.02
  -5  11   0     0.09     0.02
  -5  11   1     0.37     0.02
  -5  11   2     0.07     0.02
  -5  11   3     1.54     0.03
  -5  11   4     0.38     0.03
  -5  11   5     0.80     0.04
  -5  11   6     0.07     0.03
  -5  11   7     0.00     0.02
  -5  11   8     0.03     0.03
  -5  11   9     0.48     0.05
  -5  11  10     0.01     0.02
  -5  11  11     0.08     0.04
  -5  11  12     0.02     0.07
  -5  11  13     0.02     0.02
  -5  11  14     0.13     0.03
  -5  11  15     0.27     0.04
  -5  11  16     0.00     0.02
  -5  11  17     0.00     0.02
  -5  12  -4     0.09     0.02
  -5  12  -3     0.92     0.03
  -5  12  -2     0.06     0.02
  -5  12  -1     0.11     0.02
  -5  12   0     0.97     0.03
  -5  12   1     1.44     0.04
  -5  12   2     0.17     0.02
  -5  12   3     7.14     0.11
  -5  12   4     0.48     0.05
  -5  12   5     1.85     0.04
  -5  12   6     0.03     0.02
  -5  12   7     0.44     0.02
  -4   0  -2   155.85     1.34
  -4   0   0     0.52     0.02
  -4   0   2   240.58     1.93
  -4   0   4    31.40     0.21
  -4   0   6     9.42     0.09
  -4   0   8    74.06     0.58
  -4   0  10    18.63     0.15
  -4   0  12    22.52     0.17
  -4   0  14     0.03     0.01
  -4   0  16     0.03     0.02
  -4   0  18     0.85     0.02
  -4   0  20     6.99     0.08
  -4   0  22     2.68     0.05
  -4   0  24     0.34     0.02
  -4   0  26     0.22     0.02
  -4   0  28     3.37     0.07
  -4   0  30    15.80     0.21
  -4   0  32     6.29     0.11
  -4   0  34     3.18     0.07
  -4   0  36     0.10     0.07
  -4   0  38     2.68     0.10
  -4   0  40     0.00     0.04
  -4   1  -3     2.60     0.02
  -4   1  -2    25.13     0.12
  -4   1  -1     5.57     0.03
  -4   1   0    24.80     0.12
  -4   1   1     4.20     0.03
  -4   1   2    37.49     0.17
  -4   1   3     0.67     0.01
  -4   1   4     4.85     0.03
  -4   1   5     0.25     0.01
  -4   1   6     8.14     0.05
  -4   1   7     0.67     0.02
  -4   1   8    34.73     0.18
  -4   1   9     0.61     0.01
  -4   1  10    23.97     0.13
  -4   1  11     0.57     0.01
  -4   1  12    18.38     0.11
  -4   1  13     0.23     0.01
  -4   1  14     8.09     0.06
  -4   1  15     0.36     0.01
  -4   1  16    81.38     0.60
  -4   1  17     0.15     0.01
  -4   1  18    19.89     0.13
  -4   1  19     0.02     0.02
  -4   1  20     2.64     0.03
  -4   1  21     0.03     0.02
  -4   1  22     0.17     0.03
  -4   1  23     0.15     0.01
  -4   1  24     2.13     0.05
  -4   1  25     0.12     0.01
  -4   1  26     0.55     0.02
  -4   1  27     0.13     0.01
  -4   1  28     5.14     0.06
  -4   1  29     0.01     0.02
  -4   1  30     6.22     0.08
  -4   1  31     0.27     0.02
  -4   1  32     0.49     0.02
  -4   1  33     0.18     0.02
  -4   1  34     0.52     0.02
  -4   1  35     0.04     0.04
  -4   1  36     2.13     0.06
  -4   1  37     0.00     0.03
  -4   1  38     2.11     0.08
  -4   1  39     0.00     0.03
  -4   2  -3     0.01     0.00
  -4   2  -2   120.99     0.92
  -4   2  -1     0.05     0.01
  -4   2   0     0.17     0.01
  -4   2   1     0.66     0.01
  -4   2   2   152.08     0.70
  -4   2   3     0.10     0.01
  -4   2   4    46.12     0.22
  -4   2   5     0.22     0.01
  -4   2   6     1.40     0.02
  -4   2   7     0.32     0.01
  -4   2   8    44.19     0.21
  -4   2   9     0.77     0.01
  -4   2  10    23.92     0.14
  -4   2  11     3.76     0.03
  -4   2  12    16.92     0.10
  -4   2  13     5.67     0.04
  -4   2  14     0.03     0.01
  -4   2  15     1.02     0.02
  -4   2  16     0.03     0.01
  -4   2  17     0.30     0.02
  -4   2  18     1.28     0.02
  -4   2  19     1.57     0.03
  -4   2  20     8.83     0.08
  -4   2  21     1.42     0.04
  -4   2  22     1.45     0.03
  -4   2  23     0.53     0.02
  -4   2  24     0.89     0.02
  -4   2  25     0.02     0.02
  -4   2  26     0.00     0.01
  -4   2  27     0.01     0.01
  -4   2  28     1.83     0.03
  -4   2  29     0.00     0.02
  -4   2  30    12.37     0.11
  -4   2  31     0.01     0.02
  -4   2  32     5.12     0.06
  -4   2  33     0.07     0.02
  -4   2  34     2.55     0.04
  -4   2  35     0.00     0.02
  -4   2  36     0.01     0.02
  -4   2  37     0.06     0.02
  -4   2  38     2.19     0.06
  -4   2  39     0.14     0.03
  -4   3  -3     3.25     0.02
  -4   3  -2    24.49     0.11
  -4   3  -1    12.98     0.07
  -4   3   0     9.91     0.06
  -4   3   1    10.77     0.06
  -4   3   2    11.19     0.06
  -4   3   3     1.23     0.02
  -4   3   4     2.95     0.02
  -4   3   5     1.27     0.02
  -4   3   6     6.67     0.04
  -4   3   7     1.71     0.02
  -4   3   8    22.09     0.12
  -4   3   9     0.66     0.01
  -4   3  10    19.08     0.10
  -4   3  11     0.26     0.01
  -4   3  12    19.60     0.10
  -4   3  13     0.08     0.01
  -4   3  14     0.66     0.01
  -4   3  15     0.10     0.01
  -4   3  16    39.40     0.22
  -4   3  17     0.01     0.02
  -4   3  18     7.43     0.06
  -4   3  19     0.35     0.02
  -4   3  20     4.20     0.04
  -4   3  21     0.01     0.02
  -4   3  22     0.12     0.02
  -4   3  23     0.83     0.04
  -4   3  24     2.38     0.04
  -4   3  25     1.09     0.03
  -4   3  26     0.19     0.02
  -4   3  27     1.40     0.03
  -4   3  28     5.98     0.07
  -4   3  29     0.03     0.02
  -4   3  30     3.87     0.05
  -4   3  31     1.01     0.03
  -4   3  32     0.25     0.02
  -4   3  33     0.86     0.05
  -4   3  34     0.58     0.05
  -4   3  35     0.26     0.02
  -4   3  36     2.02     0.05
  -4   3  37     0.01     0.02
  -4   3  38     1.59     0.07
  -4   4  -3     0.17     0.01
  -4   4  -2    57.52     0.30
  -4   4  -1     1.71     0.02
  -4   4   0     0.80     0.01
  -4   4   1     0.08     0.01
  -4   4   2    63.46     0.29
  -4   4   3     1.55     0.02
  -4   4   4    44.64     0.21
  -4   4   5     6.13     0.04
  -4   4   6     0.10     0.01
  -4   4   7     0.78     0.01
  -4   4   8    22.02     0.11
  -4   4   9     0.09     0.01
  -4   4  10    20.53     0.11
  -4   4  11     3.11     0.02
  -4   4  12    11.57     0.06
  -4   4  13     9.94     0.06
  -4   4  14     0.20     0.01
  -4   4  15     2.66     0.02
  -4   4  16     0.08     0.02
  -4   4  17     0.11     0.01
  -4   4  18     0.73     0.03
  -4   4  19     1.28     0.03
  -4   4  20     7.00     0.06
  -4   4  21     0.88     0.02
  -4   4  22     1.27     0.03
  -4   4  23     0.08     0.02
  -4   4  24     0.81     0.03
  -4   4  25     0.16     0.02
  -4   4  26     0.16     0.02
  -4   4  27     0.08     0.02
  -4   4  28     0.47     0.02
  -4   4  29     0.02     0.02
  -4   4  30     6.76     0.08
  -4   4  31     0.01     0.03
  -4   4  32     3.19     0.06
  -4   4  33     0.20     0.03
  -4   4  34     1.86     0.08
  -4   4  35     0.03     0.03
  -4   4  36     0.07     0.02
  -4   4  37     0.58     0.03
  -4   4  38     1.09     0.05
  -4   5  -3     0.17     0.01
  -4   5  -2     7.10     0.04
  -4   5  -1     6.05     0.04
  -4   5   0     8.92     0.05
  -4   5   1     5.54     0.04
  -4   5   2     3.52     0.03
  -4   5   3     0.30     0.01
  -4   5   4     2.60     0.02
  -4   5   5     1.52     0.02
  -4   5   6     6.11     0.04
  -4   5   7     0.92     0.02
  -4   5   8     5.97     0.04
  -4   5   9     0.00     0.01
  -4   5  10     4.46     0.03
  -4   5  11     0.29     0.01
  -4   5  12     7.22     0.05
  -4   5  13     2.05     0.02
  -4   5  14     0.10     0.01
  -4   5  15     0.28     0.01
  -4   5  16    19.05     0.12
  -4   5  17     0.55     0.02
  -4   5  18     2.90     0.03
  -4   5  19     1.49     0.02
  -4   5  20     3.25     0.04
  -4   5  21     0.11     0.02
  -4   5  22     0.03     0.02
  -4   5  23     1.28     0.04
  -4   5  24     2.35     0.05
  -4   5  25     1.92     0.05
  -4   5  26     0.18     0.04
  -4   5  27     3.04     0.11
  -4   5  28     4.24     0.11
  -4   5  29     0.38     0.03
  -4   5  30     2.97     0.07
  -4   5  31     1.00     0.04
  -4   5  32     0.40     0.04
  -4   5  33     0.79     0.04
  -4   5  34     0.12     0.04
  -4   5  35     0.20     0.04
  -4   5  36     0.94     0.04
  -4   6  -3     0.30     0.01
  -4   6  -2    19.88     0.11
  -4   6  -1     2.06     0.03
  -4   6   0     0.04     0.01
  -4   6   1     0.09     0.01
  -4   6   2    34.92     0.18
  -4   6   3     1.61     0.02
  -4   6   4    22.20     0.12
  -4   6   5     7.06     0.05
  -4   6   6     0.09     0.01
  -4   6   7     0.94     0.01
  -4   6   8    18.46     0.10
  -4   6   9     0.41     0.02
  -4   6  10     8.52     0.06
  -4   6  11     1.83     0.03
  -4   6  12     9.47     0.07
  -4   6  13     9.19     0.06
  -4   6  14     0.39     0.02
  -4   6  15     2.49     0.04
  -4   6  16     0.01     0.01
  -4   6  17     0.10     0.01
  -4   6  18     0.00     0.01
  -4   6  19     0.96     0.02
  -4   6  20     1.84     0.03
  -4   6  21     0.57     0.05
  -4   6  22     3.35     0.08
  -4   6  23     0.03     0.03
  -4   6  24     0.01     0.03
  -4   6  25     0.37     0.04
  -4   6  26     0.09     0.03
  -4   6  27     0.13     0.04
  -4   6  28     0.05     0.03
  -4   6  29     0.00     0.03
  -4   6  30     2.69     0.06
  -4   6  31     0.00     0.03
  -4   6  32     1.51     0.08
  -4   6  33     0.20     0.07
  -4   6  34     1.19     0.04
  -4   6  35     0.05     0.02
  -4   7  -3     0.35     0.01
  -4   7  -2     0.63     0.02
  -4   7  -1     5.17     0.04
  -4   7   0     8.51     0.06
  -4   7   1     4.35     0.05
  -4   7   2     1.94     0.02
  -4   7   3     0.24     0.02
  -4   7   4     2.01     0.03
  -4   7   5     1.11     0.02
  -4   7   6     4.98     0.04
  -4   7   7     0.70     0.02
  -4   7   8     0.52     0.02
  -4   7   9     0.02     0.01
  -4   7  10     0.05     0.01
  -4   7  11     0.04     0.02
  -4   7  12     1.11     0.02
  -4   7  13     1.00     0.02
  -4   7  14     0.07     0.01
  -4   7  15     0.01     0.01
  -4   7  16     8.22     0.07
  -4   7  17     0.06     0.02
  -4   7  18     1.05     0.06
  -4   7  19     0.88     0.03
  -4   7  20     1.67     0.05
  -4   7  21     0.05     0.02
  -4   7  22     0.05     0.02
  -4   7  23     1.02     0.05
  -4   7  24     1.87     0.05
  -4   7  25     1.17     0.05
  -4   7  26     0.06     0.03
  -4   7  27     2.38     0.08
  -4   7  28     2.23     0.06
  -4   7  29     0.21     0.04
  -4   7  30     2.20     0.09
  -4   7  31     1.28     0.08
  -4   7  32     0.70     0.06
  -4   7  33     0.79     0.06
  -4   8  -3     0.26     0.02
  -4   8  -2     6.54     0.06
  -4   8  -1     0.92     0.03
  -4   8   0     0.05     0.01
  -4   8   1     0.28     0.02
  -4   8   2    15.29     0.12
  -4   8   3     0.05     0.02
  -4   8   4    13.75     0.11
  -4   8   5     2.19     0.03
  -4   8   6     0.03     0.01
  -4   8   7     0.02     0.01
  -4   8   8    10.78     0.07
  -4   8   9     0.06     0.01
  -4   8  10     4.00     0.04
  -4   8  11     1.28     0.03
  -4   8  12     5.93     0.05
  -4   8  13     6.35     0.06
  -4   8  14     0.42     0.02
  -4   8  15     1.36     0.05
  -4   8  16     0.02     0.02
  -4   8  17     0.28     0.02
  -4   8  18     0.08     0.02
  -4   8  19     0.96     0.03
  -4   8  20     0.38     0.02
  -4   8  21     0.63     0.04
  -4   8  22     3.32     0.06
  -4   8  23     0.09     0.02
  -4   8  24     0.03     0.03
  -4   8  25     0.10     0.07
  -4   8  26     0.04     0.03
  -4   8  27     0.01     0.06
  -4   8  28     0.07     0.07
  -4   8  29     0.02     0.03
  -4   8  30     0.58     0.04
  -4   9  -3     0.38     0.02
  -4   9  -2     0.25     0.02
  -4   9  -1     3.48     0.06
  -4   9   0     3.71     0.07
  -4   9   1     2.60     0.06
  -4   9   2     0.64     0.02
  -4   9   3     0.15     0.02
  -4   9   4     0.92     0.04
  -4   9   5     0.63     0.02
  -4   9   6     2.82     0.04
  -4   9   7     0.34     0.02
  -4   9   8     0.04     0.02
  -4   9   9     0.06     0.01
  -4   9  10     0.11     0.02
  -4   9  11     0.04     0.03
  -4   9  12     0.49     0.03
  -4   9  13     0.27     0.02
  -4   9  14     0.15     0.02
  -4   9  15     0.33     0.02
  -4   9  16     1.47     0.03
  -4   9  17     0.06     0.02
  -4   9  18     0.01     0.02
  -4   9  19     0.31     0.02
  -4   9  20     1.03     0.04
  -4   9  21     0.04     0.02
  -4   9  22     0.05     0.02
  -4   9  23     0.49     0.03
  -4   9  24     1.25     0.04
  -4   9  25     0.34     0.06
  -4   9  26     0.08     0.04
  -4   9  27     1.16     0.06
  -4   9  28     1.30     0.06
  -4  10  -3     0.26     0.02
  -4  10  -2     2.13     0.05
  -4  10  -1     0.64     0.02
  -4  10   0     0.14     0.02
  -4  10   1     0.39     0.02
  -4  10   2     4.43     0.05
  -4  10   3     0.05     0.02
  -4  10   4     9.94     0.09
  -4  10   5     0.96     0.03
  -4  10   6     0.19     0.02
  -4  10   7     0.08     0.02
  -4  10   8     4.26     0.06
  -4  10   9     0.09     0.02
  -4  10  10     2.30     0.04
  -4  10  11     0.31     0.02
  -4  10  12     2.69     0.06
  -4  10  13     2.84     0.04
  -4  10  14     0.36     0.03
  -4  10  15     0.42     0.03
  -4  10  16     0.01     0.02
  -4  10  17     0.24     0.02
  -4  10  18     0.03     0.02
  -4  10  19     0.39     0.02
  -4  10  20     0.14     0.04
  -4  10  21     0.20     0.03
  -4  10  22     1.79     0.09
  -4  10  23     0.00     0.02
  -4  10  24     0.03     0.02
  -4  11  -3     0.04     0.02
  -4  11  -2     0.08     0.02
  -4  11  -1     0.88     0.03
  -4  11   0     1.30     0.03
  -4  11   1     0.67     0.03
  -4  11   2     0.23     0.03
  -4  11   3     0.03     0.03
  -4  11   4     0.33     0.02
  -4  11   5     0.29     0.04
  -4  11   6     1.25     0.06
  -4  11   7     0.03     0.02
  -4  11   8     0.00     0.02
  -4  11   9     0.00     0.02
  -4  11  10     0.20     0.02
  -4  11  11     0.04     0.02
  -4  11  12     0.23     0.02
  -4  11  13     0.25     0.03
  -4  11  14     0.34     0.02
  -4  11  15     0.22     0.09
  -4  11  16     0.10     0.02
  -4  11  17     0.05     0.02
  -4  11  18     0.05     0.02
  -4  11  19     0.17     0.02
  -4  12  -3     0.27     0.02
  -4  12  -2     0.58     0.04
  -4  12  -1     0.53     0.03
  -4  12   0     0.12     0.04
  -4  12   1     0.25     0.04
  -4  12   2     1.52     0.09
  -4  12   3     0.08     0.03
  -4  12   4     4.86     0.07
  -4  12   5     0.55     0.05
  -4  12   6     0.11     0.02
  -4  12   7     0.06     0.02
  -4  12   8     1.85     0.04
  -4  12   9     0.15     0.02
  -4  12  10     0.95     0.03
  -4  12  11     0.00     0.02
  -4  12  12     1.10     0.04
  -3   0  -1    39.44     0.26
  -3   0   1    18.83     0.12
  -3   0   3   303.41     3.08
  -3   0   5   412.85     9.84
  -3   0   7    16.91     0.14
  -3   0   9     0.84     0.02
  -3   0  11    75.33     0.63
  -3   0  13    27.05     0.21
  -3   0  15    35.54     0.29
  -3   0  17    30.93     0.24
  -3   0  19     8.64     0.08
  -3   0  21     0.42     0.02
  -3   0  23     0.01     0.02
  -3   0  25     0.04     0.04
  -3   0  27     1.58     0.04
  -3   0  29     2.61     0.05
  -3   0  31     0.35     0.02
  -3   0  33     1.66     0.05
  -3   0  35    25.24     0.34
  -3   0  37     0.06     0.05
  -3   0  39     0.20     0.05
  -3   1  -2     4.91     0.03
  -3   1  -1    52.62     0.24
  -3   1   0     5.05     0.03
  -3   1   1    78.65     0.39
  -3   1   2     2.30     0.02
  -3   1   3    29.88     0.13
  -3   1   4     0.22     0.01
  -3   1   5    14.02     0.07
  -3   1   6     4.42     0.03
  -3   1   7     0.06     0.01
  -3   1   8     5.30     0.03
  -3   1   9     0.93     0.02
  -3   1  10     2.84     0.02
  -3   1  11    82.80     0.50
  -3   1  12     0.68     0.01
  -3   1  13     0.69     0.01
  -3   1  14     0.04     0.01
  -3   1  15     2.13     0.02
  -3   1  16     0.15     0.01
  -3   1  17    89.42     0.67
  -3   1  18     0.22     0.01
  -3   1  19     8.21     0.06
  -3   1  20     0.01     0.01
  -3   1  21     5.34     0.05
  -3   1  22     0.02     0.02
  -3   1  23    12.63     0.10
  -3   1  24     0.07     0.02
  -3   1  25    58.98     0.55
  -3   1  26     0.06     0.02
  -3   1  27     0.66     0.03
  -3   1  28     0.01     0.01
  -3   1  29     0.00     0.02
  -3   1  30     0.13     0.03
  -3   1  31     3.02     0.05
  -3   1  32     0.37     0.02
  -3   1  33     1.42     0.04
  -3   1  34     0.21     0.02
  -3   1  35     1.67     0.04
  -3   1  36     0.00     0.03
  -3   1  37     0.55     0.05
  -3   1  38     0.00     0.04
  -3   1  39     1.48     0.05
  -3   1  40     0.08     0.04
  -3   2  -2     1.18     0.01
  -3   2  -1    41.02     0.20
  -3   2   0     0.21     0.01
  -3   2   1     2.78     0.02
  -3   2   2     0.86     0.01
  -3   2   3   148.49     0.76
  -3   2   4     2.10     0.02
  -3   2   5   226.26     1.36
  -3   2   6     1.92     0.02
  -3   2   7    25.88     0.13
  -3   2   8     2.49     0.02
  -3   2   9     1.80     0.02
  -3   2  10     1.58     0.02
  -3   2  11    57.01     0.31
  -3   2  12     0.74     0.01
  -3   2  13    21.65     0.11
  -3   2  14     0.85     0.01
  -3   2  15    37.49     0.17
  -3   2  16     0.26     0.01
  -3   2  17    20.35     0.11
  -3   2  18     2.96     0.03
  -3   2  19     4.67     0.04
  -3   2  20     4.88     0.04
  -3   2  21     0.03     0.01
  -3   2  22     2.48     0.04
  -3   2  23     0.28     0.03
  -3   2  24     0.25     0.02
  -3   2  25     0.20     0.01
  -3   2  26     0.09     0.01
  -3   2  27     0.65     0.03
  -3   2  28     0.36     0.02
  -3   2  29     1.65     0.03
  -3   2  30     0.06     0.02
  -3   2  31     0.38     0.02
  -3   2  32     0.03     0.02
  -3   2  33     1.86     0.04
  -3   2  34     0.02     0.02
  -3   2  35    20.64     0.21
  -3   2  36     0.06     0.03
  -3   2  37     0.11     0.02
  -3   2  38     0.00     0.03
  -3   2  39     0.02     0.02
  -3   2  40     0.07     0.02
  -3   3  -2     7.53     0.04
  -3   3  -1    19.11     0.09
  -3   3   0    10.85     0.06
  -3   3   1    44.82     0.20
  -3   3   2     6.02     0.03
  -3   3   3    10.39     0.05
  -3   3   4     0.77     0.01
  -3   3   5     6.78     0.04
  -3   3   6    13.33     0.07
  -3   3   7     0.50     0.01
  -3   3   8    13.74     0.07
  -3   3   9     2.49     0.02
  -3   3  10     4.96     0.03
  -3   3  11    30.93     0.15
  -3   3  12     0.08     0.01
  -3   3  13     1.03     0.02
  -3   3  14     1.16     0.02
  -3   3  15     9.41     0.06
  -3   3  16     0.05     0.01
  -3   3  17    47.26     0.24
  -3   3  18     0.14     0.01
  -3   3  19    11.28     0.07
  -3   3  20     0.01     0.02
  -3   3  21     4.89     0.05
  -3   3  22     0.12     0.02
  -3   3  23     6.53     0.07
  -3   3  24     0.03     0.02
  -3   3  25    38.90     0.31
  -3   3  26     0.03     0.02
  -3   3  27     1.93     0.03
  -3   3  28     0.02     0.01
  -3   3  29     0.14     0.02
  -3   3  30     0.15     0.02
  -3   3  31     3.38     0.07
  -3   3  32     1.62     0.04
  -3   3  33     0.76     0.03
  -3   3  34     0.94     0.03
  -3   3  35     1.12     0.04
  -3   3  36     0.08     0.02
  -3   3  37     0.61     0.03
  -3   3  38     0.11     0.03
  -3   3  39     1.50     0.05
  -3   4  -2     0.02     0.01
  -3   4  -1    25.77     0.13
  -3   4   0     5.31     0.03
  -3   4   1     0.22     0.01
  -3   4   2     0.61     0.01
  -3   4   3    29.27     0.14
  -3   4   4     0.10     0.01
  -3   4   5    70.08     0.34
  -3   4   6     0.07     0.01
  -3   4   7    24.13     0.13
  -3   4   8     0.24     0.01
  -3   4   9     0.52     0.01
  -3   4  10     0.44     0.01
  -3   4  11    21.68     0.11
  -3   4  12     0.51     0.01
  -3   4  13    11.92     0.06
  -3   4  14     2.72     0.02
  -3   4  15    32.06     0.15
  -3   4  16     0.01     0.01
  -3   4  17    11.44     0.07
  -3   4  18     2.39     0.02
  -3   4  19     2.66     0.02
  -3   4  20     5.07     0.04
  -3   4  21     0.24     0.02
  -3   4  22     1.93     0.03
  -3   4  23     0.55     0.02
  -3   4  24     0.00     0.01
  -3   4  25     0.39     0.02
  -3   4  26     1.05     0.03
  -3   4  27     0.07     0.02
  -3   4  28     1.59     0.03
  -3   4  29     0.52     0.03
  -3   4  30     0.22     0.06
  -3   4  31     0.56     0.03
  -3   4  32     0.05     0.02
  -3   4  33     2.01     0.07
  -3   4  34     0.07     0.02
  -3   4  35    13.39     0.15
  -3   4  36     0.00     0.03
  -3   4  37     0.68     0.03
  -3   4  38     0.12     0.03
  -3   5  -2     1.12     0.02
  -3   5  -1    13.23     0.07
  -3   5   0     3.98     0.03
  -3   5   1    12.75     0.08
  -3   5   2     3.36     0.03
  -3   5   3     2.66     0.02
  -3   5   4     0.75     0.02
  -3   5   5     4.04     0.04
  -3   5   6     8.34     0.05
  -3   5   7     0.07     0.01
  -3   5   8     6.96     0.04
  -3   5   9     0.16     0.01
  -3   5  10     1.10     0.02
  -3   5  11    16.00     0.09
  -3   5  12     1.20     0.01
  -3   5  13     0.70     0.02
  -3   5  14     5.76     0.04
  -3   5  15     7.58     0.05
  -3   5  16     1.03     0.02
  -3   5  17    24.89     0.14
  -3   5  18     0.02     0.01
  -3   5  19     9.13     0.07
  -3   5  20     0.19     0.01
  -3   5  21     4.46     0.06
  -3   5  22     0.18     0.02
  -3   5  23     1.99     0.06
  -3   5  24     0.11     0.03
  -3   5  25    21.52     0.22
  -3   5  26     0.25     0.03
  -3   5  27     1.75     0.06
  -3   5  28     0.35     0.03
  -3   5  29     0.01     0.05
  -3   5  30     0.00     0.02
  -3   5  31     1.65     0.08
  -3   5  32     1.73     0.06
  -3   5  33     0.78     0.04
  -3   5  34     0.93     0.04
  -3   5  35     1.00     0.04
  -3   5  36     0.06     0.02
  -3   5  37     0.41     0.03
  -3   6  -2     0.05     0.01
  -3   6  -1     7.62     0.05
  -3   6   0     5.63     0.04
  -3   6   1     0.01     0.01
  -3   6   2     0.75     0.01
  -3   6   3     8.42     0.05
  -3   6   4     0.32     0.01
  -3   6   5    30.37     0.15
  -3   6   6     0.47     0.01
  -3   6   7     9.42     0.06
  -3   6   8     0.01     0.01
  -3   6   9     0.85     0.01
  -3   6  10     0.13     0.01
  -3   6  11     3.62     0.03
  -3   6  12     0.14     0.01
  -3   6  13     5.49     0.04
  -3   6  14     2.95     0.03
  -3   6  15    19.22     0.12
  -3   6  16     0.13     0.01
  -3   6  17     9.31     0.07
  -3   6  18     1.65     0.02
  -3   6  19     3.85     0.04
  -3   6  20     4.02     0.04
  -3   6  21     0.07     0.01
  -3   6  22     1.40     0.03
  -3   6  23     0.02     0.02
  -3   6  24     0.07     0.02
  -3   6  25     0.03     0.03
  -3   6  26     1.34     0.05
  -3   6  27     0.04     0.03
  -3   6  28     1.91     0.05
  -3   6  29     0.05     0.03
  -3   6  30     0.13     0.03
  -3   6  31     0.58     0.04
  -3   6  32     0.20     0.02
  -3   6  33     1.42     0.05
  -3   6  34     0.01     0.02
  -3   6  35     7.48     0.11
  -3   6  36     0.02     0.02
  -3   7  -2     0.91     0.02
  -3   7  -1    12.31     0.08
  -3   7   0     2.82     0.03
  -3   7   1     2.46     0.02
  -3   7   2     2.62     0.03
  -3   7   3     0.86     0.02
  -3   7   4     0.53     0.02
  -3   7   5     3.02     0.03
  -3   7   6     5.21     0.04
  -3   7   7     0.14     0.02
  -3   7   8     4.90     0.04
  -3   7   9     0.41     0.02
  -3   7  10     1.34     0.02
  -3   7  11    10.90     0.07
  -3   7  12     0.45     0.02
  -3   7  13     0.11     0.01
  -3   7  14     3.12     0.04
  -3   7  15     4.12     0.04
  -3   7  16     0.21     0.02
  -3   7  17    12.10     0.10
  -3   7  18     0.14     0.01
  -3   7  19     5.93     0.06
  -3   7  20     0.12     0.03
  -3   7  21     3.68     0.05
  -3   7  22     0.17     0.02
  -3   7  23     0.23     0.03
  -3   7  24     0.06     0.02
  -3   7  25     9.67     0.14
  -3   7  26     0.03     0.03
  -3   7  27     1.11     0.05
  -3   7  28     0.31     0.03
  -3   7  29     0.12     0.03
  -3   7  30     0.02     0.05
  -3   7  31     0.32     0.04
  -3   7  32     1.85     0.05
  -3   7  33     0.90     0.05
  -3   7  34     0.98     0.04
  -3   8  -2     0.01     0.02
  -3   8  -1     2.86     0.04
  -3   8   0     1.78     0.03
  -3   8   1     0.05     0.01
  -3   8   2     0.05     0.02
  -3   8   3     1.20     0.02
  -3   8   4     0.21     0.01
  -3   8   5     9.99     0.07
  -3   8   6     0.05     0.01
  -3   8   7     5.10     0.04
  -3   8   8     0.31     0.02
  -3   8   9     1.91     0.03
  -3   8  10     0.20     0.02
  -3   8  11     0.27     0.01
  -3   8  12     0.00     0.01
  -3   8  13     2.12     0.03
  -3   8  14     1.71     0.03
  -3   8  15    10.27     0.09
  -3   8  16     0.02     0.02
  -3   8  17     5.69     0.06
  -3   8  18     1.62     0.03
  -3   8  19     2.85     0.04
  -3   8  20     3.53     0.05
  -3   8  21     0.11     0.02
  -3   8  22     1.44     0.05
  -3   8  23     0.02     0.03
  -3   8  24     0.01     0.02
  -3   8  25     0.03     0.03
  -3   8  26     0.60     0.06
  -3   8  27     0.05     0.03
  -3   8  28     1.04     0.05
  -3   8  29     0.04     0.04
  -3   8  30     0.04     0.03
  -3   8  31     0.57     0.06
  -3   8  32     0.14     0.03
  -3   9  -2     0.63     0.04
  -3   9  -1     6.19     0.07
  -3   9   0     1.72     0.04
  -3   9   1     0.90     0.04
  -3   9   2     1.72     0.04
  -3   9   3     0.25     0.02
  -3   9   4     0.26     0.01
  -3   9   5     1.65     0.05
  -3   9   6     2.57     0.04
  -3   9   7     0.06     0.01
  -3   9   8     2.68     0.03
  -3   9   9     0.17     0.02
  -3   9  10     1.15     0.02
  -3   9  11     4.19     0.07
  -3   9  12     0.03     0.02
  -3   9  13     0.45     0.03
  -3   9  14     1.06     0.03
  -3   9  15     3.81     0.04
  -3   9  16     0.05     0.02
  -3   9  17     3.51     0.05
  -3   9  18     0.42     0.02
  -3   9  19     4.52     0.05
  -3   9  20     0.07     0.02
  -3   9  21     2.45     0.04
  -3   9  22     0.06     0.03
  -3   9  23     0.04     0.04
  -3   9  24     0.03     0.02
  -3   9  25     2.98     0.06
  -3   9  26     0.00     0.03
  -3   9  27     1.00     0.10
  -3   9  28     0.16     0.03
  -3   9  29     0.08     0.03
  -3  10  -2     0.04     0.02
  -3  10  -1     1.50     0.03
  -3  10   0     0.95     0.03
  -3  10   1     0.58     0.04
  -3  10   2     0.20     0.02
  -3  10   3     0.03     0.01
  -3  10   4     0.31     0.03
  -3  10   5     1.58     0.05
  -3  10   6     0.03     0.01
  -3  10   7     3.72     0.07
  -3  10   8     0.13     0.03
  -3  10   9     1.42     0.04
  -3  10  10     0.04     0.02
  -3  10  11     0.02     0.01
  -3  10  12     0.08     0.02
  -3  10  13     0.74     0.04
  -3  10  14     0.81     0.04
  -3  10  15     5.11     0.05
  -3  10  16     0.07     0.01
  -3  10  17     2.37     0.05
  -3  10  18     0.70     0.03
  -3  10  19     1.11     0.03
  -3  10  20     1.49     0.03
  -3  10  21     0.02     0.02
  -3  10  22     0.55     0.06
  -3  10  23     0.00     0.03
  -3  10  24     0.03     0.02
  -3  10  25     0.06     0.03
  -3  11  -2     0.02     0.01
  -3  11  -1     2.77     0.04
  -3  11   0     0.34     0.03
  -3  11   1     0.40     0.02
  -3  11   2     0.66     0.05
  -3  11   3     0.08     0.02
  -3  11   4     0.11     0.02
  -3  11   5     0.79     0.03
  -3  11   6     0.66     0.02
  -3  11   7     0.02     0.02
  -3  11   8     0.57     0.03
  -3  11   9     0.03     0.02
  -3  11  10     0.30     0.02
  -3  11  11     1.43     0.04
  -3  11  12     0.05     0.02
  -3  11  13     0.53     0.02
  -3  11  14     0.62     0.03
  -3  11  15     2.33     0.04
  -3  11  16     0.08     0.03
  -3  11  17     0.84     0.06
  -3  11  18     0.27     0.03
  -3  11  19     2.60     0.04
  -3  11  20     0.12     0.02
  -3  11  21     1.22     0.03
  -3  12  -2     0.03     0.03
  -3  12  -1     0.46     0.03
  -3  12   0     0.62     0.04
  -3  12   1     0.41     0.04
  -3  12   2     0.13     0.02
  -3  12   3     0.23     0.03
  -3  12   4     0.12     0.02
  -3  12   5     0.32     0.02
  -3  12   6     0.03     0.02
  -3  12   7     1.67     0.04
  -3  12   8     0.02     0.02
  -3  12   9     1.03     0.03
  -3  12  10     0.01     0.02
  -3  12  11     0.09     0.02
  -3  12  12     0.21     0.02
  -3  12  13     0.23     0.02
  -3  12  14     0.40     0.03
  -2   0   0    48.20     0.36
  -2   0   2     0.08     0.01
  -2   0   4    18.22     0.14
  -2   0   6     7.24     0.06
  -2   0   8     1.87     0.02
  -2   0  10    39.18     0.25
  -2   0  12    69.19     0.44
  -2   0  14    76.14     0.52
  -2   0  16    40.26     0.29
  -2   0  18    25.48     0.19
  -2   0  20    23.00     0.17
  -2   0  22     1.95     0.04
  -2   0  24     8.22     0.09
  -2   0  26     7.99     0.10
  -2   0  28     0.95     0.03
  -2   0  30     6.88     0.09
  -2   0  32     5.14     0.08
  -2   0  34     4.08     0.07
  -2   0  36     9.67     0.17
  -2   0  38     1.83     0.21
  -2   0  40     4.54     0.14
  -2   1  -1     0.87     0.01
  -2   1   0    14.90     0.07
  -2   1   1     0.08     0.00
  -2   1   2    62.59     0.30
  -2   1   3     0.18     0.01
  -2   1   4   394.25     3.82
  -2   1   5     2.08     0.02
  -2   1   6    25.98     0.12
  -2   1   7     6.56     0.04
  -2   1   8    21.72     0.10
  -2   1   9     3.30     0.02
  -2   1  10   102.25     0.51
  -2   1  11     1.03     0.01
  -2   1  12    34.38     0.16
  -2   1  13     0.01     0.01
  -2   1  14    30.97     0.16
  -2   1  15     0.52     0.01
  -2   1  16     1.34     0.02
  -2   1  17     0.03     0.01
  -2   1  18    33.44     0.17
  -2   1  19     0.16     0.01
  -2   1  20    18.71     0.11
  -2   1  21     0.08     0.01
  -2   1  22    17.47     0.11
  -2   1  23     0.05     0.01
  -2   1  24     9.65     0.07
  -2   1  25     0.03     0.02
  -2   1  26    19.49     0.14
  -2   1  27     0.21     0.02
  -2   1  28     1.93     0.03
  -2   1  29     0.04     0.01
  -2   1  30     8.33     0.08
  -2   1  31     0.09     0.02
  -2   1  32     2.16     0.04
  -2   1  33     0.09     0.02
  -2   1  34     3.37     0.05
  -2   1  35     0.02     0.02
  -2   1  36     0.37     0.03
  -2   1  37     0.00     0.02
  -2   1  38     3.32     0.06
  -2   1  39     0.04     0.03
  -2   1  40     1.08     0.10
  -2   1  41     0.13     0.04
  -2   2  -1     0.00     0.00
  -2   2   0    11.29     0.06
  -2   2   1    10.27     0.05
  -2   2   2     5.69     0.03
  -2   2   3     1.93     0.02
  -2   2   4    27.64     0.13
  -2   2   5     0.16     0.01
  -2   2   6    12.40     0.06
  -2   2   7     3.01     0.02
  -2   2   8     0.23     0.01
  -2   2   9     3.64     0.02
  -2   2  10    25.74     0.13
  -2   2  11     0.27     0.01
  -2   2  12    42.91     0.20
  -2   2  13     0.15     0.01
  -2   2  14    52.61     0.25
  -2   2  15     0.29     0.01
  -2   2  16    39.74     0.20
  -2   2  17     0.75     0.02
  -2   2  18    25.78     0.13
  -2   2  19     1.85     0.02
  -2   2  20    24.40     0.13
  -2   2  21     1.55     0.02
  -2   2  22     0.53     0.02
  -2   2  23     0.60     0.02
  -2   2  24     4.44     0.04
  -2   2  25     0.14     0.03
  -2   2  26     9.30     0.13
  -2   2  27     0.70     0.02
  -2   2  28     0.60     0.02
  -2   2  29     0.72     0.03
  -2   2  30     6.43     0.07
  -2   2  31     0.04     0.02
  -2   2  32     5.05     0.07
  -2   2  33     0.22     0.02
  -2   2  34     4.72     0.07
  -2   2  35     0.16     0.04
  -2   2  36     7.22     0.13
  -2   2  37     0.00     0.02
  -2   2  38     1.29     0.05
  -2   2  39     0.04     0.03
  -2   2  40     4.81     0.09
  -2   3  -1     0.22     0.01
  -2   3   0     5.94     0.04
  -2   3   1     0.00     0.00
  -2   3   2    22.53     0.11
  -2   3   3     0.23     0.01
  -2   3   4   161.67     1.21
  -2   3   5     3.32     0.02
  -2   3   6    11.64     0.06
  -2   3   7    13.59     0.07
  -2   3   8     4.17     0.03
  -2   3   9     4.22     0.03
  -2   3  10    85.19     0.41
  -2   3  11     0.33     0.01
  -2   3  12    12.93     0.07
  -2   3  13     2.78     0.02
  -2   3  14    42.87     0.21
  -2   3  15     8.23     0.05
  -2   3  16     4.00     0.03
  -2   3  17     1.36     0.02
  -2   3  18    19.85     0.10
  -2   3  19     0.39     0.01
  -2   3  20    14.76     0.08
  -2   3  21     0.41     0.02
  -2   3  22     9.93     0.07
  -2   3  23     0.68     0.02
  -2   3  24    13.24     0.09
  -2   3  25     0.07     0.01
  -2   3  26    11.52     0.10
  -2   3  27     0.35     0.02
  -2   3  28     2.74     0.05
  -2   3  29     0.00     0.01
  -2   3  30     7.60     0.09
  -2   3  31     0.02     0.02
  -2   3  32     1.74     0.05
  -2   3  33     0.31     0.02
  -2   3  34     3.05     0.05
  -2   3  35     0.13     0.02
  -2   3  36     0.49     0.05
  -2   3  37     0.05     0.03
  -2   3  38     2.44     0.05
  -2   3  39     0.25     0.04
  -2   3  40     0.87     0.07
  -2   4  -1     3.18     0.02
  -2   4   0     0.36     0.01
  -2   4   1    30.35     0.15
  -2   4   2    11.06     0.06
  -2   4   3    12.34     0.07
  -2   4   4    18.53     0.10
  -2   4   5     2.13     0.02
  -2   4   6     8.89     0.05
  -2   4   7     0.26     0.01
  -2   4   8     0.05     0.01
  -2   4   9     2.09     0.02
  -2   4  10     6.61     0.04
  -2   4  11     0.09     0.01
  -2   4  12    11.48     0.06
  -2   4  13     0.03     0.01
  -2   4  14    25.71     0.12
  -2   4  15     0.04     0.01
  -2   4  16    26.20     0.13
  -2   4  17     0.00     0.01
  -2   4  18    13.92     0.08
  -2   4  19     0.53     0.01
  -2   4  20    15.05     0.09
  -2   4  21     0.52     0.01
  -2   4  22     0.16     0.01
  -2   4  23     0.11     0.01
  -2   4  24     1.79     0.03
  -2   4  25     1.39     0.03
  -2   4  26     8.47     0.09
  -2   4  27     2.62     0.05
  -2   4  28     0.37     0.02
  -2   4  29     2.27     0.04
  -2   4  30     5.44     0.09
  -2   4  31     0.09     0.02
  -2   4  32     4.08     0.06
  -2   4  33     1.04     0.04
  -2   4  34     4.70     0.07
  -2   4  35     0.79     0.04
  -2   4  36     4.22     0.07
  -2   4  37     0.16     0.02
  -2   4  38     0.43     0.03
  -2   4  39     0.02     0.02
  -2   5  -1     0.82     0.02
  -2   5   0     0.10     0.01
  -2   5   1     0.16     0.01
  -2   5   2     5.27     0.04
  -2   5   3     0.02     0.01
  -2   5   4    49.47     0.24
  -2   5   5     0.64     0.01
  -2   5   6    12.30     0.07
  -2   5   7     5.03     0.03
  -2   5   8     2.37     0.03
  -2   5   9     0.26     0.01
  -2   5  10    34.94     0.17
  -2   5  11     0.46     0.01
  -2   5  12    12.01     0.07
  -2   5  13     8.51     0.05
  -2   5  14    27.36     0.14
  -2   5  15    17.11     0.09
  -2   5  16     2.02     0.02
  -2   5  17     3.17     0.04
  -2   5  18    13.18     0.08
  -2   5  19     0.36     0.01
  -2   5  20     8.48     0.07
  -2   5  21     0.59     0.03
  -2   5  22     4.39     0.04
  -2   5  23     1.66     0.02
  -2   5  24    12.45     0.10
  -2   5  25     0.48     0.02
  -2   5  26     7.40     0.08
  -2   5  27     0.14     0.03
  -2   5  28     1.28     0.05
  -2   5  29     0.27     0.02
  -2   5  30     3.30     0.06
  -2   5  31     0.01     0.03
  -2   5  32     0.26     0.02
  -2   5  33     0.22     0.04
  -2   5  34     1.33     0.08
  -2   5  35     0.09     0.02
  -2   5  36     0.34     0.03
  -2   5  37     0.07     0.02
  -2   5  38     1.38     0.05
  -2   6  -1     2.91     0.02
  -2   6   0     1.31     0.02
  -2   6   1    22.67     0.12
  -2   6   2     2.52     0.02
  -2   6   3     8.83     0.05
  -2   6   4     2.62     0.02
  -2   6   5     2.00     0.02
  -2   6   6     0.94     0.01
  -2   6   7     0.01     0.01
  -2   6   8     1.21     0.02
  -2   6   9     1.21     0.02
  -2   6  10     0.22     0.01
  -2   6  11     0.01     0.01
  -2   6  12     1.33     0.02
  -2   6  13     0.05     0.01
  -2   6  14    13.96     0.08
  -2   6  15     0.19     0.01
  -2   6  16     8.09     0.06
  -2   6  17     0.24     0.01
  -2   6  18     1.85     0.04
  -2   6  19     0.19     0.01
  -2   6  20     2.79     0.04
  -2   6  21     0.25     0.02
  -2   6  22     0.95     0.02
  -2   6  23     0.05     0.01
  -2   6  24     1.51     0.03
  -2   6  25     1.69     0.04
  -2   6  26     4.95     0.08
  -2   6  27     2.76     0.06
  -2   6  28     0.28     0.04
  -2   6  29     2.43     0.05
  -2   6  30     4.08     0.06
  -2   6  31     0.07     0.03
  -2   6  32     2.22     0.05
  -2   6  33     1.53     0.04
  -2   6  34     3.19     0.07
  -2   6  35     1.05     0.09
  -2   6  36     2.30     0.06
  -2   7  -1     0.49     0.01
  -2   7   0     0.91     0.02
  -2   7   1     0.03     0.01
  -2   7   2     1.31     0.02
  -2   7   3     0.03     0.01
  -2   7   4    13.75     0.08
  -2   7   5     0.41     0.02
  -2   7   6    13.27     0.08
  -2   7   7     3.84     0.03
  -2   7   8     2.73     0.02
  -2   7   9     0.36     0.02
  -2   7  10    10.79     0.07
  -2   7  11     0.03     0.01
  -2   7  12    11.91     0.08
  -2   7  13     3.59     0.05
  -2   7  14    12.83     0.09
  -2   7  15    10.30     0.08
  -2   7  16     0.71     0.02
  -2   7  17     1.37     0.03
  -2   7  18     8.33     0.07
  -2   7  19     0.61     0.02
  -2   7  20     4.12     0.04
  -2   7  21     0.35     0.03
  -2   7  22     1.59     0.04
  -2   7  23     1.21     0.03
  -2   7  24     9.54     0.08
  -2   7  25     0.23     0.02
  -2   7  26     4.68     0.06
  -2   7  27     0.35     0.03
  -2   7  28     0.20     0.03
  -2   7  29     0.23     0.04
  -2   7  30     0.73     0.06
  -2   7  31     0.04     0.05
  -2   7  32     0.12     0.03
  -2   7  33     0.26     0.04
  -2   7  34     0.35     0.03
  -2   7  35     0.07     0.03
  -2   8  -1     0.31     0.02
  -2   8   0     0.56     0.02
  -2   8   1     7.35     0.07
  -2   8   2     1.32     0.02
  -2   8   3     1.33     0.02
  -2   8   4     0.89     0.02
  -2   8   5     0.05     0.02
  -2   8   6     0.22     0.01
  -2   8   7     0.28     0.02
  -2   8   8     1.21     0.03
  -2   8   9     1.24     0.02
  -2   8  10     0.17     0.01
  -2   8  11     0.00     0.01
  -2   8  12     0.01     0.01
  -2   8  13     0.22     0.02
  -2   8  14     5.97     0.05
  -2   8  15     0.03     0.02
  -2   8  16     2.29     0.03
  -2   8  17     0.03     0.02
  -2   8  18     0.04     0.02
  -2   8  19     0.41     0.03
  -2   8  20     0.28     0.03
  -2   8  21     0.48     0.03
  -2   8  22     0.80     0.03
  -2   8  23     0.32     0.03
  -2   8  24     0.66     0.03
  -2   8  25     0.63     0.03
  -2   8  26     3.00     0.08
  -2   8  27     1.32     0.08
  -2   8  28     0.11     0.04
  -2   8  29     1.56     0.08
  -2   8  30     2.76     0.09
  -2   8  31     0.06     0.05
  -2   8  32     0.96     0.05
  -2   9  -1     0.24     0.02
  -2   9   0     1.04     0.02
  -2   9   1     0.02     0.02
  -2   9   2     0.55     0.02
  -2   9   3     0.08     0.02
  -2   9   4     4.22     0.04
  -2   9   5     0.21     0.02
  -2   9   6     7.81     0.06
  -2   9   7     2.53     0.03
  -2   9   8     0.94     0.03
  -2   9   9     0.34     0.01
  -2   9  10     5.95     0.05
  -2   9  11     0.43     0.02
  -2   9  12     5.02     0.05
  -2   9  13     0.81     0.02
  -2   9  14     8.09     0.07
  -2   9  15     4.29     0.04
  -2   9  16     0.88     0.02
  -2   9  17     0.30     0.03
  -2   9  18     3.73     0.05
  -2   9  19     0.66     0.03
  -2   9  20     2.02     0.04
  -2   9  21     0.07     0.01
  -2   9  22     0.35     0.02
  -2   9  23     0.47     0.02
  -2   9  24     7.17     0.08
  -2   9  25     0.07     0.02
  -2   9  26     1.91     0.06
  -2   9  27     0.54     0.10
  -2   9  28     0.07     0.04
  -2   9  29     0.12     0.04
  -2   9  30     0.08     0.04
  -2  10  -1     0.05     0.02
  -2  10   0     0.03     0.02
  -2  10   1     2.94     0.04
  -2  10   2     1.43     0.03
  -2  10   3     0.20     0.01
  -2  10   4     1.17     0.05
  -2  10   5     0.01     0.02
  -2  10   6     0.39     0.02
  -2  10   7     0.08     0.01
  -2  10   8     0.44     0.02
  -2  10   9     0.55     0.03
  -2  10  10     0.36     0.02
  -2  10  11     0.03     0.01
  -2  10  12     0.40     0.02
  -2  10  13     0.23     0.01
  -2  10  14     1.87     0.03
  -2  10  15     0.04     0.02
  -2  10  16     0.84     0.03
  -2  10  17     0.06     0.02
  -2  10  18     0.06     0.02
  -2  10  19     0.13     0.02
  -2  10  20     0.07     0.02
  -2  10  21     0.23     0.02
  -2  10  22     0.19     0.02
  -2  10  23     0.20     0.03
  -2  10  24     0.07     0.04
  -2  10  25     0.26     0.02
  -2  10  26     1.65     0.05
  -2  11  -1     0.41     0.03
  -2  11   0     0.75     0.03
  -2  11   1     0.02     0.02
  -2  11   2     0.27     0.02
  -2  11   3     0.13     0.02
  -2  11   4     1.21     0.04
  -2  11   5     0.01     0.02
  -2  11   6     3.73     0.05
  -2  11   7     0.68     0.03
  -2  11   8     0.27     0.02
  -2  11   9     0.00     0.02
  -2  11  10     3.19     0.04
  -2  11  11     0.22     0.02
  -2  11  12     1.83     0.04
  -2  11  13     0.29     0.02
  -2  11  14     4.25     0.06
  -2  11  15     2.06     0.07
  -2  11  16     0.75     0.04
  -2  11  17     0.10     0.03
  -2  11  18     1.57     0.06
  -2  11  19     0.40     0.05
  -2  11  20     0.91     0.05
  -2  11  21     0.00     0.03
  -2  11  22     0.06     0.02
  -2  12  -1     0.04     0.03
  -2  12   0     0.01     0.02
  -2  12   1     1.34     0.04
  -2  12   2     0.56     0.03
  -2  12   3     0.04     0.02
  -2  12   4     0.54     0.04
  -2  12   5     0.00     0.02
  -2  12   6     0.15     0.03
  -2  12   7     0.04     0.03
  -2  12   8     0.24     0.02
  -2  12   9     0.11     0.02
  -2  12  10     0.33     0.04
  -2  12  11     0.13     0.02
  -2  12  12     0.50     0.05
  -2  12  13     0.20     0.02
  -2  12  14     0.53     0.03
  -2  12  15     0.04     0.02
  -2  12  16     0.19     0.03
  -2  13  -1     0.37     0.02
  -2  13   0     0.48     0.02
  -2  13   1     0.02     0.02
  -2  13   2     0.13     0.02
  -2  13   3     0.14     0.02
  -2  13   4     0.28     0.02
  -1   0   1   271.29     6.65
  -1   0   3    49.32     0.41
  -1   0   5   284.79     3.65
  -1   0   7    63.41     0.46
  -1   0   9    23.06     0.16
  -1   0  11     9.43     0.07
  -1   0  13    24.95     0.18
  -1   0  15    68.86     0.63
  -1   0  17     4.83     0.05
  -1   0  19     9.97     0.09
  -1   0  21     1.79     0.03
  -1   0  23     2.31     0.03
  -1   0  25    14.09     0.13
  -1   0  27    22.14     0.22
  -1   0  29     3.27     0.04
  -1   0  31     3.32     0.07
  -1   0  33     1.33     0.04
  -1   0  35     0.98     0.04
  -1   0  37     0.33     0.17
  -1   0  39     0.80     0.09
  -1   0  41     1.59     0.08
  -1   1   0     0.68     0.01
  -1   1   1   143.98     3.44
  -1   1   2     1.00     0.02
  -1   1   3    73.08     0.47
  -1   1   4     1.48     0.01
  -1   1   5   449.78     5.84
  -1   1   6     1.30     0.02
  -1   1   7   491.71     4.38
  -1   1   8     2.37     0.02
  -1   1   9    33.89     0.16
  -1   1  10     1.48     0.01
  -1   1  11    17.40     0.09
  -1   1  12     0.46     0.01
  -1   1  13   137.68     0.81
  -1   1  14     0.19     0.01
  -1   1  15    21.35     0.11
  -1   1  16     0.12     0.01
  -1   1  17    53.87     0.26
  -1   1  18     0.05     0.01
  -1   1  19    28.49     0.14
  -1   1  20     0.51     0.01
  -1   1  21    23.09     0.12
  -1   1  22     0.30     0.01
  -1   1  23    15.14     0.09
  -1   1  24     0.06     0.01
  -1   1  25     2.90     0.03
  -1   1  26     0.05     0.02
  -1   1  27     0.27     0.01
  -1   1  28     0.62     0.02
  -1   1  29    16.53     0.11
  -1   1  30     0.62     0.05
  -1   1  31    54.19     0.45
  -1   1  32     0.48     0.13
  -1   1  33     4.52     0.08
  -1   1  34     0.07     0.04
  -1   1  35     4.06     0.06
  -1   1  36     0.05     0.02
  -1   1  37     0.01     0.03
  -1   1  38     0.01     0.02
  -1   1  39     6.98     0.12
  -1   1  40     0.03     0.08
  -1   1  41     0.25     0.10
  -1   2   0     1.87     0.02
  -1   2   1   222.04     2.64
  -1   2   2    10.34     0.05
  -1   2   3    12.85     0.07
  -1   2   4     0.14     0.01
  -1   2   5   128.09     0.77
  -1   2   6     7.27     0.04
  -1   2   7    54.15     0.26
  -1   2   8    15.08     0.07
  -1   2   9    13.84     0.07
  -1   2  10    15.09     0.08
  -1   2  11     9.99     0.06
  -1   2  12     0.53     0.01
  -1   2  13    15.76     0.08
  -1   2  14     1.66     0.02
  -1   2  15    68.30     0.36
  -1   2  16     2.45     0.02
  -1   2  17     1.79     0.02
  -1   2  18     1.99     0.02
  -1   2  19    13.11     0.07
  -1   2  20     0.88     0.01
  -1   2  21     3.60     0.03
  -1   2  22     0.46     0.01
  -1   2  23     0.58     0.02
  -1   2  24     0.18     0.01
  -1   2  25     8.81     0.06
  -1   2  26     0.03     0.02
  -1   2  27    16.89     0.11
  -1   2  28     0.23     0.01
  -1   2  29     2.76     0.03
  -1   2  30     0.14     0.02
  -1   2  31     2.56     0.04
  -1   2  32     0.00     0.02
  -1   2  33     0.76     0.04
  -1   2  34     0.41     0.02
  -1   2  35     1.47     0.04
  -1   2  36     0.26     0.02
  -1   2  37     0.40     0.03
  -1   2  38     0.04     0.03
  -1   2  39     0.54     0.03
  -1   2  40     0.10     0.02
  -1   2  41     0.98     0.06
  -1   3   0     0.58     0.01
  -1   3   1    58.04     0.27
  -1   3   2     2.36     0.02
  -1   3   3    21.67     0.10
  -1   3   4     1.27     0.01
  -1   3   5   167.85     0.98
  -1   3   6     0.39     0.01
  -1   3   7   209.45     1.34
  -1   3   8     1.64     0.01
  -1   3   9     4.72     0.03
  -1   3  10     0.45     0.01
  -1   3  11     0.15     0.01
  -1   3  12     0.04     0.01
  -1   3  13    51.00     0.28
  -1   3  14     0.13     0.01
  -1   3  15     4.14     0.03
  -1   3  16     2.63     0.02
  -1   3  17    48.07     0.23
  -1   3  18     0.01     0.01
  -1   3  19    21.56     0.11
  -1   3  20     3.16     0.03
  -1   3  21    20.71     0.12
  -1   3  22     2.49     0.02
  -1   3  23     8.81     0.06
  -1   3  24     1.07     0.03
  -1   3  25     5.28     0.04
  -1   3  26     0.00     0.01
  -1   3  27     0.03     0.01
  -1   3  28     1.84     0.03
  -1   3  29    12.17     0.10
  -1   3  30     0.95     0.05
  -1   3  31    47.60     0.43
  -1   3  32     0.09     0.02
  -1   3  33     3.52     0.07
  -1   3  34     0.18     0.02
  -1   3  35     2.85     0.05
  -1   3  36     0.01     0.02
  -1   3  37     0.00     0.02
  -1   3  38     0.05     0.02
  -1   3  39     4.87     0.17
  -1   3  40     0.06     0.03
  -1   4   0    11.17     0.07
  -1   4   1   115.95     0.61
  -1   4   2    28.93     0.14
  -1   4   3     0.25     0.01
  -1   4   4     5.36     0.03
  -1   4   5    35.06     0.16
  -1   4   6     1.57     0.02
  -1   4   7    27.81     0.14
  -1   4   8    10.73     0.06
  -1   4   9     6.46     0.04
  -1   4  10    20.03     0.10
  -1   4  11     8.97     0.05
  -1   4  12     1.77     0.02
  -1   4  13     8.57     0.05
  -1   4  14     0.60     0.02
  -1   4  15    45.26     0.24
  -1   4  16     0.57     0.01
  -1   4  17     1.46     0.02
  -1   4  18     0.31     0.01
  -1   4  19     8.49     0.06
  -1   4  20     0.00     0.01
  -1   4  21     2.90     0.03
  -1   4  22     0.01     0.01
  -1   4  23     0.02     0.01
  -1   4  24     0.01     0.01
  -1   4  25     3.19     0.04
  -1   4  26     0.12     0.01
  -1   4  27     8.70     0.08
  -1   4  28     0.61     0.02
  -1   4  29     1.60     0.03
  -1   4  30     0.14     0.02
  -1   4  31     1.62     0.05
  -1   4  32     0.12     0.02
  -1   4  33     0.29     0.02
  -1   4  34     1.86     0.05
  -1   4  35     1.73     0.05
  -1   4  36     1.14     0.04
  -1   4  37     0.52     0.07
  -1   4  38     0.05     0.06
  -1   4  39     0.31     0.03
  -1   5   0     0.00     0.01
  -1   5   1    23.17     0.12
  -1   5   2     1.27     0.02
  -1   5   3     3.28     0.03
  -1   5   4     0.01     0.01
  -1   5   5    32.27     0.16
  -1   5   6     0.68     0.01
  -1   5   7    43.47     0.22
  -1   5   8     0.11     0.01
  -1   5   9     2.62     0.02
  -1   5  10     0.86     0.01
  -1   5  11     0.35     0.01
  -1   5  12     2.07     0.02
  -1   5  13    21.25     0.11
  -1   5  14     1.49     0.02
  -1   5  15     0.97     0.02
  -1   5  16     6.51     0.05
  -1   5  17    29.21     0.17
  -1   5  18     0.05     0.01
  -1   5  19    14.54     0.10
  -1   5  20     4.86     0.05
  -1   5  21    13.61     0.09
  -1   5  22     4.55     0.04
  -1   5  23     6.08     0.05
  -1   5  24     2.90     0.03
  -1   5  25     4.25     0.05
  -1   5  26     0.43     0.01
  -1   5  27     0.02     0.01
  -1   5  28     1.66     0.03
  -1   5  29    11.57     0.10
  -1   5  30     0.49     0.03
  -1   5  31    29.01     0.29
  -1   5  32     0.03     0.02
  -1   5  33     3.50     0.07
  -1   5  34     0.09     0.02
  -1   5  35     1.81     0.05
  -1   5  36     0.01     0.02
  -1   5  37     0.20     0.03
  -1   5  38     0.04     0.02
  -1   6   0     7.57     0.05
  -1   6   1    34.32     0.17
  -1   6   2    19.82     0.10
  -1   6   3     0.87     0.01
  -1   6   4     4.38     0.03
  -1   6   5    21.21     0.10
  -1   6   6     0.36     0.01
  -1   6   7     8.26     0.05
  -1   6   8     4.71     0.03
  -1   6   9     4.87     0.03
  -1   6  10    13.92     0.08
  -1   6  11     6.14     0.04
  -1   6  12     1.36     0.02
  -1   6  13     7.31     0.05
  -1   6  14     0.37     0.01
  -1   6  15    16.71     0.10
  -1   6  16     0.13     0.01
  -1   6  17     5.00     0.05
  -1   6  18     0.02     0.01
  -1   6  19     0.78     0.03
  -1   6  20     0.07     0.02
  -1   6  21     0.20     0.02
  -1   6  22     0.04     0.01
  -1   6  23     0.04     0.02
  -1   6  24     0.00     0.01
  -1   6  25     0.99     0.02
  -1   6  26     0.06     0.02
  -1   6  27     3.38     0.04
  -1   6  28     0.64     0.02
  -1   6  29     0.61     0.02
  -1   6  30     0.14     0.02
  -1   6  31     1.04     0.04
  -1   6  32     0.10     0.03
  -1   6  33     0.19     0.02
  -1   6  34     2.34     0.07
  -1   6  35     1.05     0.05
  -1   6  36     1.44     0.05
  -1   6  37     0.28     0.03
  -1   7   0     0.06     0.01
  -1   7   1    10.82     0.06
  -1   7   2     0.88     0.02
  -1   7   3     0.24     0.02
  -1   7   4     0.00     0.01
  -1   7   5     2.87     0.02
  -1   7   6     0.17     0.01
  -1   7   7     4.05     0.03
  -1   7   8     0.05     0.01
  -1   7   9     3.55     0.03
  -1   7  10     0.09     0.01
  -1   7  11     0.30     0.01
  -1   7  12     0.42     0.02
  -1   7  13     9.98     0.07
  -1   7  14     0.19     0.02
  -1   7  15     0.41     0.02
  -1   7  16     4.48     0.04
  -1   7  17    15.07     0.11
  -1   7  18     0.02     0.01
  -1   7  19     8.67     0.07
  -1   7  20     4.07     0.05
  -1   7  21     7.25     0.06
  -1   7  22     2.79     0.04
  -1   7  23     4.36     0.04
  -1   7  24     1.81     0.04
  -1   7  25     2.50     0.04
  -1   7  26     0.22     0.02
  -1   7  27     0.10     0.03
  -1   7  28     2.15     0.06
  -1   7  29    10.13     0.12
  -1   7  30     0.50     0.03
  -1   7  31    12.94     0.16
  -1   7  32     0.05     0.02
  -1   7  33     3.46     0.09
  -1   7  34     0.11     0.03
  -1   7  35     1.04     0.04
  -1   8   0     0.92     0.02
  -1   8   1    15.57     0.09
  -1   8   2     5.41     0.04
  -1   8   3     0.35     0.01
  -1   8   4     0.47     0.01
  -1   8   5    10.25     0.07
  -1   8   6     0.82     0.02
  -1   8   7     3.43     0.04
  -1   8   8     2.41     0.05
  -1   8   9     3.15     0.03
  -1   8  10     7.66     0.06
  -1   8  11     3.90     0.04
  -1   8  12     0.31     0.01
  -1   8  13     4.17     0.04
  -1   8  14     0.90     0.02
  -1   8  15     6.49     0.06
  -1   8  16     0.39     0.02
  -1   8  17     5.20     0.06
  -1   8  18     0.14     0.01
  -1   8  19     0.04     0.02
  -1   8  20     0.00     0.02
  -1   8  21     0.01     0.02
  -1   8  22     0.05     0.02
  -1   8  23     0.02     0.03
  -1   8  24     0.07     0.02
  -1   8  25     0.07     0.02
  -1   8  26     0.02     0.02
  -1   8  27     0.64     0.04
  -1   8  28     0.37     0.06
  -1   8  29     0.16     0.03
  -1   8  30     0.11     0.02
  -1   8  31     0.47     0.06
  -1   8  32     0.01     0.02
  -1   8  33     0.02     0.02
  -1   9   0     0.06     0.01
  -1   9   1     4.86     0.04
  -1   9   2     0.55     0.03
  -1   9   3     0.02     0.02
  -1   9   4     0.00     0.01
  -1   9   5     0.23     0.01
  -1   9   6     0.01     0.01
  -1   9   7     0.49     0.02
  -1   9   8     0.33     0.01
  -1   9   9     1.20     0.04
  -1   9  10     0.04     0.01
  -1   9  11     1.46     0.03
  -1   9  12     0.01     0.01
  -1   9  13     2.12     0.05
  -1   9  14     0.12     0.02
  -1   9  15     0.02     0.01
  -1   9  16     2.28     0.04
  -1   9  17     8.47     0.07
  -1   9  18     0.04     0.02
  -1   9  19     4.63     0.07
  -1   9  20     2.19     0.05
  -1   9  21     3.73     0.05
  -1   9  22     0.87     0.03
  -1   9  23     2.01     0.04
  -1   9  24     0.60     0.03
  -1   9  25     2.13     0.05
  -1   9  26     0.05     0.03
  -1   9  27     0.01     0.02
  -1   9  28     1.81     0.05
  -1   9  29     5.93     0.11
  -1   9  30     0.34     0.02
  -1  10   0     0.17     0.03
  -1  10   1    10.66     0.09
  -1  10   2     2.08     0.04
  -1  10   3     0.02     0.02
  -1  10   4     0.07     0.01
  -1  10   5     3.15     0.04
  -1  10   6     0.33     0.03
  -1  10   7     2.13     0.05
  -1  10   8     0.57     0.02
  -1  10   9     1.70     0.03
  -1  10  10     3.24     0.06
  -1  10  11     2.27     0.03
  -1  10  12     0.05     0.01
  -1  10  13     1.54     0.04
  -1  10  14     0.69     0.02
  -1  10  15     3.25     0.05
  -1  10  16     0.14     0.02
  -1  10  17     2.73     0.04
  -1  10  18     0.03     0.02
  -1  10  19     0.05     0.03
  -1  10  20     0.01     0.02
  -1  10  21     0.01     0.02
  -1  10  22     0.04     0.03
  -1  10  23     0.06     0.03
  -1  10  24     0.11     0.02
  -1  10  25     0.11     0.02
  -1  10  26     0.00     0.02
  -1  10  27     0.04     0.02
  -1  11   0     0.12     0.02
  -1  11   1     1.85     0.03
  -1  11   2     0.25     0.02
  -1  11   3     0.00     0.01
  -1  11   4     0.14     0.02
  -1  11   5     0.01     0.02
  -1  11   6     0.18     0.02
  -1  11   7     0.03     0.02
  -1  11   8     0.05     0.02
  -1  11   9     0.40     0.02
  -1  11  10     0.01     0.01
  -1  11  11     1.81     0.04
  -1  11  12     0.03     0.02
  -1  11  13     0.28     0.02
  -1  11  14     0.19     0.02
  -1  11  15     0.06     0.02
  -1  11  16     1.27     0.04
  -1  11  17     4.09     0.05
  -1  11  18     0.00     0.02
  -1  11  19     2.25     0.07
  -1  11  20     0.90     0.07
  -1  11  21     1.67     0.04
  -1  11  22     0.18     0.02
  -1  11  23     0.86     0.05
  -1  12   0     0.06     0.04
  -1  12   1     4.77     0.06
  -1  12   2     0.95     0.04
  -1  12   3     0.00     0.03
  -1  12   4     0.04     0.02
  -1  12   5     1.22     0.04
  -1  12   6     0.06     0.02
  -1  12   7     0.96     0.05
  -1  12   8     0.05     0.04
  -1  12   9     0.90     0.03
  -1  12  10     1.03     0.06
  -1  12  11     1.01     0.04
  -1  12  12     0.02     0.03
  -1  12  13     0.52     0.03
  -1  12  14     0.21     0.03
  -1  12  15     1.21     0.07
  -1  12  16     0.02     0.02
  -1  12  17     1.42     0.04
  -1  13   0     0.13     0.01
  -1  13   1     0.58     0.02
  -1  13   2     0.09     0.01
  -1  13   3     0.04     0.01
  -1  13   4     0.22     0.02
  -1  13   5     0.06     0.02
  -1  13   6     0.20     0.02
  -1  13   7     0.04     0.02
!  0   0   2    27.91     0.92
   0   0   4    13.66     0.09
   0   0   6    29.30     0.20
   0   0   8   310.46     4.08
   0   0  10    63.50     0.45
   0   0  12     2.71     0.03
   0   0  14   143.77     1.23
   0   0  16     3.37     0.04
   0   0  18     0.13     0.01
   0   0  20     0.08     0.01
   0   0  22     1.39     0.04
   0   0  24    22.74     0.18
   0   0  26     0.29     0.03
   0   0  28     9.62     0.09
   0   0  30    13.05     0.12
   0   0  32     2.51     0.04
   0   0  34     3.29     0.05
   0   0  36     5.63     0.14
   0   0  38     0.02     0.11
   0   0  40     0.26     0.04
   0   1   1     2.96     0.02
   0   1   2     2.61     0.02
   0   1   3    20.92     0.09
   0   1   4     2.82     0.02
   0   1   5    14.10     0.07
   0   1   6    45.17     0.20
   0   1   7     3.96     0.02
   0   1   8    18.28     0.09
   0   1   9     1.19     0.01
   0   1  10    13.12     0.07
   0   1  11     0.48     0.01
   0   1  12    81.68     0.41
   0   1  13     0.31     0.01
   0   1  14     5.99     0.04
   0   1  15     0.28     0.01
   0   1  16   137.66     0.93
   0   1  17     0.04     0.01
   0   1  18    68.75     0.37
   0   1  19     0.09     0.01
   0   1  20    35.70     0.18
   0   1  21     0.09     0.01
   0   1  22     0.02     0.01
   0   1  23     0.03     0.01
   0   1  24    27.90     0.16
   0   1  25     0.16     0.01
   0   1  26    12.19     0.08
   0   1  27     0.40     0.02
   0   1  28     0.10     0.02
   0   1  29     0.92     0.02
   0   1  30    30.72     0.19
   0   1  31     0.69     0.02
   0   1  32     4.52     0.05
   0   1  33     0.05     0.01
   0   1  34     4.31     0.05
   0   1  35     0.05     0.02
   0   1  36     0.77     0.03
   0   1  37     0.06     0.05
   0   1  38     0.27     0.03
   0   1  39     0.18     0.04
   0   1  40     6.83     0.12
   0   1  41     0.02     0.04
   0   2   1     5.20     0.03
   0   2   2    55.89     0.27
   0   2   3     0.01     0.00
   0   2   4    23.91     0.11
   0   2   5     4.51     0.03
   0   2   6    16.92     0.08
   0   2   7     5.86     0.04
   0   2   8   182.70     1.21
   0   2   9     4.82     0.03
   0   2  10    49.71     0.23
   0   2  11     1.94     0.02
   0   2  12     5.72     0.04
   0   2  13     1.29     0.01
   0   2  14    91.05     0.62
   0   2  15    10.74     0.06
   0   2  16     0.49     0.01
   0   2  17     8.03     0.05
   0   2  18     1.59     0.02
   0   2  19     3.38     0.03
   0   2  20     0.80     0.02
   0   2  21     0.32     0.01
   0   2  22     0.19     0.01
   0   2  23     0.05     0.01
   0   2  24    15.42     0.10
   0   2  25     0.10     0.02
   0   2  26     0.49     0.02
   0   2  27     0.02     0.01
   0   2  28     8.62     0.07
   0   2  29     0.09     0.01
   0   2  30    10.38     0.08
   0   2  31     0.16     0.01
   0   2  32     1.28     0.03
   0   2  33     0.06     0.02
   0   2  34     1.86     0.04
   0   2  35     0.05     0.03
   0   2  36     4.06     0.07
   0   2  37     0.04     0.03
   0   2  38     0.03     0.02
   0   2  39     0.05     0.03
   0   2  40     0.29     0.03
   0   2  41     0.21     0.04
   0   3   1     5.88     0.03
   0   3   2     1.86     0.02
   0   3   3    43.73     0.21
   0   3   4     3.04     0.02
   0   3   5    24.11     0.11
   0   3   6     7.80     0.04
   0   3   7     3.14     0.02
   0   3   8     0.37     0.01
   0   3   9     0.12     0.00
   0   3  10     0.03     0.01
   0   3  11     0.05     0.00
   0   3  12    20.19     0.10
   0   3  13     0.00     0.01
   0   3  14     0.09     0.01
   0   3  15     0.18     0.01
   0   3  16    87.31     0.61
   0   3  17     0.20     0.01
   0   3  18    50.34     0.24
   0   3  19     0.12     0.01
   0   3  20    17.57     0.10
   0   3  21     0.99     0.02
   0   3  22     1.25     0.02
   0   3  23     0.20     0.02
   0   3  24    15.91     0.11
   0   3  25     0.01     0.01
   0   3  26    14.17     0.11
   0   3  27     0.75     0.02
   0   3  28     0.12     0.01
   0   3  29     3.23     0.06
   0   3  30    22.99     0.16
   0   3  31     1.75     0.04
   0   3  32     4.47     0.05
   0   3  33     0.05     0.01
   0   3  34     3.97     0.05
   0   3  35     0.21     0.03
   0   3  36     0.58     0.04
   0   3  37     0.40     0.03
   0   3  38     0.31     0.03
   0   3  39     0.15     0.03
   0   3  40     5.52     0.15
   0   4   1     0.04     0.01
   0   4   2    48.84     0.24
   0   4   3     4.69     0.03
   0   4   4    16.16     0.09
   0   4   5     0.37     0.01
   0   4   6     9.81     0.05
   0   4   7     2.95     0.02
   0   4   8    63.62     0.33
   0   4   9     5.36     0.03
   0   4  10    24.84     0.12
   0   4  11     5.95     0.04
   0   4  12     6.68     0.04
   0   4  13     0.03     0.01
   0   4  14    39.45     0.19
   0   4  15     9.01     0.06
   0   4  16     0.06     0.01
   0   4  17     5.64     0.04
   0   4  18     2.13     0.03
   0   4  19     1.50     0.03
   0   4  20     1.15     0.02
   0   4  21     0.10     0.01
   0   4  22     0.00     0.01
   0   4  23     1.03     0.02
   0   4  24     7.15     0.06
   0   4  25     0.59     0.02
   0   4  26     1.34     0.02
   0   4  27     0.05     0.01
   0   4  28     6.01     0.06
   0   4  29     0.07     0.02
   0   4  30     6.69     0.08
   0   4  31     0.09     0.02
   0   4  32     0.27     0.02
   0   4  33     0.02     0.01
   0   4  34     0.45     0.02
   0   4  35     0.34     0.06
   0   4  36     1.93     0.07
   0   4  37     0.26     0.03
   0   4  38     0.02     0.04
   0   4  39     0.07     0.03
   0   5   1     2.28     0.02
   0   5   2     0.03     0.01
   0   5   3    18.31     0.10
   0   5   4     0.09     0.01
   0   5   5     5.86     0.04
   0   5   6     4.64     0.03
   0   5   7     0.06     0.01
   0   5   8     0.23     0.01
   0   5   9     1.75     0.02
   0   5  10     0.07     0.01
   0   5  11     2.47     0.02
   0   5  12     5.32     0.05
   0   5  13     1.07     0.02
   0   5  14     1.67     0.02
   0   5  15     0.02     0.01
   0   5  16    50.82     0.26
   0   5  17     0.61     0.02
   0   5  18    28.08     0.17
   0   5  19     0.10     0.01
   0   5  20     5.90     0.05
   0   5  21     2.72     0.04
   0   5  22     2.36     0.04
   0   5  23     1.04     0.02
   0   5  24    10.82     0.08
   0   5  25     0.41     0.01
   0   5  26     8.56     0.07
   0   5  27     0.19     0.01
   0   5  28     0.03     0.02
   0   5  29     3.25     0.04
   0   5  30    17.76     0.15
   0   5  31     1.68     0.03
   0   5  32     2.54     0.05
   0   5  33     0.08     0.02
   0   5  34     2.40     0.07
   0   5  35     0.32     0.03
   0   5  36     0.33     0.03
   0   5  37     0.56     0.04
   0   5  38     0.70     0.05
   0   6   0   254.89     2.04
   0   6   1     0.15     0.01
   0   6   2    21.15     0.11
   0   6   3     5.35     0.03
   0   6   4     2.26     0.02
   0   6   5     0.00     0.01
   0   6   6    12.64     0.07
   0   6   7     1.14     0.02
   0   6   8    17.54     0.09
   0   6   9     2.76     0.02
   0   6  10    10.04     0.06
   0   6  11     5.31     0.04
   0   6  12     2.81     0.03
   0   6  13     0.15     0.01
   0   6  14    24.20     0.13
   0   6  15     6.39     0.05
   0   6  16     1.23     0.02
   0   6  17     3.36     0.04
   0   6  18     0.06     0.01
   0   6  19     0.65     0.02
   0   6  20     0.00     0.02
   0   6  21     0.26     0.03
   0   6  22     0.09     0.01
   0   6  23     1.26     0.02
   0   6  24     3.34     0.04
   0   6  25     0.61     0.02
   0   6  26     2.04     0.04
   0   6  27     0.05     0.03
   0   6  28     2.92     0.04
   0   6  29     0.01     0.01
   0   6  30     4.16     0.05
   0   6  31     0.09     0.02
   0   6  32     0.01     0.02
   0   6  33     0.02     0.03
   0   6  34     0.02     0.04
   0   6  35     0.45     0.06
   0   6  36     1.08     0.04
   0   6  37     0.39     0.03
   0   7   1     1.12     0.02
   0   7   2     0.34     0.01
   0   7   3     9.67     0.05
   0   7   4     0.66     0.01
   0   7   5     3.23     0.03
   0   7   6     5.60     0.04
   0   7   7     0.04     0.01
   0   7   8     1.18     0.02
   0   7   9     0.31     0.02
   0   7  10     0.04     0.01
   0   7  11     0.62     0.01
   0   7  12     1.94     0.03
   0   7  13     0.18     0.02
   0   7  14     2.25     0.04
   0   7  15     0.20     0.02
   0   7  16    26.94     0.18
   0   7  17     0.47     0.02
   0   7  18    13.36     0.10
   0   7  19     0.21     0.01
   0   7  20     1.42     0.04
   0   7  21     2.03     0.03
   0   7  22     2.35     0.04
   0   7  23     0.48     0.02
   0   7  24     7.55     0.07
   0   7  25     0.19     0.02
   0   7  26     3.43     0.04
   0   7  27     0.22     0.03
   0   7  28     0.07     0.02
   0   7  29     3.25     0.05
   0   7  30    12.63     0.12
   0   7  31     1.69     0.03
   0   7  32     0.95     0.03
   0   7  33     0.11     0.03
   0   7  34     1.03     0.05
   0   7  35     0.29     0.02
   0   8   0    86.07     0.73
   0   8   1     1.03     0.02
   0   8   2    13.96     0.09
   0   8   3     1.40     0.02
   0   8   4     0.60     0.02
   0   8   5     0.27     0.02
   0   8   6     9.90     0.06
   0   8   7     0.85     0.02
   0   8   8     5.66     0.06
   0   8   9     0.91     0.03
   0   8  10     4.55     0.07
   0   8  11     2.35     0.03
   0   8  12     1.63     0.02
   0   8  13     0.02     0.01
   0   8  14    12.17     0.09
   0   8  15     6.18     0.06
   0   8  16     1.10     0.03
   0   8  17     3.05     0.05
   0   8  18     0.02     0.02
   0   8  19     0.92     0.04
   0   8  20     0.09     0.02
   0   8  21     0.02     0.02
   0   8  22     0.05     0.04
   0   8  23     0.47     0.03
   0   8  24     0.77     0.02
   0   8  25     0.21     0.01
   0   8  26     2.35     0.04
   0   8  27     0.00     0.03
   0   8  28     1.06     0.02
   0   8  29     0.00     0.01
   0   8  30     2.00     0.07
   0   8  31     0.15     0.05
   0   8  32     0.05     0.02
   0   8  33     0.02     0.02
   0   9   1     0.54     0.02
   0   9   2     0.25     0.02
   0   9   3     5.00     0.05
   0   9   4     0.38     0.01
   0   9   5     1.73     0.03
   0   9   6     2.24     0.04
   0   9   7     0.11     0.01
   0   9   8     0.25     0.01
   0   9   9     0.03     0.02
   0   9  10     0.15     0.02
   0   9  11     0.00     0.01
   0   9  12     0.04     0.02
   0   9  13     0.02     0.01
   0   9  14     3.45     0.04
   0   9  15     0.55     0.02
   0   9  16    11.25     0.10
   0   9  17     0.35     0.03
   0   9  18     5.59     0.06
   0   9  19     0.36     0.02
   0   9  20     0.06     0.02
   0   9  21     0.82     0.03
   0   9  22     2.62     0.04
   0   9  23     0.06     0.02
   0   9  24     3.37     0.06
   0   9  25     0.04     0.03
   0   9  26     1.88     0.05
   0   9  27     0.15     0.02
   0   9  28     0.04     0.03
   0   9  29     2.16     0.04
   0   9  30     6.60     0.09
   0  10   0    25.96     0.29
   0  10   1     1.11     0.04
   0  10   2    11.30     0.12
   0  10   3     0.85     0.04
   0  10   4     0.62     0.02
   0  10   5     0.16     0.02
   0  10   6     5.61     0.05
   0  10   7     0.23     0.02
   0  10   8     2.08     0.06
   0  10   9     0.11     0.02
   0  10  10     2.29     0.05
   0  10  11     1.03     0.03
   0  10  12     1.25     0.04
   0  10  13     0.02     0.02
   0  10  14     4.35     0.05
   0  10  15     3.07     0.04
   0  10  16     0.27     0.02
   0  10  17     1.10     0.03
   0  10  18     0.01     0.02
   0  10  19     0.29     0.03
   0  10  20     0.04     0.02
   0  10  21     0.02     0.02
   0  10  22     0.03     0.03
   0  10  23     0.18     0.02
   0  10  24     0.10     0.03
   0  10  25     0.04     0.02
   0  10  26     1.92     0.04
   0  10  27     0.03     0.01
   0  11   1     0.14     0.02
   0  11   2     0.12     0.02
   0  11   3     1.43     0.03
   0  11   4     0.14     0.02
   0  11   5     0.24     0.02
   0  11   6     0.80     0.04
   0  11   7     0.04     0.03
   0  11   8     0.02     0.01
   0  11   9     0.01     0.01
   0  11  10     0.25     0.02
   0  11  11     0.06     0.03
   0  11  12     0.19     0.02
   0  11  13     0.02     0.02
   0  11  14     2.82     0.08
   0  11  15     0.34     0.03
   0  11  16     4.26     0.05
   0  11  17     0.22     0.02
   0  11  18     1.92     0.05
   0  11  19     0.35     0.03
   0  11  20     0.03     0.02
   0  11  21     0.38     0.02
   0  11  22     1.98     0.04
   0  11  23     0.02     0.01
   0  12   0     8.62     0.10
   0  12   1     0.52     0.04
   0  12   2     5.66     0.06
   0  12   3     0.76     0.04
   0  12   4     0.22     0.02
   0  12   5     0.06     0.02
   0  12   6     3.12     0.04
   0  12   7     0.03     0.02
   0  12   8     0.72     0.05
   0  12   9     0.02     0.03
   0  12  10     0.93     0.04
   0  12  11     0.47     0.04
   0  12  12     0.66     0.05
   0  12  13     0.11     0.02
   0  12  14     1.61     0.04
   0  12  15     0.88     0.04
   0  12  16     0.08     0.02
   0  12  17     0.05     0.02
   0  13   1     0.01     0.02
   0  13   2     0.05     0.01
   0  13   3     0.30     0.02
   0  13   4     0.12     0.02
   0  13   5     0.00     0.01
   0  13   6     0.44     0.02
   0  13   7     0.10     0.01
   1   0   1   264.27     3.37
   1   0   3    33.66     0.25
   1   0   5   456.21     5.75
   1   0   7     9.74     0.08
   1   0   9   566.30     8.46
   1   0  11    21.12     0.15
   1   0  13   110.43     1.01
   1   0  15    17.00     0.12
   1   0  17     8.35     0.10
   1   0  19     0.00     0.02
   1   0  21     0.21     0.02
   1   0  23     7.53     0.07
   1   0  25     3.41     0.04
   1   0  27     3.86     0.08
   1   0  29     0.59     0.02
   1   0  31     0.28     0.04
   1   0  33    29.63     0.32
   1   0  35     0.03     0.02
   1   0  37     4.62     0.10
   1   0  39     0.22     0.04
   1   0  41     3.34     0.12
   1   1   1    72.74     0.48
   1   1   2    10.38     0.05
   1   1   3     8.61     0.05
   1   1   4    15.90     0.08
   1   1   5     7.38     0.04
   1   1   6     7.82     0.04
   1   1   7    28.05     0.14
   1   1   8     0.18     0.01
   1   1   9    21.19     0.11
   1   1  10     0.26     0.01
   1   1  11    12.34     0.07
   1   1  12     0.47     0.01
   1   1  13     0.25     0.01
   1   1  14     0.01     0.00
   1   1  15     1.15     0.02
   1   1  16     0.12     0.01
   1   1  17    17.71     0.09
   1   1  18     0.03     0.01
   1   1  19    11.38     0.06
   1   1  20     0.06     0.01
   1   1  21    10.37     0.06
   1   1  22     0.05     0.01
   1   1  23     0.03     0.01
   1   1  24     0.10     0.01
   1   1  25     3.00     0.03
   1   1  26     0.15     0.01
   1   1  27    13.82     0.09
   1   1  28     0.17     0.02
   1   1  29     7.82     0.06
   1   1  30     0.31     0.01
   1   1  31     1.78     0.03
   1   1  32     0.06     0.02
   1   1  33     0.90     0.02
   1   1  34     0.04     0.01
   1   1  35     0.00     0.02
   1   1  36     0.15     0.02
   1   1  37     0.00     0.02
   1   1  38     0.13     0.03
   1   1  39     0.17     0.04
   1   1  40     0.10     0.04
   1   1  41     0.05     0.04
   1   2   1   101.16     0.61
   1   2   2     2.90     0.02
   1   2   3    10.79     0.06
   1   2   4     0.54     0.01
   1   2   5   266.96     4.48
   1   2   6     1.22     0.01
   1   2   7     2.03     0.02
   1   2   8     0.41     0.01
   1   2   9   325.20     3.87
   1   2  10     0.33     0.01
   1   2  11     9.36     0.05
   1   2  12     0.18     0.01
   1   2  13    97.48     0.54
   1   2  14     2.09     0.02
   1   2  15    23.54     0.12
   1   2  16     5.52     0.04
   1   2  17     4.18     0.03
   1   2  18     3.73     0.03
   1   2  19     0.80     0.02
   1   2  20     0.31     0.01
   1   2  21     1.16     0.02
   1   2  22     0.33     0.01
   1   2  23     7.94     0.05
   1   2  24     1.44     0.02
   1   2  25     3.64     0.04
   1   2  26     0.68     0.02
   1   2  27     3.45     0.04
   1   2  28     0.04     0.01
   1   2  29     0.81     0.02
   1   2  30     0.12     0.02
   1   2  31     0.73     0.03
   1   2  32     0.04     0.02
   1   2  33    23.23     0.17
   1   2  34     0.08     0.02
   1   2  35     0.30     0.03
   1   2  36     0.02     0.02
   1   2  37     4.75     0.06
   1   2  38     0.06     0.04
   1   2  39     0.13     0.08
   1   2  40     0.00     0.03
   1   2  41     2.60     0.09
   1   3   1    21.87     0.11
   1   3   2    18.11     0.09
   1   3   3     1.60     0.02
   1   3   4    29.25     0.13
   1   3   5     0.02     0.01
   1   3   6    11.12     0.06
   1   3   7    28.46     0.14
   1   3   8     0.96     0.01
   1   3   9    25.45     0.14
   1   3  10     6.62     0.04
   1   3  11     0.47     0.01
   1   3  12     7.26     0.05
   1   3  13     1.32     0.02
   1   3  14     0.70     0.01
   1   3  15     0.27     0.01
   1   3  16     0.38     0.01
   1   3  17    10.63     0.06
   1   3  18     0.12     0.01
   1   3  19     3.82     0.03
   1   3  20     0.01     0.01
   1   3  21     2.96     0.03
   1   3  22     0.08     0.01
   1   3  23     1.12     0.02
   1   3  24     0.01     0.01
   1   3  25     1.14     0.02
   1   3  26     0.04     0.01
   1   3  27    12.95     0.10
   1   3  28     0.10     0.02
   1   3  29     6.83     0.08
   1   3  30     1.03     0.02
   1   3  31     1.68     0.03
   1   3  32     0.18     0.03
   1   3  33     0.63     0.02
   1   3  34     0.27     0.02
   1   3  35     0.06     0.01
   1   3  36     0.84     0.03
   1   3  37     0.00     0.03
   1   3  38     0.56     0.07
   1   3  39     0.08     0.02
   1   3  40     0.06     0.03
   1   4   1    17.60     0.09
   1   4   2     0.00     0.01
   1   4   3     1.63     0.01
   1   4   4     0.57     0.01
   1   4   5    91.99     0.58
   1   4   6     0.22     0.01
   1   4   7     1.16     0.02
   1   4   8     0.63     0.01
   1   4   9   105.04     0.71
   1   4  10     0.01     0.01
   1   4  11     2.52     0.02
   1   4  12     0.80     0.01
   1   4  13    47.98     0.24
   1   4  14     0.05     0.01
   1   4  15    17.85     0.11
   1   4  16     2.87     0.03
   1   4  17     3.78     0.03
   1   4  18     2.00     0.03
   1   4  19     1.51     0.03
   1   4  20     0.13     0.01
   1   4  21     1.72     0.03
   1   4  22     2.29     0.02
   1   4  23     5.63     0.06
   1   4  24     4.62     0.05
   1   4  25     3.20     0.04
   1   4  26     1.52     0.03
   1   4  27     2.07     0.03
   1   4  28     0.01     0.01
   1   4  29     0.86     0.02
   1   4  30     0.94     0.04
   1   4  31     1.37     0.03
   1   4  32     0.33     0.02
   1   4  33    14.08     0.13
   1   4  34     0.08     0.02
   1   4  35     0.74     0.05
   1   4  36     0.22     0.03
   1   4  37     3.93     0.09
   1   4  38     0.04     0.05
   1   4  39     0.04     0.02
   1   5   1    12.97     0.07
   1   5   2     5.44     0.04
   1   5   3     1.59     0.02
   1   5   4     8.95     0.05
   1   5   5     0.38     0.01
   1   5   6     1.62     0.02
   1   5   7     6.88     0.05
   1   5   8     5.98     0.04
   1   5   9     8.23     0.06
   1   5  10    13.34     0.08
   1   5  11     0.12     0.01
   1   5  12    13.90     0.07
   1   5  13     1.33     0.02
   1   5  14     1.75     0.02
   1   5  15     0.32     0.01
   1   5  16     0.41     0.01
   1   5  17     4.59     0.04
   1   5  18     0.32     0.01
   1   5  19     0.75     0.02
   1   5  20     0.13     0.02
   1   5  21     0.64     0.01
   1   5  22     0.89     0.03
   1   5  23     1.05     0.02
   1   5  24     0.36     0.02
   1   5  25     1.43     0.02
   1   5  26     0.16     0.02
   1   5  27     5.48     0.06
   1   5  28     0.04     0.02
   1   5  29     2.46     0.06
   1   5  30     0.96     0.03
   1   5  31     0.55     0.02
   1   5  32     0.17     0.02
   1   5  33     0.50     0.03
   1   5  34     0.43     0.02
   1   5  35     0.05     0.01
   1   5  36     1.20     0.04
   1   5  37     0.00     0.02
   1   5  38     0.76     0.04
   1   6   1     9.16     0.05
   1   6   2     0.00     0.01
   1   6   3     2.88     0.03
   1   6   4     1.12     0.02
   1   6   5    22.55     0.11
   1   6   6     0.03     0.01
   1   6   7     6.27     0.04
   1   6   8     0.47     0.01
   1   6   9    29.20     0.16
   1   6  10     0.02     0.01
   1   6  11     2.37     0.02
   1   6  12     1.38     0.02
   1   6  13    11.57     0.07
   1   6  14     0.14     0.01
   1   6  15     3.82     0.03
   1   6  16     1.63     0.03
   1   6  17     8.42     0.07
   1   6  18     1.32     0.03
   1   6  19     0.12     0.01
   1   6  20     0.33     0.01
   1   6  21     0.45     0.03
   1   6  22     2.42     0.03
   1   6  23     2.18     0.03
   1   6  24     4.72     0.05
   1   6  25     2.14     0.05
   1   6  26     1.42     0.03
   1   6  27     0.58     0.02
   1   6  28     0.00     0.01
   1   6  29     0.35     0.02
   1   6  30     1.33     0.03
   1   6  31     1.16     0.03
   1   6  32     0.35     0.03
   1   6  33     7.89     0.09
   1   6  34     0.06     0.02
   1   6  35     0.65     0.03
   1   6  36     0.30     0.02
   1   6  37     1.75     0.06
   1   7   1    10.99     0.06
   1   7   2     3.21     0.03
   1   7   3     2.52     0.03
   1   7   4     5.59     0.04
   1   7   5     1.85     0.02
   1   7   6     1.81     0.02
   1   7   7     0.32     0.02
   1   7   8     1.82     0.02
   1   7   9     1.14     0.03
   1   7  10     5.04     0.05
   1   7  11     0.24     0.01
   1   7  12     7.05     0.06
   1   7  13     0.69     0.02
   1   7  14     0.52     0.02
   1   7  15     0.27     0.02
   1   7  16     0.52     0.02
   1   7  17     1.78     0.03
   1   7  18     0.14     0.02
   1   7  19     0.03     0.01
   1   7  20     0.01     0.01
   1   7  21     0.09     0.01
   1   7  22     0.45     0.02
   1   7  23     0.53     0.02
   1   7  24     0.10     0.01
   1   7  25     2.05     0.03
   1   7  26     0.07     0.01
   1   7  27     0.97     0.03
   1   7  28     0.03     0.01
   1   7  29     0.33     0.02
   1   7  30     1.08     0.04
   1   7  31     0.08     0.02
   1   7  32     0.26     0.02
   1   7  33     0.36     0.03
   1   7  34     0.33     0.02
   1   7  35     0.13     0.02
   1   8   1     3.29     0.04
   1   8   2     1.06     0.03
   1   8   3     1.57     0.04
   1   8   4     0.25     0.02
   1   8   5     7.08     0.07
   1   8   6     0.05     0.02
   1   8   7     7.68     0.06
   1   8   8     0.19     0.01
   1   8   9     7.31     0.05
   1   8  10     0.20     0.01
   1   8  11     1.34     0.03
   1   8  12     0.36     0.02
   1   8  13     2.84     0.03
   1   8  14     0.00     0.01
   1   8  15     0.64     0.03
   1   8  16     2.09     0.03
   1   8  17     6.94     0.06
   1   8  18     1.91     0.04
   1   8  19     0.03     0.03
   1   8  20     0.00     0.02
   1   8  21     0.18     0.02
   1   8  22     0.90     0.03
   1   8  23     1.04     0.03
   1   8  24     2.54     0.03
   1   8  25     1.50     0.03
   1   8  26     0.79     0.04
   1   8  27     0.06     0.02
   1   8  28     0.00     0.03
   1   8  29     0.12     0.03
   1   8  30     0.84     0.03
   1   8  31     1.02     0.04
   1   8  32     0.09     0.02
   1   8  33     3.22     0.05
   1   9   1     5.88     0.05
   1   9   2     1.85     0.04
   1   9   3     1.01     0.02
   1   9   4     3.26     0.04
   1   9   5     0.54     0.03
   1   9   6     1.65     0.03
   1   9   7     0.19     0.02
   1   9   8     0.25     0.02
   1   9   9     0.82     0.03
   1   9  10     1.08     0.02
   1   9  11     0.05     0.02
   1   9  12     2.43     0.05
   1   9  13     0.99     0.02
   1   9  14     0.07     0.02
   1   9  15     0.05     0.02
   1   9  16     0.46     0.02
   1   9  17     0.60     0.03
   1   9  18     0.01     0.03
   1   9  19     0.17     0.03
   1   9  20     0.11     0.02
   1   9  21     0.09     0.02
   1   9  22     0.09     0.01
   1   9  23     0.66     0.04
   1   9  24     0.00     0.01
   1   9  25     1.07     0.02
   1   9  26     0.01     0.03
   1   9  27     0.15     0.02
   1   9  28     0.03     0.01
   1   9  29     0.04     0.02
   1   9  30     0.76     0.02
   1  10   1     0.46     0.03
   1  10   2     1.15     0.04
   1  10   3     0.28     0.03
   1  10   4     0.27     0.03
   1  10   5     3.09     0.05
   1  10   6     0.04     0.02
   1  10   7     6.04     0.06
   1  10   8     0.06     0.02
   1  10   9     1.26     0.05
   1  10  10     0.30     0.02
   1  10  11     0.37     0.03
   1  10  12     0.19     0.02
   1  10  13     1.17     0.04
   1  10  14     0.06     0.02
   1  10  15     0.18     0.03
   1  10  16     0.95     0.03
   1  10  17     3.04     0.05
   1  10  18     0.93     0.03
   1  10  19     0.13     0.02
   1  10  20     0.00     0.02
   1  10  21     0.23     0.02
   1  10  22     0.31     0.03
   1  10  23     0.54     0.02
   1  10  24     0.97     0.03
   1  10  25     0.83     0.05
   1  10  26     0.33     0.02
   1  10  27     0.00     0.01
   1  11   1     2.68     0.05
   1  11   2     0.38     0.03
   1  11   3     0.39     0.02
   1  11   4     0.69     0.02
   1  11   5     0.11     0.02
   1  11   6     0.33     0.02
   1  11   7     0.15     0.02
   1  11   8     0.23     0.02
   1  11   9     0.53     0.03
   1  11  10     0.39     0.02
   1  11  11     0.18     0.02
   1  11  12     1.00     0.03
   1  11  13     0.77     0.04
   1  11  14     0.05     0.02
   1  11  15     0.02     0.02
   1  11  16     0.27     0.02
   1  11  17     0.17     0.02
   1  11  18     0.00     0.02
   1  11  19     0.35     0.02
   1  11  20     0.14     0.02
   1  11  21     0.26     0.02
   1  11  22     0.05     0.02
   1  12   1     0.13     0.02
   1  12   2     0.59     0.03
   1  12   3     0.08     0.03
   1  12   4     0.36     0.03
   1  12   5     1.13     0.04
   1  12   6     0.07     0.01
   1  12   7     3.66     0.04
   1  12   8     0.03     0.02
   1  12   9     0.19     0.02
   1  12  10     0.20     0.02
   1  12  11     0.19     0.02
   1  12  12     0.20     0.01
   1  12  13     0.37     0.03
   1  12  14     0.24     0.02
   1  12  15     0.00     0.01
   1  12  16     0.15     0.01
   1  12  17     1.35     0.03
   1  13   1     1.09     0.02
   1  13   2     0.05     0.01
   1  13   3     0.20     0.01
   1  13   4     0.07     0.01
   1  13   5     0.05     0.01
   1  13   6     0.03     0.01
   1  13   7     0.02     0.04
   2   0   2     5.02     0.04
   2   0   4    70.48     0.54
   2   0   6   132.55     1.44
   2   0   8     1.27     0.03
   2   0  10    51.00     0.37
   2   0  12    32.89     0.30
   2   0  14    96.76     0.88
   2   0  16     2.91     0.04
   2   0  18     3.18     0.03
   2   0  20     0.60     0.02
   2   0  22    34.19     0.25
   2   0  24     5.29     0.06
   2   0  26     0.24     0.02
   2   0  28     0.07     0.02
   2   0  30     3.53     0.08
   2   0  32    24.03     0.29
   2   0  34     4.49     0.09
   2   0  36    11.10     0.16
   2   0  38     7.45     0.24
   2   0  40     4.40     0.14
   2   1   2   978.59     8.50
   2   1   3     2.70     0.02
   2   1   4   110.85     0.67
   2   1   5     4.65     0.03
   2   1   6    98.55     0.55
   2   1   7     1.77     0.02
   2   1   8     1.04     0.01
   2   1   9     0.04     0.00
   2   1  10    23.18     0.12
   2   1  11     0.14     0.01
   2   1  12     0.36     0.01
   2   1  13     0.16     0.01
   2   1  14    34.58     0.17
   2   1  15     0.02     0.01
   2   1  16   134.91     1.15
   2   1  17     0.65     0.01
   2   1  18     0.06     0.01
   2   1  19     0.15     0.01
   2   1  20    13.47     0.07
   2   1  21     0.01     0.01
   2   1  22     2.14     0.03
   2   1  23     0.14     0.01
   2   1  24     7.98     0.06
   2   1  25     0.40     0.02
   2   1  26    20.02     0.13
   2   1  27     0.22     0.02
   2   1  28     2.71     0.03
   2   1  29     0.03     0.02
   2   1  30     0.16     0.02
   2   1  31     0.07     0.02
   2   1  32     7.24     0.07
   2   1  33     0.03     0.03
   2   1  34     0.87     0.03
   2   1  35     0.02     0.01
   2   1  36     0.81     0.04
   2   1  37     0.06     0.03
   2   1  38     2.67     0.05
   2   1  39     0.03     0.05
   2   1  40     0.15     0.02
   2   1  41     0.21     0.04
   2   2   2     0.11     0.01
   2   2   3    11.15     0.06
   2   2   4    38.06     0.17
   2   2   5    12.90     0.07
   2   2   6    82.46     0.44
   2   2   7     5.00     0.03
   2   2   8     2.39     0.02
   2   2   9     0.17     0.01
   2   2  10    51.73     0.25
   2   2  11     2.05     0.02
   2   2  12    19.79     0.10
   2   2  13     1.41     0.02
   2   2  14    93.71     0.52
   2   2  15     1.28     0.02
   2   2  16     5.06     0.03
   2   2  17     1.81     0.02
   2   2  18     5.54     0.04
   2   2  19     0.99     0.01
   2   2  20     0.01     0.01
   2   2  21     0.12     0.01
   2   2  22    24.69     0.14
   2   2  23     0.29     0.02
   2   2  24     3.59     0.05
   2   2  25     0.49     0.02
   2   2  26     0.28     0.02
   2   2  27     0.12     0.01
   2   2  28     0.15     0.01
   2   2  29     0.13     0.02
   2   2  30     2.44     0.04
   2   2  31     0.60     0.04
   2   2  32    24.99     0.19
   2   2  33     0.27     0.04
   2   2  34     3.17     0.04
   2   2  35     0.12     0.02
   2   2  36     8.73     0.10
   2   2  37     0.15     0.02
   2   2  38     7.03     0.09
   2   2  39     0.17     0.03
   2   2  40     4.17     0.09
   2   3   2   414.69     6.99
   2   3   3     2.10     0.02
   2   3   4    53.42     0.25
   2   3   5     5.47     0.04
   2   3   6    21.75     0.11
   2   3   7     0.78     0.01
   2   3   8     2.47     0.02
   2   3   9     1.09     0.02
   2   3  10     4.09     0.04
   2   3  11     3.50     0.03
   2   3  12     2.81     0.03
   2   3  13     2.54     0.03
   2   3  14    31.24     0.18
   2   3  15     0.08     0.01
   2   3  16   103.69     0.89
   2   3  17     5.12     0.04
   2   3  18     0.32     0.01
   2   3  19     2.11     0.03
   2   3  20     5.54     0.04
   2   3  21     0.43     0.02
   2   3  22     5.39     0.05
   2   3  23     0.04     0.01
   2   3  24     3.91     0.04
   2   3  25     0.68     0.02
   2   3  26    18.31     0.13
   2   3  27     0.42     0.02
   2   3  28     2.52     0.04
   2   3  29     0.02     0.02
   2   3  30     0.21     0.02
   2   3  31     0.32     0.03
   2   3  32     5.02     0.06
   2   3  33     0.11     0.02
   2   3  34     0.45     0.02
   2   3  35     0.09     0.03
   2   3  36     0.52     0.02
   2   3  37     0.18     0.02
   2   3  38     2.21     0.07
   2   3  39     0.17     0.03
   2   3  40     0.11     0.02
   2   4   2     1.50     0.01
   2   4   3     5.70     0.04
   2   4   4    14.72     0.07
   2   4   5    11.38     0.07
   2   4   6    27.37     0.14
   2   4   7     6.85     0.04
   2   4   8     2.43     0.02
   2   4   9     1.79     0.02
   2   4  10    36.09     0.18
   2   4  11     0.39     0.02
   2   4  12    12.19     0.07
   2   4  13     0.01     0.01
   2   4  14    53.94     0.26
   2   4  15     0.03     0.01
   2   4  16     2.56     0.02
   2   4  17     0.30     0.01
   2   4  18     4.35     0.03
   2   4  19     0.25     0.01
   2   4  20     0.15     0.01
   2   4  21     0.01     0.02
   2   4  22    11.75     0.08
   2   4  23     1.04     0.02
   2   4  24     1.33     0.02
   2   4  25     1.04     0.02
   2   4  26     0.14     0.01
   2   4  27     0.07     0.02
   2   4  28     0.16     0.02
   2   4  29     0.75     0.03
   2   4  30     1.37     0.03
   2   4  31     2.56     0.06
   2   4  32    21.66     0.18
   2   4  33     1.33     0.05
   2   4  34     1.73     0.06
   2   4  35     0.08     0.03
   2   4  36     5.95     0.07
   2   4  37     0.12     0.02
   2   4  38     5.66     0.10
   2   4  39     0.29     0.02
   2   5   2   103.47     0.53
   2   5   3     0.07     0.01
   2   5   4     5.56     0.04
   2   5   5     0.32     0.01
   2   5   6     7.24     0.05
   2   5   7     0.51     0.01
   2   5   8     1.93     0.02
   2   5   9     4.70     0.04
   2   5  10     1.98     0.02
   2   5  11     7.30     0.05
   2   5  12     1.69     0.02
   2   5  13     5.01     0.04
   2   5  14    19.72     0.12
   2   5  15     0.08     0.01
   2   5  16    63.06     0.33
   2   5  17     8.70     0.06
   2   5  18     0.05     0.01
   2   5  19     4.44     0.04
   2   5  20     2.96     0.03
   2   5  21     1.79     0.03
   2   5  22     4.62     0.04
   2   5  23     0.19     0.01
   2   5  24     3.84     0.04
   2   5  25     0.27     0.02
   2   5  26     8.61     0.07
   2   5  27     0.13     0.02
   2   5  28     0.51     0.02
   2   5  29     0.00     0.03
   2   5  30     0.02     0.02
   2   5  31     0.37     0.03
   2   5  32     3.20     0.05
   2   5  33     0.19     0.02
   2   5  34     0.07     0.02
   2   5  35     0.10     0.02
   2   5  36     0.08     0.02
   2   5  37     0.16     0.02
   2   5  38     1.13     0.06
   2   6   2     0.38     0.01
   2   6   3     2.61     0.03
   2   6   4    10.21     0.06
   2   6   5     5.89     0.04
   2   6   6     7.21     0.05
   2   6   7     4.04     0.04
   2   6   8     1.08     0.02
   2   6   9     1.93     0.03
   2   6  10    15.44     0.09
   2   6  11     0.15     0.01
   2   6  12    15.20     0.09
   2   6  13     0.29     0.01
   2   6  14    14.24     0.08
   2   6  15     0.36     0.02
   2   6  16     0.14     0.02
   2   6  17     0.08     0.01
   2   6  18     0.45     0.01
   2   6  19     0.17     0.01
   2   6  20     0.00     0.01
   2   6  21     0.01     0.01
   2   6  22     4.89     0.04
   2   6  23     1.08     0.03
   2   6  24     0.19     0.02
   2   6  25     0.98     0.02
   2   6  26     0.02     0.02
   2   6  27     0.07     0.02
   2   6  28     0.00     0.01
   2   6  29     0.93     0.03
   2   6  30     1.23     0.03
   2   6  31     3.25     0.07
   2   6  32    13.91     0.13
   2   6  33     1.57     0.03
   2   6  34     1.21     0.03
   2   6  35     0.03     0.02
   2   6  36     3.76     0.06
   2   7   2    19.71     0.11
   2   7   3     0.03     0.01
   2   7   4     0.40     0.01
   2   7   5     0.77     0.02
   2   7   6     4.80     0.05
   2   7   7     0.03     0.01
   2   7   8     0.54     0.02
   2   7   9     1.27     0.03
   2   7  10     1.71     0.02
   2   7  11     2.93     0.04
   2   7  12     0.65     0.02
   2   7  13     3.03     0.03
   2   7  14    10.95     0.11
   2   7  15     0.10     0.01
   2   7  16    33.46     0.20
   2   7  17     6.89     0.06
   2   7  18     0.04     0.01
   2   7  19     2.34     0.03
   2   7  20     1.71     0.03
   2   7  21     0.87     0.03
   2   7  22     2.70     0.03
   2   7  23     0.07     0.02
   2   7  24     3.79     0.05
   2   7  25     0.44     0.03
   2   7  26     2.34     0.03
   2   7  27     0.17     0.02
   2   7  28     0.02     0.01
   2   7  29     0.01     0.02
   2   7  30     0.07     0.01
   2   7  31     0.40     0.02
   2   7  32     1.63     0.05
   2   7  33     0.24     0.04
   2   7  34     0.02     0.02
   2   8   2     0.39     0.02
   2   8   3     2.57     0.03
   2   8   4     5.71     0.06
   2   8   5     3.00     0.04
   2   8   6     2.01     0.03
   2   8   7     1.37     0.03
   2   8   8     0.79     0.02
   2   8   9     0.56     0.01
   2   8  10     7.70     0.06
   2   8  11     0.73     0.02
   2   8  12    10.99     0.08
   2   8  13     0.03     0.01
   2   8  14     3.37     0.03
   2   8  15     0.04     0.01
   2   8  16     0.94     0.03
   2   8  17     0.40     0.02
   2   8  18     0.02     0.01
   2   8  19     0.49     0.03
   2   8  20     0.04     0.02
   2   8  21     0.08     0.04
   2   8  22     1.17     0.04
   2   8  23     0.50     0.02
   2   8  24     0.04     0.01
   2   8  25     0.56     0.02
   2   8  26     0.02     0.02
   2   8  27     0.11     0.02
   2   8  28     0.01     0.01
   2   8  29     0.37     0.02
   2   8  30     0.80     0.05
   2   8  31     1.77     0.04
   2   8  32     8.04     0.11
   2   9   2     4.93     0.05
   2   9   3     0.13     0.01
   2   9   4     0.80     0.02
   2   9   5     1.07     0.02
   2   9   6     1.10     0.04
   2   9   7     0.13     0.02
   2   9   8     1.33     0.02
   2   9   9     0.09     0.02
   2   9  10     0.31     0.02
   2   9  11     0.62     0.02
   2   9  12     0.76     0.02
   2   9  13     1.33     0.04
   2   9  14     6.50     0.06
   2   9  15     0.06     0.02
   2   9  16    15.74     0.13
   2   9  17     3.68     0.05
   2   9  18     0.06     0.03
   2   9  19     0.57     0.02
   2   9  20     0.37     0.02
   2   9  21     0.10     0.02
   2   9  22     2.40     0.03
   2   9  23     0.02     0.02
   2   9  24     1.89     0.05
   2   9  25     0.49     0.03
   2   9  26     0.62     0.02
   2   9  27     0.16     0.02
   2   9  28     0.14     0.02
   2   9  29     0.07     0.02
   2  10   2     0.69     0.02
   2  10   3     1.36     0.06
   2  10   4     2.41     0.06
   2  10   5     0.91     0.03
   2  10   6     0.62     0.03
   2  10   7     0.28     0.03
   2  10   8     0.77     0.03
   2  10   9     0.21     0.03
   2  10  10     4.48     0.08
   2  10  11     0.59     0.03
   2  10  12     4.90     0.05
   2  10  13     0.04     0.01
   2  10  14     1.25     0.05
   2  10  15     0.11     0.01
   2  10  16     0.67     0.03
   2  10  17     0.15     0.02
   2  10  18     0.07     0.03
   2  10  19     0.26     0.02
   2  10  20     0.22     0.03
   2  10  21     0.07     0.03
   2  10  22     0.10     0.01
   2  10  23     0.18     0.02
   2  10  24     0.15     0.01
   2  10  25     0.20     0.02
   2  10  26     0.02     0.01
   2  11   2     1.18     0.06
   2  11   3     0.03     0.02
   2  11   4     0.58     0.05
   2  11   5     0.26     0.02
   2  11   6     0.17     0.02
   2  11   7     0.01     0.02
   2  11   8     1.51     0.04
   2  11   9     0.04     0.02
   2  11  10     0.02     0.03
   2  11  11     0.13     0.03
   2  11  12     0.54     0.03
   2  11  13     0.65     0.03
   2  11  14     3.16     0.10
   2  11  15     0.05     0.01
   2  11  16     6.57     0.07
   2  11  17     1.66     0.05
   2  11  18     0.02     0.03
   2  11  19     0.10     0.01
   2  11  20     0.02     0.02
   2  11  21     0.03     0.01
   2  11  22     1.72     0.03
   2  12   2     0.38     0.03
   2  12   3     0.39     0.04
   2  12   4     1.06     0.04
   2  12   5     0.11     0.02
   2  12   6     0.18     0.03
   2  12   7     0.01     0.03
   2  12   8     0.47     0.04
   2  12   9     0.10     0.02
   2  12  10     1.97     0.05
   2  12  11     0.23     0.03
   2  12  12     2.21     0.06
   2  12  13     0.16     0.02
   2  12  14     0.27     0.02
   2  12  15     0.27     0.02
   2  12  16     0.50     0.02
   2  13   2     0.15     0.01
   2  13   3     0.06     0.01
   2  13   4     0.48     0.02
   3   0   3    47.76     0.30
   3   0   5    19.82     0.15
   3   0   7     2.02     0.02
   3   0   9    19.76     0.15
   3   0  11    26.72     0.22
   3   0  13     9.93     0.09
   3   0  15    28.11     0.21
   3   0  17     4.47     0.04
   3   0  19    23.17     0.15
   3   0  21     2.17     0.03
   3   0  23    25.34     0.21
   3   0  25     7.89     0.09
   3   0  27     1.11     0.03
   3   0  29     4.34     0.08
   3   0  31    12.73     0.17
   3   0  33     0.60     0.04
   3   0  35     0.03     0.05
   3   0  37     2.36     0.09
   3   0  39     2.26     0.12
   3   1   3    10.15     0.05
   3   1   4     2.18     0.02
   3   1   5     8.58     0.05
   3   1   6     2.13     0.02
   3   1   7   175.07     1.05
   3   1   8     0.89     0.02
   3   1   9     0.68     0.01
   3   1  10     0.11     0.01
   3   1  11   172.77     1.02
   3   1  12     0.01     0.01
   3   1  13    22.69     0.12
   3   1  14     0.05     0.01
   3   1  15    72.95     0.47
   3   1  16     0.01     0.01
   3   1  17     4.53     0.03
   3   1  18     0.13     0.01
   3   1  19     3.70     0.03
   3   1  20     0.01     0.01
   3   1  21    20.71     0.12
   3   1  22     0.34     0.02
   3   1  23     1.76     0.03
   3   1  24     0.47     0.01
   3   1  25     7.52     0.06
   3   1  26     0.90     0.02
   3   1  27    16.28     0.12
   3   1  28     0.29     0.02
   3   1  29    13.64     0.11
   3   1  30     0.00     0.03
   3   1  31     3.75     0.07
   3   1  32     0.01     0.03
   3   1  33     6.96     0.09
   3   1  34     0.04     0.03
   3   1  35     3.39     0.06
   3   1  36     0.05     0.03
   3   1  37     0.05     0.02
   3   1  38     0.01     0.04
   3   1  39     0.00     0.04
   3   1  40     0.11     0.03
   3   2   3    27.97     0.12
   3   2   4     8.14     0.04
   3   2   5    14.55     0.07
   3   2   6     4.86     0.03
   3   2   7     0.25     0.01
   3   2   8     0.72     0.01
   3   2   9     7.95     0.05
   3   2  10     2.40     0.02
   3   2  11    12.70     0.07
   3   2  12     9.14     0.05
   3   2  13     3.62     0.03
   3   2  14     6.33     0.04
   3   2  15    31.95     0.15
   3   2  16     1.67     0.03
   3   2  17     1.63     0.02
   3   2  18     0.56     0.01
   3   2  19    14.41     0.09
   3   2  20     0.00     0.01
   3   2  21     0.72     0.01
   3   2  22     0.00     0.02
   3   2  23    20.58     0.14
   3   2  24     0.18     0.01
   3   2  25     7.07     0.06
   3   2  26     0.38     0.02
   3   2  27     1.30     0.03
   3   2  28     0.13     0.02
   3   2  29     2.46     0.04
   3   2  30     0.01     0.01
   3   2  31     8.99     0.08
   3   2  32     0.13     0.02
   3   2  33     0.15     0.02
   3   2  34     0.00     0.02
   3   2  35     0.09     0.03
   3   2  36     0.24     0.03
   3   2  37     1.92     0.05
   3   2  38     0.49     0.06
   3   2  39     2.37     0.05
   3   3   3    14.07     0.07
   3   3   4     1.30     0.01
   3   3   5    14.22     0.07
   3   3   6     1.89     0.02
   3   3   7    66.46     0.49
   3   3   8     0.33     0.01
   3   3   9     5.66     0.04
   3   3  10     0.11     0.01
   3   3  11    90.00     0.52
   3   3  12     0.12     0.01
   3   3  13    10.06     0.07
   3   3  14     0.43     0.01
   3   3  15    47.96     0.24
   3   3  16     0.01     0.01
   3   3  17     0.70     0.02
   3   3  18     2.26     0.02
   3   3  19     7.45     0.05
   3   3  20     0.54     0.01
   3   3  21    10.83     0.08
   3   3  22     0.36     0.02
   3   3  23     3.87     0.05
   3   3  24     1.02     0.04
   3   3  25     3.61     0.04
   3   3  26     3.32     0.04
   3   3  27    11.75     0.10
   3   3  28     0.99     0.02
   3   3  29    11.94     0.10
   3   3  30     0.03     0.02
   3   3  31     3.20     0.05
   3   3  32     0.08     0.02
   3   3  33     5.44     0.06
   3   3  34     0.11     0.02
   3   3  35     2.29     0.04
   3   3  36     0.29     0.02
   3   3  37     0.05     0.03
   3   3  38     0.06     0.03
   3   3  39     0.05     0.02
   3   4   3    12.84     0.07
   3   4   4     8.86     0.05
   3   4   5     7.00     0.05
   3   4   6     8.02     0.05
   3   4   7     0.19     0.01
   3   4   8     3.86     0.03
   3   4   9     1.17     0.03
   3   4  10     0.50     0.02
   3   4  11     4.01     0.03
   3   4  12     6.93     0.05
   3   4  13     1.45     0.02
   3   4  14     3.96     0.03
   3   4  15    22.22     0.12
   3   4  16     0.20     0.01
   3   4  17     0.71     0.02
   3   4  18     0.02     0.01
   3   4  19     6.58     0.05
   3   4  20     0.20     0.01
   3   4  21     0.02     0.01
   3   4  22     0.06     0.01
   3   4  23    11.77     0.08
   3   4  24     0.29     0.01
   3   4  25     5.91     0.05
   3   4  26     0.43     0.02
   3   4  27     1.67     0.03
   3   4  28     0.02     0.02
   3   4  29     0.75     0.02
   3   4  30     0.15     0.02
   3   4  31     4.67     0.06
   3   4  32     0.91     0.03
   3   4  33     0.00     0.02
   3   4  34     0.27     0.03
   3   4  35     0.10     0.02
   3   4  36     0.33     0.04
   3   4  37     1.46     0.04
   3   4  38     0.88     0.03
   3   5   3     3.98     0.03
   3   5   4     0.37     0.01
   3   5   5     3.20     0.03
   3   5   6     0.00     0.01
   3   5   7    28.68     0.15
   3   5   8     0.43     0.01
   3   5   9    11.16     0.07
   3   5  10     1.22     0.02
   3   5  11    43.24     0.23
   3   5  12     0.42     0.01
   3   5  13     3.84     0.03
   3   5  14     0.80     0.02
   3   5  15    26.03     0.15
   3   5  16     0.12     0.01
   3   5  17     0.02     0.01
   3   5  18     5.44     0.04
   3   5  19     6.44     0.05
   3   5  20     2.25     0.02
   3   5  21     7.48     0.06
   3   5  22     0.02     0.01
   3   5  23     2.77     0.03
   3   5  24     0.39     0.02
   3   5  25     2.72     0.05
   3   5  26     3.47     0.04
   3   5  27    10.11     0.08
   3   5  28     0.95     0.03
   3   5  29     6.70     0.08
   3   5  30     0.19     0.02
   3   5  31     1.95     0.05
   3   5  32     0.18     0.03
   3   5  33     3.02     0.05
   3   5  34     0.04     0.02
   3   5  35     0.75     0.06
   3   5  36     0.26     0.02
   3   5  37     0.19     0.02
   3   6   3     9.65     0.06
   3   6   4     6.04     0.04
   3   6   5     3.36     0.03
   3   6   6     5.13     0.04
   3   6   7     0.11     0.01
   3   6   8     3.72     0.03
   3   6   9     0.68     0.02
   3   6  10     0.12     0.01
   3   6  11     3.93     0.03
   3   6  12     4.72     0.04
   3   6  13     3.76     0.03
   3   6  14     2.38     0.03
   3   6  15     6.12     0.05
   3   6  16     0.01     0.01
   3   6  17     1.92     0.02
   3   6  18     0.02     0.01
   3   6  19     3.92     0.04
   3   6  20     0.27     0.01
   3   6  21     0.27     0.02
   3   6  22     0.02     0.01
   3   6  23     4.84     0.06
   3   6  24     0.23     0.01
   3   6  25     5.16     0.05
   3   6  26     0.45     0.03
   3   6  27     1.34     0.03
   3   6  28     0.00     0.01
   3   6  29     0.23     0.02
   3   6  30     0.19     0.02
   3   6  31     2.43     0.04
   3   6  32     1.17     0.03
   3   6  33     0.02     0.02
   3   6  34     0.37     0.04
   3   6  35     0.03     0.02
   3   7   3     0.19     0.01
   3   7   4     0.09     0.01
   3   7   5     0.02     0.01
   3   7   6     0.34     0.02
   3   7   7    14.96     0.10
   3   7   8     0.05     0.02
   3   7   9    10.07     0.07
   3   7  10     0.34     0.01
   3   7  11    19.26     0.13
   3   7  12     0.05     0.01
   3   7  13     1.49     0.03
   3   7  14     0.76     0.02
   3   7  15    12.79     0.09
   3   7  16     0.02     0.01
   3   7  17     0.15     0.01
   3   7  18     3.97     0.04
   3   7  19     3.84     0.04
   3   7  20     1.26     0.03
   3   7  21     5.57     0.05
   3   7  22     0.16     0.01
   3   7  23     1.32     0.03
   3   7  24     0.37     0.02
   3   7  25     2.11     0.05
   3   7  26     3.45     0.04
   3   7  27     7.97     0.08
   3   7  28     0.86     0.04
   3   7  29     2.73     0.04
   3   7  30     0.20     0.02
   3   7  31     0.89     0.03
   3   7  32     0.11     0.02
   3   7  33     1.13     0.04
   3   8   3     5.76     0.06
   3   8   4     3.69     0.04
   3   8   5     1.60     0.03
   3   8   6     1.80     0.03
   3   8   7     0.12     0.01
   3   8   8     1.34     0.02
   3   8   9     0.13     0.02
   3   8  10     0.42     0.02
   3   8  11     2.01     0.03
   3   8  12     4.64     0.04
   3   8  13     3.01     0.04
   3   8  14     2.38     0.03
   3   8  15     1.50     0.02
   3   8  16     0.05     0.02
   3   8  17     1.65     0.05
   3   8  18     0.06     0.02
   3   8  19     1.46     0.04
   3   8  20     0.03     0.02
   3   8  21     0.80     0.03
   3   8  22     0.01     0.02
   3   8  23     1.23     0.02
   3   8  24     0.11     0.01
   3   8  25     3.60     0.05
   3   8  26     0.37     0.02
   3   8  27     0.81     0.03
   3   8  28     0.09     0.03
   3   8  29     0.02     0.02
   3   8  30     0.00     0.02
   3   8  31     0.79     0.03
   3   9   3     0.11     0.02
   3   9   4     0.02     0.02
   3   9   5     0.05     0.02
   3   9   6     0.85     0.03
   3   9   7     4.37     0.05
   3   9   8     0.13     0.02
   3   9   9    10.12     0.08
   3   9  10     0.03     0.02
   3   9  11     5.60     0.07
   3   9  12     0.08     0.03
   3   9  13     0.46     0.03
   3   9  14     0.60     0.02
   3   9  15     5.34     0.05
   3   9  16     0.08     0.02
   3   9  17     0.56     0.02
   3   9  18     1.84     0.03
   3   9  19     2.96     0.04
   3   9  20     0.33     0.02
   3   9  21     2.48     0.03
   3   9  22     0.32     0.02
   3   9  23     1.11     0.03
   3   9  24     0.20     0.01
   3   9  25     0.83     0.03
   3   9  26     2.25     0.04
   3   9  27     4.41     0.06
   3   9  28     0.51     0.04
   3  10   3     2.52     0.04
   3  10   4     1.51     0.04
   3  10   5     0.73     0.05
   3  10   6     0.39     0.02
   3  10   7     0.24     0.03
   3  10   8     0.46     0.02
   3  10   9     0.01     0.01
   3  10  10     0.20     0.02
   3  10  11     0.40     0.02
   3  10  12     2.22     0.03
   3  10  13     1.19     0.03
   3  10  14     0.94     0.03
   3  10  15     0.61     0.03
   3  10  16     0.00     0.01
   3  10  17     0.65     0.03
   3  10  18     0.03     0.01
   3  10  19     0.28     0.01
   3  10  20     0.00     0.02
   3  10  21     1.01     0.03
   3  10  22     0.05     0.02
   3  10  23     0.23     0.02
   3  10  24     0.03     0.01
   3  10  25     1.85     0.03
   3  11   3     0.03     0.03
   3  11   4     0.16     0.02
   3  11   5     0.06     0.02
   3  11   6     0.30     0.02
   3  11   7     1.14     0.04
   3  11   8     0.08     0.03
   3  11   9     6.93     0.08
   3  11  10     0.06     0.01
   3  11  11     1.32     0.05
   3  11  12     0.10     0.02
   3  11  13     0.22     0.03
   3  11  14     0.36     0.03
   3  11  15     1.95     0.05
   3  11  16     0.12     0.02
   3  11  17     0.71     0.02
   3  11  18     0.85     0.03
   3  11  19     1.74     0.05
   3  11  20     0.10     0.01
   3  12   3     1.09     0.03
   3  12   4     0.41     0.03
   3  12   5     0.26     0.03
   3  12   6     0.03     0.01
   3  12   7     0.13     0.03
   3  12   8     0.18     0.03
   3  12   9     0.04     0.01
   3  12  10     0.02     0.01
   3  12  11     0.11     0.01
   3  12  12     0.48     0.03
   3  12  13     0.51     0.03
   3  12  14     0.09     0.02
   4   0   4    25.42     0.17
   4   0   6   119.58     1.00
   4   0   8    14.50     0.10
   4   0  10    73.98     0.71
   4   0  12    36.01     0.27
   4   0  14     1.06     0.03
   4   0  16     0.01     0.01
   4   0  18    17.94     0.14
   4   0  20     2.62     0.03
   4   0  22     1.63     0.03
   4   0  24     1.24     0.05
   4   0  26     0.89     0.06
   4   0  28    24.09     0.29
   4   0  30     4.46     0.08
   4   0  32     0.14     0.04
   4   0  34     1.31     0.07
   4   0  36     2.13     0.13
   4   1   4     0.70     0.01
   4   1   5     0.17     0.01
   4   1   6    18.11     0.09
   4   1   7     0.03     0.01
   4   1   8    51.54     0.27
   4   1   9     0.00     0.01
   4   1  10     9.37     0.06
   4   1  11     0.08     0.01
   4   1  12    45.02     0.27
   4   1  13     0.00     0.01
   4   1  14     5.56     0.04
   4   1  15     0.07     0.01
   4   1  16    44.00     0.21
   4   1  17     0.15     0.01
   4   1  18    26.28     0.14
   4   1  19     0.01     0.01
   4   1  20     6.81     0.06
   4   1  21     0.03     0.01
   4   1  22     8.05     0.07
   4   1  23     0.25     0.02
   4   1  24     0.81     0.02
   4   1  25     0.21     0.01
   4   1  26    52.50     0.38
   4   1  27     0.28     0.02
   4   1  28    21.94     0.19
   4   1  29     0.03     0.02
   4   1  30     4.96     0.07
   4   1  31     0.11     0.02
   4   1  32     2.91     0.05
   4   1  33     0.16     0.02
   4   1  34     0.83     0.04
   4   1  35     0.09     0.03
   4   1  36     1.61     0.06
   4   1  37     0.03     0.03
   4   1  38     2.30     0.11
   4   1  39     0.07     0.04
   4   2   4    12.97     0.07
   4   2   5     0.82     0.01
   4   2   6    73.72     0.47
   4   2   7     0.00     0.01
   4   2   8     7.40     0.04
   4   2   9     0.38     0.01
   4   2  10    80.32     0.61
   4   2  11     2.69     0.02
   4   2  12    22.36     0.11
   4   2  13     6.75     0.04
   4   2  14     0.06     0.01
   4   2  15     2.42     0.02
   4   2  16     0.40     0.02
   4   2  17     0.03     0.01
   4   2  18    19.11     0.12
   4   2  19     0.62     0.01
   4   2  20     2.93     0.03
   4   2  21     0.95     0.02
   4   2  22     1.23     0.03
   4   2  23     0.53     0.02
   4   2  24     1.23     0.03
   4   2  25     0.00     0.01
   4   2  26     1.41     0.03
   4   2  27     0.04     0.01
   4   2  28    18.27     0.15
   4   2  29     0.02     0.03
   4   2  30     2.63     0.04
   4   2  31     0.00     0.02
   4   2  32     0.44     0.03
   4   2  33     0.03     0.03
   4   2  34     1.49     0.05
   4   2  35     0.04     0.02
   4   2  36     1.94     0.05
   4   2  37     0.14     0.05
   4   2  38     0.29     0.08
   4   3   4     0.95     0.01
   4   3   5     0.57     0.01
   4   3   6    21.58     0.11
   4   3   7     2.66     0.02
   4   3   8    17.56     0.10
   4   3   9     1.08     0.02
   4   3  10     1.82     0.02
   4   3  11     1.07     0.02
   4   3  12    34.58     0.18
   4   3  13     0.00     0.01
   4   3  14     7.31     0.05
   4   3  15     0.08     0.01
   4   3  16    23.03     0.13
   4   3  17     0.11     0.01
   4   3  18    11.71     0.08
   4   3  19     0.47     0.02
   4   3  20    10.89     0.07
   4   3  21     0.17     0.01
   4   3  22     4.31     0.04
   4   3  23     0.34     0.01
   4   3  24     1.04     0.02
   4   3  25     0.47     0.03
   4   3  26    44.99     0.30
   4   3  27     0.95     0.02
   4   3  28    18.59     0.14
   4   3  29     0.17     0.02
   4   3  30     4.15     0.06
   4   3  31     0.96     0.05
   4   3  32     2.41     0.04
   4   3  33     0.90     0.05
   4   3  34     0.81     0.06
   4   3  35     0.42     0.03
   4   3  36     1.26     0.08
   4   3  37     0.07     0.03
   4   3  38     2.46     0.05
   4   4   4     0.89     0.02
   4   4   5     2.35     0.02
   4   4   6    25.52     0.13
   4   4   7     0.57     0.01
   4   4   8     3.26     0.03
   4   4   9     0.28     0.01
   4   4  10    60.64     0.41
   4   4  11     0.62     0.01
   4   4  12    13.61     0.08
   4   4  13     5.68     0.04
   4   4  14     0.02     0.01
   4   4  15     1.23     0.02
   4   4  16     0.56     0.02
   4   4  17     0.53     0.02
   4   4  18    14.01     0.09
   4   4  19     2.82     0.03
   4   4  20     2.20     0.02
   4   4  21     2.63     0.03
   4   4  22     0.45     0.02
   4   4  23     0.97     0.02
   4   4  24     0.67     0.02
   4   4  25     0.04     0.02
   4   4  26     1.70     0.03
   4   4  27     0.07     0.01
   4   4  28    10.51     0.09
   4   4  29     0.13     0.01
   4   4  30     0.76     0.02
   4   4  31     0.15     0.02
   4   4  32     0.78     0.03
   4   4  33     0.36     0.02
   4   4  34     1.19     0.06
   4   4  35     0.24     0.03
   4   4  36     1.17     0.09
   4   4  37     0.11     0.03
   4   5   4     0.07     0.01
   4   5   5     4.41     0.03
   4   5   6     8.69     0.06
   4   5   7     7.57     0.05
   4   5   8     7.34     0.05
   4   5   9     2.88     0.03
   4   5  10     0.31     0.01
   4   5  11     2.10     0.03
   4   5  12    20.69     0.13
   4   5  13     0.05     0.01
   4   5  14     7.41     0.05
   4   5  15     0.00     0.01
   4   5  16    10.25     0.07
   4   5  17     0.01     0.01
   4   5  18     5.01     0.04
   4   5  19     2.14     0.02
   4   5  20     8.54     0.06
   4   5  21     1.21     0.02
   4   5  22     4.21     0.05
   4   5  23     0.04     0.01
   4   5  24     0.11     0.02
   4   5  25     0.14     0.01
   4   5  26    26.91     0.19
   4   5  27     1.06     0.03
   4   5  28    15.52     0.13
   4   5  29     0.24     0.02
   4   5  30     2.68     0.04
   4   5  31     1.51     0.05
   4   5  32     1.72     0.05
   4   5  33     1.19     0.03
   4   5  34     0.47     0.04
   4   5  35     0.32     0.02
   4   5  36     1.26     0.03
   4   6   4     0.77     0.02
   4   6   5     2.32     0.02
   4   6   6     8.35     0.06
   4   6   7     0.54     0.02
   4   6   8     3.82     0.03
   4   6   9     0.72     0.02
   4   6  10    26.87     0.16
   4   6  11     0.08     0.02
   4   6  12    14.77     0.09
   4   6  13     4.38     0.04
   4   6  14     0.78     0.02
   4   6  15     0.75     0.02
   4   6  16     0.02     0.01
   4   6  17     0.84     0.02
   4   6  18     5.59     0.05
   4   6  19     2.89     0.04
   4   6  20     0.98     0.02
   4   6  21     2.48     0.03
   4   6  22     0.05     0.01
   4   6  23     0.79     0.02
   4   6  24     0.05     0.02
   4   6  25     0.14     0.01
   4   6  26     1.08     0.03
   4   6  27     0.08     0.01
   4   6  28     5.62     0.06
   4   6  29     0.15     0.03
   4   6  30     0.18     0.02
   4   6  31     0.19     0.02
   4   6  32     0.50     0.02
   4   6  33     0.45     0.05
   4   6  34     0.34     0.02
   4   7   4     0.54     0.02
   4   7   5     1.98     0.02
   4   7   6     2.13     0.03
   4   7   7     3.55     0.05
   4   7   8     3.57     0.04
   4   7   9     1.00     0.02
   4   7  10     0.03     0.02
   4   7  11     1.07     0.03
   4   7  12    11.18     0.09
   4   7  13     0.16     0.01
   4   7  14     5.89     0.05
   4   7  15     0.04     0.02
   4   7  16     4.04     0.04
   4   7  17     0.05     0.01
   4   7  18     2.02     0.03
   4   7  19     1.40     0.03
   4   7  20     5.01     0.05
   4   7  21     0.77     0.02
   4   7  22     4.44     0.05
   4   7  23     0.12     0.01
   4   7  24     0.19     0.02
   4   7  25     0.15     0.01
   4   7  26    12.09     0.10
   4   7  27     1.05     0.03
   4   7  28    11.35     0.11
   4   7  29     0.32     0.03
   4   7  30     1.40     0.03
   4   7  31     1.34     0.04
   4   7  32     1.20     0.03
   4   8   4     2.76     0.04
   4   8   5     1.21     0.02
   4   8   6     2.17     0.05
   4   8   7     0.02     0.01
   4   8   8     2.39     0.05
   4   8   9     0.12     0.01
   4   8  10    11.35     0.09
   4   8  11     0.22     0.02
   4   8  12    10.12     0.08
   4   8  13     4.48     0.04
   4   8  14     0.95     0.02
   4   8  15     0.97     0.03
   4   8  16     0.09     0.02
   4   8  17     0.31     0.02
   4   8  18     2.27     0.03
   4   8  19     1.35     0.03
   4   8  20     0.49     0.02
   4   8  21     1.23     0.02
   4   8  22     0.07     0.01
   4   8  23     0.50     0.02
   4   8  24     0.02     0.01
   4   8  25     0.11     0.01
   4   8  26     0.57     0.02
   4   8  27     0.03     0.01
   4   8  28     2.06     0.04
   4   8  29     0.00     0.03
   4   8  30     0.00     0.01
   4   9   4     0.26     0.01
   4   9   5     0.56     0.04
   4   9   6     1.59     0.03
   4   9   7     0.96     0.04
   4   9   8     0.74     0.03
   4   9   9     0.10     0.02
   4   9  10     0.18     0.01
   4   9  11     0.39     0.02
   4   9  12     6.15     0.05
   4   9  13     0.19     0.01
   4   9  14     4.26     0.05
   4   9  15     0.14     0.02
   4   9  16     0.87     0.02
   4   9  17     0.39     0.02
   4   9  18     0.29     0.02
   4   9  19     0.52     0.02
   4   9  20     3.61     0.07
   4   9  21     0.30     0.02
   4   9  22     2.57     0.03
   4   9  23     0.21     0.02
   4   9  24     0.25     0.01
   4   9  25     0.07     0.01
   4   9  26     5.13     0.06
   4   9  27     0.72     0.03
   4  10   4     3.15     0.06
   4  10   5     0.56     0.03
   4  10   6     0.28     0.02
   4  10   7     0.02     0.01
   4  10   8     0.76     0.02
   4  10   9     0.07     0.01
   4  10  10     5.40     0.05
   4  10  11     0.07     0.01
   4  10  12     4.31     0.05
   4  10  13     2.19     0.04
   4  10  14     0.33     0.02
   4  10  15     0.38     0.02
   4  10  16     0.05     0.02
   4  10  17     0.20     0.02
   4  10  18     0.97     0.04
   4  10  19     0.54     0.02
   4  10  20     0.27     0.02
   4  10  21     0.44     0.03
   4  10  22     0.16     0.02
   4  10  23     0.20     0.01
   4  11   4     0.10     0.02
   4  11   5     0.43     0.03
   4  11   6     1.04     0.04
   4  11   7     0.36     0.02
   4  11   8     0.13     0.02
   4  11   9     0.01     0.01
   4  11  10     0.31     0.02
   4  11  11     0.18     0.02
   4  11  12     3.01     0.05
   4  11  13     0.17     0.02
   4  11  14     2.69     0.04
   4  11  15     0.12     0.02
   4  11  16     0.10     0.02
   4  11  17     0.33     0.02
   4  11  18     0.00     0.01
   4  11  19     0.29     0.02
   4  12   4     2.16     0.06
   4  12   5     0.22     0.02
   4  12   6     0.05     0.02
   4  12   7     0.03     0.01
   4  12   8     0.34     0.02
   4  12   9     0.09     0.02
   4  12  10     1.95     0.05
   4  12  11     0.14     0.02
   5   0   5    21.84     0.16
   5   0   7     2.26     0.04
   5   0   9     0.00     0.01
   5   0  11    31.72     0.22
   5   0  13    26.17     0.19
   5   0  15     0.15     0.01
   5   0  17     1.86     0.02
   5   0  19     5.01     0.05
   5   0  21     0.52     0.03
   5   0  23     2.14     0.07
   5   0  25     3.60     0.15
   5   0  27    19.22     0.28
   5   0  29     0.04     0.04
   5   0  31     7.40     0.16
   5   0  33     0.12     0.06
   5   0  35     0.21     0.10
   5   1   5     1.34     0.02
   5   1   6     0.02     0.01
   5   1   7     9.46     0.05
   5   1   8     0.25     0.01
   5   1   9    10.11     0.06
   5   1  10     0.05     0.01
   5   1  11    74.53     0.41
   5   1  12     0.03     0.01
   5   1  13     3.60     0.03
   5   1  14     0.19     0.01
   5   1  15     6.87     0.05
   5   1  16     0.09     0.01
   5   1  17    10.30     0.06
   5   1  18     0.07     0.01
   5   1  19    17.16     0.10
   5   1  20     0.04     0.02
   5   1  21    48.99     0.32
   5   1  22     0.08     0.01
   5   1  23     0.23     0.02
   5   1  24     0.12     0.01
   5   1  25     1.00     0.02
   5   1  26     0.09     0.02
   5   1  27     1.90     0.05
   5   1  28     0.03     0.02
   5   1  29     4.31     0.07
   5   1  30     0.06     0.02
   5   1  31     0.80     0.04
   5   1  32     0.07     0.03
   5   1  33     0.07     0.03
   5   1  34     0.08     0.04
   5   1  35     8.16     0.12
   5   1  36     0.03     0.03
   5   1  37     0.11     0.04
   5   1  38     0.00     0.04
   5   2   5    26.09     0.12
   5   2   6     0.15     0.01
   5   2   7     0.40     0.01
   5   2   8     0.16     0.01
   5   2   9     0.34     0.01
   5   2  10     0.64     0.01
   5   2  11    32.41     0.17
   5   2  12     0.67     0.01
   5   2  13    28.04     0.14
   5   2  14     2.02     0.03
   5   2  15     0.05     0.01
   5   2  16     0.68     0.02
   5   2  17     0.73     0.02
   5   2  18     0.08     0.01
   5   2  19     3.13     0.03
   5   2  20     0.66     0.03
   5   2  21     0.37     0.02
   5   2  22     0.50     0.02
   5   2  23     2.13     0.03
   5   2  24     0.04     0.02
   5   2  25     3.03     0.04
   5   2  26     0.20     0.01
   5   2  27    20.04     0.16
   5   2  28     0.41     0.02
   5   2  29     0.13     0.02
   5   2  30     0.05     0.02
   5   2  31     5.61     0.08
   5   2  32     0.03     0.02
   5   2  33     0.03     0.03
   5   2  34     0.01     0.05
   5   2  35     0.15     0.05
   5   2  36     0.03     0.03
   5   2  37     4.71     0.11
   5   3   5     0.08     0.01
   5   3   6     2.02     0.02
   5   3   7    11.90     0.07
   5   3   8     3.51     0.03
   5   3   9    13.21     0.08
   5   3  10     0.78     0.01
   5   3  11    52.75     0.27
   5   3  12     0.25     0.01
   5   3  13     2.55     0.03
   5   3  14     2.04     0.03
   5   3  15     9.03     0.06
   5   3  16     1.59     0.03
   5   3  17     3.80     0.03
   5   3  18     0.00     0.01
   5   3  19     8.80     0.06
   5   3  20     0.05     0.02
   5   3  21    45.20     0.27
   5   3  22     0.04     0.01
   5   3  23     0.28     0.01
   5   3  24     0.25     0.02
   5   3  25     0.72     0.03
   5   3  26     0.21     0.02
   5   3  27     1.77     0.03
   5   3  28     0.37     0.02
   5   3  29     3.17     0.05
   5   3  30     0.15     0.03
   5   3  31     0.53     0.02
   5   3  32     0.38     0.02
   5   3  33     0.11     0.03
   5   3  34     0.50     0.03
   5   3  35     6.78     0.16
   5   3  36     0.09     0.07
   5   3  37     0.03     0.04
   5   4   5    25.78     0.13
   5   4   6     1.85     0.02
   5   4   7     0.04     0.01
   5   4   8     0.37     0.01
   5   4   9     0.14     0.01
   5   4  10     0.02     0.01
   5   4  11    19.13     0.12
   5   4  12     0.03     0.01
   5   4  13    18.04     0.12
   5   4  14     1.36     0.02
   5   4  15     0.01     0.02
   5   4  16     0.37     0.02
   5   4  17     0.12     0.02
   5   4  18     0.67     0.03
   5   4  19     0.98     0.02
   5   4  20     1.60     0.02
   5   4  21     0.09     0.01
   5   4  22     0.89     0.02
   5   4  23     1.41     0.02
   5   4  24     0.02     0.02
   5   4  25     2.37     0.04
   5   4  26     1.19     0.03
   5   4  27    16.75     0.14
   5   4  28     2.00     0.03
   5   4  29     0.36     0.02
   5   4  30     0.39     0.02
   5   4  31     3.19     0.05
   5   4  32     0.00     0.03
   5   4  33     0.05     0.02
   5   4  34     0.04     0.02
   5   4  35     0.11     0.02
   5   4  36     0.03     0.02
   5   5   5     0.02     0.01
   5   5   6     5.76     0.04
   5   5   7     6.00     0.05
   5   5   8     6.86     0.05
   5   5   9    10.20     0.07
   5   5  10     1.43     0.03
   5   5  11    30.61     0.18
   5   5  12     0.48     0.03
   5   5  13     2.31     0.03
   5   5  14     4.03     0.04
   5   5  15     6.92     0.05
   5   5  16     3.81     0.04
   5   5  17     1.49     0.03
   5   5  18     0.21     0.01
   5   5  19     5.66     0.05
   5   5  20     0.65     0.02
   5   5  21    27.18     0.18
   5   5  22     0.13     0.01
   5   5  23     0.05     0.02
   5   5  24     0.07     0.01
   5   5  25     0.05     0.01
   5   5  26     0.11     0.01
   5   5  27     0.90     0.03
   5   5  28     0.45     0.02
   5   5  29     2.09     0.06
   5   5  30     0.31     0.02
   5   5  31     0.17     0.02
   5   5  32     0.52     0.03
   5   5  33     0.38     0.03
   5   5  34     0.65     0.03
   5   6   5    17.10     0.13
   5   6   6     2.03     0.03
   5   6   7     0.15     0.01
   5   6   8     0.55     0.02
   5   6   9     0.87     0.02
   5   6  10     0.15     0.02
   5   6  11     3.63     0.04
   5   6  12     0.31     0.02
   5   6  13     4.45     0.04
   5   6  14     1.10     0.02
   5   6  15     0.66     0.02
   5   6  16     0.34     0.02
   5   6  17     0.13     0.02
   5   6  18     0.83     0.03
   5   6  19     0.23     0.02
   5   6  20     1.54     0.03
   5   6  21     0.02     0.02
   5   6  22     0.80     0.03
   5   6  23     0.44     0.02
   5   6  24     0.02     0.01
   5   6  25     2.49     0.03
   5   6  26     1.49     0.03
   5   6  27     9.69     0.10
   5   6  28     2.36     0.04
   5   6  29     0.26     0.02
   5   6  30     0.41     0.02
   5   6  31     1.87     0.04
   5   6  32     0.00     0.02
   5   6  33     0.02     0.02
   5   7   5     0.29     0.01
   5   7   6     2.94     0.04
   5   7   7     2.21     0.03
   5   7   8     3.87     0.04
   5   7   9     6.34     0.06
   5   7  10     0.80     0.02
   5   7  11    14.83     0.11
   5   7  12     0.42     0.02
   5   7  13     2.17     0.03
   5   7  14     2.97     0.04
   5   7  15     3.93     0.04
   5   7  16     2.37     0.03
   5   7  17     0.54     0.03
   5   7  18     0.02     0.01
   5   7  19     3.78     0.04
   5   7  20     0.35     0.02
   5   7  21    12.35     0.10
   5   7  22     0.06     0.01
   5   7  23     0.80     0.02
   5   7  24     0.13     0.02
   5   7  25     0.22     0.02
   5   7  26     0.10     0.01
   5   7  27     0.30     0.02
   5   7  28     0.44     0.03
   5   7  29     1.07     0.03
   5   7  30     0.37     0.02
   5   7  31     0.01     0.01
   5   8   5    11.20     0.10
   5   8   6     0.75     0.02
   5   8   7     0.09     0.01
   5   8   8     0.00     0.03
   5   8   9     1.53     0.04
   5   8  10     0.01     0.02
   5   8  11     0.40     0.02
   5   8  12     0.08     0.01
   5   8  13     0.81     0.03
   5   8  14     1.44     0.03
   5   8  15     0.80     0.03
   5   8  16     0.63     0.02
   5   8  17     0.02     0.01
   5   8  18     0.36     0.02
   5   8  19     0.02     0.01
   5   8  20     0.82     0.02
   5   8  21     0.14     0.02
   5   8  22     0.51     0.03
   5   8  23     0.08     0.02
   5   8  24     0.01     0.01
   5   8  25     1.90     0.03
   5   8  26     0.77     0.03
   5   8  27     4.98     0.06
   5   8  28     1.25     0.03
   5   9   5     0.01     0.03
   5   9   6     0.87     0.03
   5   9   7     1.52     0.04
   5   9   8     1.38     0.05
   5   9   9     4.27     0.05
   5   9  10     0.24     0.01
   5   9  11     5.82     0.06
   5   9  12     0.19     0.02
   5   9  13     1.45     0.03
   5   9  14     1.32     0.02
   5   9  15     2.64     0.03
   5   9  16     0.83     0.03
   5   9  17     0.04     0.02
   5   9  18     0.13     0.01
   5   9  19     1.37     0.03
   5   9  20     0.11     0.02
   5   9  21     5.86     0.06
   5   9  22     0.04     0.01
   5   9  23     0.85     0.02
   5   9  24     0.10     0.01
   5   9  25     0.38     0.02
   5  10   5     7.19     0.07
   5  10   6     0.31     0.02
   5  10   7     0.00     0.02
   5  10   8     0.02     0.02
   5  10   9     0.94     0.04
   5  10  10     0.00     0.02
   5  10  11     0.04     0.02
   5  10  12     0.19     0.02
   5  10  13     0.19     0.02
   5  10  14     0.72     0.02
   5  10  15     0.36     0.02
   5  10  16     0.40     0.02
   5  10  17     0.05     0.01
   5  10  18     0.14     0.02
   5  10  19     0.12     0.01
   5  10  20     0.28     0.02
   5  10  21     0.16     0.01
   5  11   5     0.02     0.02
   5  11   6     0.35     0.02
   5  11   7     0.86     0.03
   5  11   8     0.49     0.03
   5  11   9     2.15     0.03
   5  11  10     0.05     0.01
   5  11  11     2.14     0.05
   5  11  12     0.09     0.01
   5  11  13     0.82     0.05
   5  11  14     0.46     0.02
   5  11  15     1.49     0.04
   5  11  16     0.27     0.02
   5  12   5     3.49     0.10
   5  12   6     0.19     0.02
   6   0   6     5.07     0.05
   6   0   8     0.23     0.02
   6   0  10     0.04     0.03
   6   0  12     2.66     0.04
   6   0  14     0.23     0.02
   6   0  16    26.78     0.23
   6   0  18     5.35     0.06
   6   0  20     0.52     0.02
   6   0  22     2.67     0.07
   6   0  24     0.69     0.05
   6   0  26     0.09     0.03
   6   0  28    17.85     0.34
   6   0  30     1.50     0.07
   6   0  32     2.23     0.09
   6   0  34     2.27     0.16
   6   0  36     1.71     0.10
   6   1   6    41.00     0.20
   6   1   7     0.01     0.01
   6   1   8    18.72     0.10
   6   1   9     0.03     0.01
   6   1  10     4.38     0.03
   6   1  11     0.02     0.01
   6   1  12    20.39     0.12
   6   1  13     0.02     0.01
   6   1  14     4.59     0.06
   6   1  15     0.11     0.01
   6   1  16     0.01     0.01
   6   1  17     0.01     0.01
   6   1  18     1.67     0.02
   6   1  19     0.26     0.01
   6   1  20    11.60     0.08
   6   1  21     0.41     0.02
   6   1  22     1.45     0.02
   6   1  23     0.30     0.02
   6   1  24     0.04     0.02
   6   1  25     0.17     0.03
   6   1  26     4.87     0.08
   6   1  27     0.00     0.03
   6   1  28     0.02     0.03
   6   1  29     0.00     0.03
   6   1  30     9.78     0.14
   6   1  31     0.00     0.06
   6   1  32     4.11     0.08
   6   1  33     0.05     0.03
   6   1  34     1.02     0.05
   6   1  35     0.10     0.05
   6   1  36     1.91     0.12
   6   2   6     1.89     0.02
   6   2   7     0.76     0.01
   6   2   8     1.40     0.02
   6   2   9     2.97     0.02
   6   2  10     0.52     0.01
   6   2  11     2.10     0.02
   6   2  12     3.73     0.04
   6   2  13     0.78     0.02
   6   2  14     0.03     0.01
   6   2  15     0.46     0.02
   6   2  16    20.15     0.13
   6   2  17     0.18     0.02
   6   2  18     3.53     0.04
   6   2  19     0.09     0.01
   6   2  20     0.26     0.02
   6   2  21     0.38     0.01
   6   2  22     2.72     0.03
   6   2  23     0.38     0.02
   6   2  24     0.33     0.03
   6   2  25     0.05     0.02
   6   2  26     0.02     0.03
   6   2  27     0.09     0.02
   6   2  28    14.15     0.14
   6   2  29     0.10     0.04
   6   2  30     1.95     0.06
   6   2  31     0.00     0.03
   6   2  32     1.61     0.06
   6   2  33     0.32     0.04
   6   2  34     1.88     0.10
   6   2  35     0.22     0.05
   6   2  36     1.41     0.07
   6   3   6    19.16     0.10
   6   3   7     0.50     0.01
   6   3   8     8.58     0.05
   6   3   9     0.51     0.01
   6   3  10     2.47     0.02
   6   3  11     0.09     0.01
   6   3  12    14.36     0.09
   6   3  13     0.39     0.02
   6   3  14     6.90     0.05
   6   3  15     1.77     0.04
   6   3  16     0.45     0.02
   6   3  17     0.35     0.02
   6   3  18     0.24     0.02
   6   3  19     0.53     0.02
   6   3  20     6.01     0.05
   6   3  21     1.17     0.02
   6   3  22     0.56     0.02
   6   3  23     1.04     0.03
   6   3  24     0.05     0.02
   6   3  25     0.64     0.04
   6   3  26     3.97     0.06
   6   3  27     0.01     0.02
   6   3  28     0.02     0.02
   6   3  29     0.00     0.02
   6   3  30     7.25     0.09
   6   3  31     0.02     0.03
   6   3  32     3.04     0.07
   6   3  33     0.27     0.06
   6   3  34     0.85     0.09
   6   3  35     0.22     0.06
   6   4   6     0.26     0.01
   6   4   7     0.07     0.02
   6   4   8     2.17     0.03
   6   4   9     2.31     0.02
   6   4  10     0.40     0.01
   6   4  11     1.27     0.03
   6   4  12     2.14     0.03
   6   4  13     0.17     0.01
   6   4  14     0.17     0.02
   6   4  15     0.20     0.01
   6   4  16    11.33     0.08
   6   4  17     0.19     0.01
   6   4  18     1.25     0.02
   6   4  19     0.32     0.02
   6   4  20     0.03     0.02
   6   4  21     0.61     0.02
   6   4  22     1.82     0.04
   6   4  23     0.47     0.03
   6   4  24     0.05     0.02
   6   4  25     0.04     0.02
   6   4  26     0.19     0.02
   6   4  27     0.55     0.02
   6   4  28     8.41     0.08
   6   4  29     0.79     0.03
   6   4  30     2.56     0.05
   6   4  31     0.02     0.02
   6   4  32     0.97     0.06
   6   4  33     0.72     0.04
   6   4  34     1.32     0.12
   6   5   6     7.32     0.05
   6   5   7     1.54     0.03
   6   5   8     3.13     0.05
   6   5   9     0.91     0.02
   6   5  10     1.04     0.02
   6   5  11     0.08     0.01
   6   5  12     8.92     0.06
   6   5  13     1.11     0.02
   6   5  14     5.88     0.05
   6   5  15     4.29     0.04
   6   5  16     0.49     0.02
   6   5  17     1.36     0.02
   6   5  18     0.04     0.01
   6   5  19     0.21     0.02
   6   5  20     3.72     0.04
   6   5  21     0.89     0.03
   6   5  22     0.57     0.03
   6   5  23     0.93     0.03
   6   5  24     0.06     0.01
   6   5  25     0.69     0.03
   6   5  26     1.94     0.04
   6   5  27     0.10     0.03
   6   5  28     0.01     0.02
   6   5  29     0.04     0.02
   6   5  30     3.75     0.05
   6   5  31     0.00     0.03
   6   5  32     1.27     0.04
   6   5  33     0.32     0.02
   6   6   6     0.23     0.02
   6   6   7     0.00     0.01
   6   6   8     0.52     0.02
   6   6   9     1.73     0.04
   6   6  10     0.24     0.01
   6   6  11     0.76     0.02
   6   6  12     0.05     0.01
   6   6  13     0.03     0.02
   6   6  14     0.00     0.02
   6   6  15     0.14     0.01
   6   6  16     6.29     0.05
   6   6  17     0.26     0.02
   6   6  18     0.23     0.02
   6   6  19     0.26     0.02
   6   6  20     0.28     0.01
   6   6  21     0.57     0.02
   6   6  22     0.60     0.03
   6   6  23     0.45     0.02
   6   6  24     0.05     0.01
   6   6  25     0.07     0.02
   6   6  26     0.20     0.02
   6   6  27     0.72     0.03
   6   6  28     4.77     0.05
   6   6  29     1.08     0.03
   6   6  30     2.14     0.05
   6   6  31     0.10     0.02
   6   7   6     2.15     0.04
   6   7   7     0.81     0.03
   6   7   8     0.91     0.04
   6   7   9     0.55     0.02
   6   7  10     0.34     0.02
   6   7  11     0.13     0.01
   6   7  12     5.01     0.05
   6   7  13     0.64     0.02
   6   7  14     3.71     0.04
   6   7  15     3.17     0.04
   6   7  16     0.18     0.02
   6   7  17     0.77     0.02
   6   7  18     0.03     0.01
   6   7  19     0.36     0.02
   6   7  20     2.22     0.03
   6   7  21     0.91     0.02
   6   7  22     0.64     0.02
   6   7  23     0.75     0.03
   6   7  24     0.34     0.03
   6   7  25     0.60     0.02
   6   7  26     0.53     0.02
   6   7  27     0.05     0.02
   6   7  28     0.02     0.02
   6   7  29     0.00     0.01
   6   8   6     0.02     0.03
   6   8   7     0.09     0.02
   6   8   8     0.23     0.03
   6   8   9     1.86     0.03
   6   8  10     0.74     0.02
   6   8  11     0.80     0.03
   6   8  12     0.11     0.01
   6   8  13     0.01     0.01
   6   8  14     0.02     0.01
   6   8  15     0.20     0.02
   6   8  16     2.47     0.03
   6   8  17     0.46     0.02
   6   8  18     0.02     0.02
   6   8  19     0.13     0.02
   6   8  20     0.64     0.02
   6   8  21     0.37     0.02
   6   8  22     0.12     0.01
   6   8  23     0.44     0.03
   6   8  24     0.00     0.01
   6   8  25     0.00     0.01
   6   8  26     0.25     0.02
   6   9   6     0.33     0.03
   6   9   7     0.22     0.03
   6   9   8     0.08     0.02
   6   9   9     0.17     0.01
   6   9  10     0.07     0.03
   6   9  11     0.12     0.02
   6   9  12     2.04     0.04
   6   9  13     0.18     0.03
   6   9  14     2.63     0.05
   6   9  15     1.34     0.02
   6   9  16     0.25     0.02
   6   9  17     0.19     0.02
   6   9  18     0.07     0.01
   6   9  19     0.48     0.02
   6   9  20     0.63     0.03
   6   9  21     0.54     0.02
   6   9  22     0.29     0.02
   6   9  23     0.43     0.02
   6  10   6     0.09     0.02
   6  10   7     0.05     0.02
   6  10   8     0.31     0.03
   6  10   9     0.76     0.03
   6  10  10     0.51     0.02
   6  10  11     0.26     0.02
   6  10  12     0.09     0.01
   6  10  13     0.00     0.01
   6  10  14     0.02     0.01
   6  10  15     0.11     0.02
   6  10  16     0.62     0.02
   6  10  17     0.37     0.02
   6  10  18     0.20     0.01
   6  11   6     0.04     0.02
   6  11   7     0.07     0.02
   6  11   8     0.00     0.01
   6  11   9     0.04     0.01
   6  11  10     0.00     0.01
   6  11  11     0.06     0.01
   6  11  12     0.67     0.02
   7   0   7    12.87     0.11
   7   0   9     2.84     0.05
   7   0  11    33.49     0.34
   7   0  13    32.39     0.29
   7   0  15     4.18     0.06
   7   0  17     4.25     0.05
   7   0  19     0.13     0.02
   7   0  21     4.91     0.06
   7   0  23    10.83     0.18
   7   0  25    15.58     0.30
   7   0  27     1.04     0.07
   7   0  29     2.81     0.10
   7   0  31     1.36     0.08
   7   0  33     2.06     0.11
   7   1   7     6.37     0.05
   7   1   8     0.08     0.01
   7   1   9     2.30     0.02
   7   1  10     0.09     0.01
   7   1  11     2.52     0.05
   7   1  12     0.05     0.01
   7   1  13    47.16     0.28
   7   1  14     0.04     0.02
   7   1  15     1.99     0.03
   7   1  16     0.02     0.02
   7   1  17     0.00     0.01
   7   1  18     0.00     0.01
   7   1  19     9.96     0.08
   7   1  20     0.24     0.02
   7   1  21    13.48     0.10
   7   1  22     0.19     0.02
   7   1  23     0.01     0.02
   7   1  24     0.13     0.03
   7   1  25     0.35     0.04
   7   1  26     0.02     0.05
   7   1  27     0.06     0.03
   7   1  28     0.14     0.04
   7   1  29     9.38     0.13
   7   1  30     0.12     0.03
   7   1  31     0.20     0.04
   7   1  32     0.04     0.05
   7   1  33     2.29     0.09
   7   1  34     0.00     0.04
   7   2   7     8.10     0.05
   7   2   8     1.53     0.02
   7   2   9     4.68     0.04
   7   2  10     2.53     0.05
   7   2  11    26.49     0.17
   7   2  12     0.89     0.02
   7   2  13    32.20     0.20
   7   2  14     0.05     0.01
   7   2  15     4.52     0.04
   7   2  16     0.29     0.01
   7   2  17     3.33     0.04
   7   2  18     0.45     0.02
   7   2  19     0.06     0.01
   7   2  20     0.23     0.02
   7   2  21     4.81     0.05
   7   2  22     0.22     0.02
   7   2  23     8.43     0.08
   7   2  24     0.14     0.02
   7   2  25    12.09     0.13
   7   2  26     0.04     0.02
   7   2  27     1.76     0.05
   7   2  28     0.06     0.04
   7   2  29     2.10     0.07
   7   2  30     0.11     0.03
   7   2  31     1.52     0.08
   7   2  32     0.01     0.03
   7   2  33     2.06     0.11
   7   2  34     0.16     0.04
   7   3   7     8.40     0.06
   7   3   8     0.69     0.02
   7   3   9     1.77     0.03
   7   3  10     0.42     0.01
   7   3  11     3.77     0.03
   7   3  12     0.05     0.01
   7   3  13    30.65     0.21
   7   3  14     0.02     0.01
   7   3  15     0.19     0.01
   7   3  16     0.75     0.02
   7   3  17     0.56     0.02
   7   3  18     0.07     0.01
   7   3  19     6.52     0.05
   7   3  20     0.64     0.02
   7   3  21    12.34     0.10
   7   3  22     0.68     0.03
   7   3  23     0.01     0.01
   7   3  24     0.39     0.02
   7   3  25     0.19     0.02
   7   3  26     0.02     0.02
   7   3  27     0.01     0.02
   7   3  28     0.65     0.03
   7   3  29     7.72     0.11
   7   3  30     0.69     0.05
   7   3  31     0.23     0.05
   7   3  32     0.02     0.09
   7   3  33     1.97     0.07
   7   4   7     4.63     0.04
   7   4   8     0.99     0.02
   7   4   9     4.66     0.04
   7   4  10     2.80     0.03
   7   4  11    20.06     0.13
   7   4  12     0.65     0.02
   7   4  13    23.35     0.15
   7   4  14     0.78     0.02
   7   4  15     3.31     0.03
   7   4  16     1.09     0.02
   7   4  17     1.97     0.03
   7   4  18     0.99     0.03
   7   4  19     0.03     0.01
   7   4  20     0.39     0.03
   7   4  21     3.51     0.04
   7   4  22     0.16     0.01
   7   4  23     5.02     0.05
   7   4  24     0.04     0.02
   7   4  25     6.61     0.06
   7   4  26     0.08     0.03
   7   4  27     2.57     0.06
   7   4  28     0.45     0.05
   7   4  29     1.32     0.07
   7   4  30     0.37     0.03
   7   4  31     1.31     0.14
   7   4  32     0.07     0.06
   7   5   7     7.85     0.06
   7   5   8     1.07     0.02
   7   5   9     0.95     0.02
   7   5  10     0.41     0.01
   7   5  11     4.06     0.04
   7   5  12     0.01     0.01
   7   5  13    17.54     0.13
   7   5  14     0.13     0.02
   7   5  15     0.04     0.02
   7   5  16     2.38     0.04
   7   5  17     0.63     0.02
   7   5  18     0.58     0.02
   7   5  19     5.57     0.05
   7   5  20     0.45     0.04
   7   5  21     6.90     0.06
   7   5  22     0.62     0.05
   7   5  23     0.11     0.03
   7   5  24     0.39     0.02
   7   5  25     0.03     0.02
   7   5  26     0.06     0.03
   7   5  27     0.14     0.02
   7   5  28     1.08     0.05
   7   5  29     5.35     0.07
   7   5  30     0.88     0.06
   7   6   7     4.64     0.04
   7   6   8     0.57     0.02
   7   6   9     1.48     0.02
   7   6  10     2.42     0.03
   7   6  11    17.84     0.13
   7   6  12     0.47     0.02
   7   6  13    10.48     0.08
   7   6  14     1.06     0.03
   7   6  15     1.27     0.03
   7   6  16     1.11     0.02
   7   6  17     0.95     0.02
   7   6  18     0.91     0.03
   7   6  19     0.35     0.02
   7   6  20     0.22     0.02
   7   6  21     1.56     0.03
   7   6  22     0.11     0.03
   7   6  23     3.05     0.04
   7   6  24     0.05     0.02
   7   6  25     3.16     0.04
   7   6  26     0.05     0.02
   7   6  27     2.33     0.05
   7   6  28     0.52     0.02
   7   6  29     0.90     0.04
   7   7   7     6.20     0.06
   7   7   8     0.69     0.02
   7   7   9     0.56     0.02
   7   7  10     0.31     0.02
   7   7  11     3.24     0.04
   7   7  12     0.05     0.02
   7   7  13     8.58     0.08
   7   7  14     0.03     0.01
   7   7  15     0.20     0.01
   7   7  16     1.87     0.03
   7   7  17     0.41     0.02
   7   7  18     0.38     0.02
   7   7  19     4.53     0.06
   7   7  20     0.59     0.02
   7   7  21     2.79     0.04
   7   7  22     0.56     0.02
   7   7  23     0.35     0.02
   7   7  24     0.34     0.02
   7   7  25     0.08     0.01
   7   7  26     0.01     0.02
   7   8   7     2.89     0.04
   7   8   8     0.64     0.02
   7   8   9     0.56     0.03
   7   8  10     2.31     0.03
   7   8  11    11.73     0.09
   7   8  12     0.64     0.02
   7   8  13     4.19     0.04
   7   8  14     0.68     0.02
   7   8  15     0.45     0.02
   7   8  16     0.51     0.02
   7   8  17     0.31     0.02
   7   8  18     0.43     0.02
   7   8  19     0.66     0.02
   7   8  20     0.10     0.01
   7   8  21     0.51     0.02
   7   8  22     0.08     0.02
   7   8  23     1.39     0.03
   7   8  24     0.08     0.06
   7   9   7     4.82     0.08
   7   9   8     0.27     0.02
   7   9   9     0.25     0.02
   7   9  10     0.18     0.01
   7   9  11     2.53     0.03
   7   9  12     0.09     0.01
   7   9  13     2.88     0.03
   7   9  14     0.10     0.01
   7   9  15     0.60     0.02
   7   9  16     0.88     0.04
   7   9  17     0.48     0.02
   7   9  18     0.14     0.02
   7   9  19     2.48     0.04
   7   9  20     0.50     0.03
   7  10   7     1.05     0.03
   7  10   8     0.17     0.02
   7  10   9     0.43     0.02
   7  10  10     1.01     0.06
   7  10  11     5.31     0.06
   7  10  12     0.25     0.01
   7  10  13     1.62     0.03
   7  10  14     0.49     0.02
   7  10  15     0.15     0.02
   8   0   8    18.20     0.15
   8   0  10    15.78     0.14
   8   0  12     3.98     0.06
   8   0  14     0.16     0.02
   8   0  16     1.48     0.05
   8   0  18     5.81     0.07
   8   0  20     4.24     0.06
   8   0  22    11.48     0.14
   8   0  24     1.03     0.07
   8   0  26     2.43     0.09
   8   0  28     1.46     0.18
   8   0  30     0.06     0.05
   8   0  32     1.92     0.11
   8   1   8     0.75     0.02
   8   1   9     0.00     0.02
   8   1  10     0.62     0.02
   8   1  11     0.01     0.01
   8   1  12     0.31     0.01
   8   1  13     0.01     0.01
   8   1  14     5.29     0.05
   8   1  15     0.02     0.01
   8   1  16     1.23     0.03
   8   1  17     0.01     0.01
   8   1  18    30.27     0.20
   8   1  19     0.00     0.01
   8   1  20     0.20     0.02
   8   1  21     0.14     0.02
   8   1  22     1.13     0.03
   8   1  23     0.09     0.02
   8   1  24    10.54     0.10
   8   1  25     0.03     0.03
   8   1  26     1.49     0.08
   8   1  27     0.00     0.03
   8   1  28     0.65     0.06
   8   1  29     0.08     0.03
   8   1  30     0.00     0.05
   8   1  31     0.07     0.07
   8   1  32     2.60     0.14
   8   2   8    18.44     0.13
   8   2   9     0.55     0.02
   8   2  10    15.85     0.12
   8   2  11     0.75     0.02
   8   2  12     2.97     0.03
   8   2  13     0.16     0.01
   8   2  14     0.32     0.02
   8   2  15     0.38     0.02
   8   2  16     1.59     0.03
   8   2  17     0.46     0.02
   8   2  18     5.26     0.05
   8   2  19     0.20     0.02
   8   2  20     3.74     0.04
   8   2  21     0.00     0.02
   8   2  22    11.35     0.09
   8   2  23     0.16     0.01
   8   2  24     1.22     0.05
   8   2  25     0.13     0.02
   8   2  26     1.54     0.04
   8   2  27     0.04     0.05
   8   2  28     0.99     0.06
   8   2  29     0.02     0.04
   8   2  30     0.11     0.06
   8   2  31     0.00     0.04
   8   3   8     0.32     0.01
   8   3   9     0.04     0.01
   8   3  10     0.29     0.01
   8   3  11     0.50     0.01
   8   3  12     0.01     0.01
   8   3  13     0.41     0.02
   8   3  14     2.20     0.03
   8   3  15     0.06     0.02
   8   3  16     0.36     0.01
   8   3  17     0.17     0.02
   8   3  18    27.32     0.19
   8   3  19     0.18     0.02
   8   3  20     0.14     0.02
   8   3  21     0.49     0.02
   8   3  22     1.08     0.05
   8   3  23     0.35     0.02
   8   3  24     8.65     0.08
   8   3  25     0.17     0.02
   8   3  26     1.33     0.04
   8   3  27     0.06     0.04
   8   3  28     0.45     0.07
   8   3  29     0.38     0.05
   8   3  30     0.05     0.06
   8   4   8    12.27     0.09
   8   4   9     0.24     0.01
   8   4  10    10.68     0.08
   8   4  11     0.79     0.03
   8   4  12     2.42     0.04
   8   4  13     0.11     0.01
   8   4  14     0.37     0.02
   8   4  15     1.33     0.04
   8   4  16     1.70     0.04
   8   4  17     1.07     0.03
   8   4  18     3.57     0.04
   8   4  19     0.27     0.03
   8   4  20     3.46     0.05
   8   4  21     0.07     0.02
   8   4  22     8.48     0.09
   8   4  23     0.85     0.06
   8   4  24     1.38     0.05
   8   4  25     0.56     0.03
   8   4  26     0.70     0.03
   8   4  27     0.25     0.05
   8   4  28     0.30     0.03
   8   4  29     0.06     0.04
   8   5   8     0.02     0.01
   8   5   9     0.15     0.02
   8   5  10     0.27     0.01
   8   5  11     1.24     0.03
   8   5  12     0.21     0.01
   8   5  13     1.15     0.04
   8   5  14     1.02     0.04
   8   5  15     0.29     0.03
   8   5  16     0.31     0.03
   8   5  17     0.72     0.03
   8   5  18    16.83     0.13
   8   5  19     0.67     0.04
   8   5  20     0.07     0.03
   8   5  21     0.44     0.02
   8   5  22     1.56     0.05
   8   5  23     0.38     0.02
   8   5  24     5.40     0.08
   8   5  25     0.28     0.04
   8   5  26     0.96     0.03
   8   5  27     0.08     0.02
   8   5  28     0.12     0.02
   8   6   8     3.69     0.04
   8   6   9     0.09     0.02
   8   6  10     3.45     0.03
   8   6  11     0.67     0.03
   8   6  12     2.86     0.04
   8   6  13     0.13     0.01
   8   6  14     0.23     0.03
   8   6  15     1.61     0.03
   8   6  16     1.53     0.02
   8   6  17     1.05     0.02
   8   6  18     1.62     0.03
   8   6  19     0.22     0.02
   8   6  20     3.49     0.04
   8   6  21     0.10     0.01
   8   6  22     4.20     0.07
   8   6  23     1.13     0.04
   8   6  24     0.78     0.03
   8   6  25     0.59     0.02
   8   6  26     0.34     0.02
   8   7   8     0.09     0.01
   8   7   9     0.11     0.02
   8   7  10     0.30     0.02
   8   7  11     0.87     0.03
   8   7  12     0.38     0.02
   8   7  13     0.70     0.02
   8   7  14     0.42     0.02
   8   7  15     0.05     0.01
   8   7  16     0.31     0.02
   8   7  17     0.51     0.02
   8   7  18     7.93     0.07
   8   7  19     0.59     0.02
   8   7  20     0.63     0.03
   8   7  21     0.56     0.04
   8   7  22     1.82     0.03
   8   7  23     0.30     0.02
   8   8   8     0.77     0.03
   8   8   9     0.11     0.02
   8   8  10     0.92     0.02
   8   8  11     0.70     0.02
   8   8  12     2.08     0.03
   8   8  13     0.25     0.02
   8   8  14     0.16     0.02
   8   8  15     1.06     0.02
   8   8  16     1.28     0.02
   8   8  17     0.69     0.03
   8   8  18     0.66     0.03
   8   8  19     0.13     0.01
   8   8  20     2.80     0.04
   8   9   8     0.23     0.01
   8   9   9     0.03     0.02
   8   9  10     0.16     0.02
   8   9  11     0.34     0.02
   8   9  12     0.70     0.02
   8   9  13     0.17     0.01
   8   9  14     0.01     0.01
   8   9  15     0.01     0.01
   8   9  16     0.09     0.02
   8  10   8     0.19     0.01
   9   0   9     3.83     0.05
   9   0  11     2.29     0.07
   9   0  13     3.92     0.05
   9   0  15     4.26     0.06
   9   0  17     0.03     0.02
   9   0  19     2.67     0.05
   9   0  21     2.87     0.05
   9   0  23    12.34     0.17
   9   0  25     0.80     0.10
   9   0  27     1.80     0.19
   9   0  29     1.71     0.10
   9   1   9    18.29     0.12
   9   1  10     0.03     0.01
   9   1  11     4.04     0.04
   9   1  12     0.03     0.01
   9   1  13     1.73     0.04
   9   1  14     0.00     0.01
   9   1  15     0.68     0.03
   9   1  16     0.13     0.02
   9   1  17    23.14     0.17
   9   1  18     0.19     0.02
   9   1  19     4.06     0.05
   9   1  20     0.09     0.02
   9   1  21     7.25     0.07
   9   1  22     0.13     0.03
   9   1  23     6.06     0.06
   9   1  24     0.09     0.04
   9   1  25     1.61     0.10
   9   1  26     0.05     0.06
   9   1  27    12.45     0.22
   9   1  28     0.04     0.04
   9   1  29     1.30     0.10
   9   2   9     4.17     0.06
   9   2  10     0.27     0.01
   9   2  11     1.52     0.04
   9   2  12     0.38     0.02
   9   2  13     2.87     0.06
   9   2  14     0.08     0.01
   9   2  15     3.34     0.05
   9   2  16     0.21     0.02
   9   2  17     0.01     0.01
   9   2  18     0.40     0.03
   9   2  19     2.58     0.05
   9   2  20     0.05     0.01
   9   2  21     3.18     0.04
   9   2  22     0.01     0.03
   9   2  23    10.03     0.10
   9   2  24     0.14     0.04
   9   2  25     1.31     0.08
   9   2  26     0.11     0.06
   9   2  28     0.00     0.04
   9   3   9    16.63     0.13
   9   3  10     0.48     0.02
   9   3  11     2.34     0.03
   9   3  12     0.64     0.02
   9   3  13     2.83     0.06
   9   3  14     0.20     0.03
   9   3  15     0.11     0.03
   9   3  16     0.30     0.03
   9   3  17    17.03     0.14
   9   3  18     0.50     0.03
   9   3  19     3.94     0.04
   9   3  20     0.24     0.03
   9   3  21     5.79     0.07
   9   3  22     0.41     0.03
   9   3  23     5.39     0.09
   9   3  24     0.15     0.02
   9   3  25     1.55     0.06
   9   3  26     0.02     0.03
   9   3  27     9.79     0.27
   9   4   9     2.86     0.03
   9   4  10     0.19     0.03
   9   4  11     0.91     0.03
   9   4  12     0.58     0.02
   9   4  13     1.55     0.06
   9   4  14     0.16     0.02
   9   4  15     1.58     0.07
   9   4  16     0.46     0.03
   9   4  17     0.10     0.03
   9   4  18     0.76     0.03
   9   4  19     1.76     0.05
   9   4  20     0.07     0.03
   9   4  21     2.78     0.07
   9   4  22     0.12     0.02
   9   4  23     6.70     0.10
   9   4  24     0.71     0.03
   9   4  25     1.64     0.04
   9   4  26     0.33     0.02
   9   5   9    11.86     0.10
   9   5  10     1.08     0.03
   9   5  11     1.54     0.03
   9   5  12     1.51     0.03
   9   5  13     2.60     0.07
   9   5  14     0.64     0.02
   9   5  15     0.02     0.02
   9   5  16     0.27     0.03
   9   5  17    11.60     0.17
   9   5  18     0.48     0.03
   9   5  19     2.25     0.03
   9   5  20     0.17     0.03
   9   5  21     2.82     0.04
   9   5  22     0.46     0.02
   9   5  23     4.43     0.11
   9   5  24     0.20     0.02
   9   5  25     1.53     0.06
   9   6   9     0.73     0.03
   9   6  10     0.07     0.02
   9   6  11     0.81     0.03
   9   6  12     0.62     0.03
   9   6  13     0.73     0.03
   9   6  14     0.24     0.02
   9   6  15     0.49     0.02
   9   6  16     0.48     0.02
   9   6  17     0.42     0.02
   9   6  18     0.90     0.04
   9   6  19     0.86     0.04
   9   6  20     0.00     0.02
   9   6  21     1.53     0.03
   9   6  22     0.12     0.02
   9   7   9     6.64     0.07
   9   7  10     0.77     0.02
   9   7  11     1.12     0.03
   9   7  12     1.06     0.02
   9   7  13     1.79     0.04
   9   7  14     0.43     0.02
   9   7  15     0.04     0.01
   9   7  16     0.30     0.02
   9   7  17     7.18     0.08
   9   7  18     0.45     0.02
   9   7  19     0.92     0.03
   9   8   9     0.12     0.02
   9   8  10     0.01     0.01
   9   8  11     0.42     0.02
   9   8  12     0.58     0.03
   9   8  13     0.22     0.02
   9   8  14     0.29     0.02
   9   8  15     0.02     0.01
   9   9   9     3.60     0.05
  10   0  10     0.63     0.03
  10   0  12     2.83     0.05
  10   0  14     5.87     0.10
  10   0  16     4.04     0.06
  10   0  18     2.27     0.09
  10   0  20     9.04     0.13
  10   0  22     0.11     0.04
  10   0  24     2.64     0.12
  10   1  10     0.05     0.01
  10   1  11     0.00     0.01
  10   1  12     9.39     0.09
  10   1  13     0.01     0.01
  10   1  14     2.40     0.03
  10   1  15     0.00     0.02
  10   1  16     2.62     0.04
  10   1  17     0.13     0.03
  10   1  18     4.69     0.09
  10   1  19     0.13     0.03
  10   1  20     3.54     0.08
  10   1  21     0.02     0.03
  10   1  22     0.00     0.05
  10   1  23     0.00     0.03
  10   1  24     0.66     0.07
  10   1  25     0.05     0.06
  10   2  10     0.63     0.03
  10   2  11     0.03     0.02
  10   2  12     2.84     0.06
  10   2  13     0.13     0.02
  10   2  14     4.96     0.07
  10   2  15     0.11     0.03
  10   2  16     3.56     0.06
  10   2  17     0.28     0.03
  10   2  18     1.95     0.05
  10   2  19     0.23     0.02
  10   2  20     7.26     0.10
  10   2  21     0.08     0.03
  10   2  22     0.27     0.05
  10   2  23     0.02     0.02
  10   2  24     1.81     0.05
  10   2  25     0.02     0.04
  10   3  10     0.37     0.04
  10   3  11     0.27     0.02
  10   3  12     5.47     0.06
  10   3  13     0.20     0.03
  10   3  14     1.16     0.04
  10   3  15     0.07     0.06
  10   3  16     2.82     0.05
  10   3  17     0.56     0.04
  10   3  18     3.77     0.07
  10   3  19     0.46     0.03
  10   3  20     2.85     0.06
  10   3  21     0.06     0.03
  10   3  22     0.05     0.02
  10   3  23     0.00     0.02
  10   3  24     0.35     0.02
  10   4  10     0.31     0.03
  10   4  11     0.22     0.02
  10   4  12     2.31     0.05
  10   4  13     0.37     0.04
  10   4  14     2.95     0.04
  10   4  15     0.12     0.03
  10   4  16     2.11     0.03
  10   4  17     0.55     0.05
  10   4  18     1.49     0.04
  10   4  19     0.40     0.02
  10   4  20     4.50     0.06
  10   4  21     0.04     0.02
  10   4  22     0.59     0.02
  10   5  10     0.72     0.04
  10   5  11     0.70     0.04
  10   5  12     2.63     0.04
  10   5  13     0.56     0.02
  10   5  14     0.61     0.02
  10   5  15     0.14     0.02
  10   5  16     1.98     0.04
  10   5  17     0.63     0.04
  10   5  18     3.22     0.05
  10   5  19     0.67     0.02
  10   5  20     1.40     0.03
  10   6  10     0.04     0.07
  10   6  11     0.29     0.02
  10   6  12     1.34     0.03
  10   6  13     0.41     0.03
  10   6  14     1.31     0.03
  10   6  15     0.06     0.02
  10   6  16     0.80     0.03
  10   6  17     0.43     0.02
  10   6  18     1.25     0.05
  10   7  10     0.82     0.04
  10   7  11     0.52     0.02
  10   7  12     1.10     0.04
  10   7  13     0.40     0.02
  10   7  14     0.35     0.02
  11   0  11     0.18     0.06
  11   0  13     2.30     0.06
  11   0  15     0.26     0.07
  11   0  17     1.73     0.08
  11   0  19     0.60     0.07
  11   0  21     0.26     0.03
  11   1  11     4.62     0.09
  11   1  12     0.02     0.03
  11   1  13     3.45     0.09
  11   1  14     0.04     0.06
  11   1  15     1.90     0.12
  11   1  16     0.01     0.04
  11   1  17     0.05     0.06
  11   1  18     0.05     0.04
  11   1  19     0.36     0.02
  11   1  20     0.04     0.02
  11   1  21     2.27     0.05
  11   2  11     0.16     0.05
  11   2  12     0.24     0.05
  11   2  13     2.23     0.04
  11   2  14     0.28     0.05
  11   2  15     0.26     0.02
  11   2  16     0.10     0.11
  11   2  17     1.53     0.04
  11   2  18     0.00     0.02
  11   2  19     0.64     0.02
  11   2  20     0.02     0.01
  11   3  11     2.84     0.10
  11   3  12     0.23     0.05
  11   3  13     3.49     0.05
  11   3  14     0.29     0.02
  11   3  15     1.64     0.04
  11   3  16     0.05     0.04
  11   3  17     0.01     0.01
  11   3  18     0.23     0.02
  11   3  19     0.22     0.02
  11   4  11     0.13     0.04
  11   4  12     0.62     0.03
  11   4  13     1.96     0.04
  11   4  14     0.59     0.03
  11   4  15     0.05     0.02
  11   4  16     0.02     0.02
  11   4  17     0.90     0.03
  11   5  11     1.52     0.04
  11   5  12     0.44     0.05
  11   5  13     2.48     0.04
  11   5  14     0.70     0.03
  12   0  12     0.22     0.02
  12   0  14     0.00     0.05
  12   1  12     3.81     0.06
  12   1  13     0.01     0.02
  12   1  14     1.66     0.04
  12   2  12     0.17     0.02
  12   2  13     0.16     0.02
  12   3  12     2.36     0.06
  }
  }
  REVERT
;
loop_
_symmetry_equiv_pos_as_xyz
'+x, +y, +z'
'-x, -y, -z'
'-x+1/2, +y+1/2, -z+1/2'
'+x+1/2, -y+1/2, +z+1/2'
loop_
_atom_site_label
_atom_site_fract_x
_atom_site_fract_y
_atom_site_fract_z
_atom_site_U_iso_or_equiv
_atom_site_adp_type
_atom_site_occupancy
_atom_site_disorder_group
O2 0.450372(18) 0.755490(18) 0.569606(6) 0.00876(4) Uani 1 0
O1 0.365862(18) 0.749276(18) 0.442438(6) 0.00890(4) Uani 1 0
O6 0.692400(19) 0.787816(19) 0.190901(6) 0.00932(4) Uani 1 0
O3 0.55856(2) 0.73020(2) 0.343314(6) 0.01095(4) Uani 1 0
O4 0.75649(2) 0.74980(2) 0.641308(6) 0.01246(4) Uani 1 0
O5 1.09208(2) 0.73566(2) 0.279314(7) 0.01592(5) Uani 1 0
C4 0.66818(2) 0.75280(2) 0.580781(7) 0.00782(4) Uani 1 0
C2 0.78123(2) 0.74984(2) 0.448727(8) 0.00928(5) Uani 1 0
C1 0.55707(2) 0.74269(2) 0.408846(8) 0.00774(4) Uani 1 0
C3 0.82656(2) 0.75334(2) 0.519176(8) 0.00905(4) Uani 1 0
Li1 0.78599(6) 0.61579(5) 0.277730(18) 0.01287(13) Uani 1 0
H3 1.0073(6) 0.7569(5) 0.5359(2) 0.03576206 Uani 1 0
H6 0.7917(8) 0.7630(6) 0.1514(2) 0.03237118 Uani 1 0
H7 0.5354(8) 0.7630(7) 0.1725(3) 0.03168378 Uani 1 0
H2 0.9275(6) 0.7505(5) 0.4123(2) 0.0344224 Uani 1 0
H5 1.1493(9) 0.7497(7) 0.2316(2) 0.0383628 Uani 1 0
H4 1.2292(8) 0.7276(7) 0.3089(3) 0.0429472 Uani 1 0
H1 0.3964(8) 0.7539(6) 0.5005(3) 0.0287944 Uani 1 0
loop_
_atom_site_aniso_label
_atom_site_aniso_U_11
_atom_site_aniso_U_22
_atom_site_aniso_U_33
_atom_site_aniso_U_23
_atom_site_aniso_U_13
_atom_site_aniso_U_12
O2 0.00642(3) 0.01261(4) 0.00729(4) 0.00039(3) 0.00089(3) 0.00018(3)
O1 0.00634(3) 0.01258(4) 0.00780(4) -0.00035(3) 0.00025(3) 0.00028(3)
O6 0.00789(4) 0.01273(4) 0.00736(4) 0.00023(3) 0.00042(3) -0.00011(3)
O3 0.01003(4) 0.01625(5) 0.00660(4) -0.00072(3) 0.00044(3) 0.00132(3)
O4 0.00896(4) 0.02119(5) 0.00720(4) -0.00005(4) -0.00087(3) 0.00073(4)
O5 0.00985(4) 0.02694(7) 0.01094(5) 0.00159(4) -0.00029(4) -0.00349(4)
C4 0.00654(4) 0.01015(4) 0.00676(4) 0.00009(4) 0.00010(3) 0.00022(4)
C2 0.00633(4) 0.01400(5) 0.00754(5) -0.00020(4) 0.00090(3) 0.00003(4)
C1 0.00701(4) 0.00971(4) 0.00651(4) -0.00019(4) 0.00033(3) 0.00048(4)
C3 0.00591(4) 0.01357(5) 0.00766(5) -0.00005(4) 0.00033(3) -0.00005(4)
Li1 0.01213(13) 0.01533(13) 0.01122(13) 0.00181(10) 0.00166(10) 0.00083(10)
H3 0.015931 0.060484 0.030826 0.000065 -0.000459 -0.001302
H6 0.023749 0.045718 0.027737 0.000172 0.002571 0.001675
H7 0.014808 0.047871 0.03224 0.000065 -0.002368 -0.004381
H2 0.017084 0.060502 0.025765 0.000101 0.002324 -0.004394
H5 0.030547 0.060655 0.023941 -0.000453 0.001817 -0.000876
H4 0.022906 0.072072 0.033686 -0.000085 -0.003255 -0.003157
H1 0.024295 0.034711 0.027359 0.000027 0.00019 -0.001327
loop_
_atom_type_symbol
_atom_type_description
_atom_type_scat_dispersion_real
_atom_type_scat_dispersion_imag
_atom_type_scat_source
C C 0 0 'Hirshfeld partitioning of a quantum chemical wavefunction.'
H H 0 0 'Hirshfeld partitioning of a quantum chemical wavefunction.'
Li Li 0 0 'Hirshfeld partitioning of a quantum chemical wavefunction.'
O O 0 0 'Hirshfeld partitioning of a quantum chemical wavefunction.'
loop_
_geom_angle_atom_site_label_1
_geom_angle_atom_site_label_2
_geom_angle_atom_site_label_3
_geom_angle
_geom_angle_site_symmetry_1
_geom_angle_site_symmetry_2
_geom_angle_site_symmetry_3
_geom_angle_publ_flag
O2 C4 O4 122.703(14) . . . yes
O1 C1 O3 120.941(13) . . . yes
O2 C4 C3 119.963(12) . . . yes
O1 C1 C2 120.584(13) . . . yes
O3 C1 C2 118.474(13) . . . yes
O4 C4 C3 117.333(12) . . . yes
O6 Li1 O3 99.253(15) . . . yes
O6 Li1 O5 93.416(15) . . . yes
O3 Li1 O5 120.343(18) . . . yes
C1 O3 Li1 132.140(14) . . . yes
C1 O1 H1 111.2(3) . . . yes
C4 C3 C2 130.566(13) . . . yes
C1 C2 C3 130.187(13) . . . yes
C4 C3 H3 112.7(2) . . . yes
C2 C3 H3 116.7(2) . . . yes
C1 C2 H2 111.6(2) . . . yes
C3 C2 H2 118.2(2) . . . yes
Li1 O6 H6 113.2(3) . . . yes
Li1 O6 H7 116.5(3) . . . yes
Li1 O5 H5 110.9(3) . . . yes
Li1 O5 H4 138.4(3) . . . yes
H6 O6 H7 106.1(4) . . . yes
H5 O5 H4 103.9(4) . . . yes
loop_
_geom_bond_atom_site_label_1
_geom_bond_atom_site_label_2
_geom_bond_distance
_geom_bond_site_symmetry_1
_geom_bond_site_symmetry_2
_geom_bond_publ_flag
O2 C4 1.28312(17) . . yes
O1 C1 1.29465(18) . . yes
O3 C1 1.23393(18) . . yes
O4 C4 1.23802(17) . . yes
O6 Li1 1.9913(3) . . yes
O3 Li1 1.9534(3) . . yes
O5 Li1 1.9220(4) . . yes
O1 H1 1.101(6) . . yes
O6 H6 0.963(4) . . yes
O6 H7 0.982(4) . . yes
O5 H5 0.967(5) . . yes
O5 H4 0.965(4) . . yes
C4 C3 1.4975(2) . . yes
C2 C1 1.49279(19) . . yes
C2 C3 1.3443(2) . . yes
C2 H2 1.106(4) . . yes
C3 H3 1.093(4) . . yes
