#------------------------------------------------------------------------------
#$Date: 2020-06-16 04:24:09 +0300 (Tue, 16 Jun 2020) $
#$Revision: 253165 $
#$URL: file:///home/coder/svn-repositories/cod/cif/7/24/07/7240725.cif $
#------------------------------------------------------------------------------
#
# This file is available in the Crystallography Open Database (COD),
# http://www.crystallography.net/
#
# All data on this site have been placed in the public domain by the
# contributors.
#
data_7240725
loop_
_publ_author_name
'Malaspina, Lorraine Andrade'
'Hoser, Anna A.'
'Edwards, Alison'
'Woinska, Magdalena'
'Turner, Michael J.'
'Price, Jason R.'
'Sugimoto, Kunihisa'
'Nishibori, Eiji'
'Burgi, Hans-Beat'
'Jayatilaka, Dylan'
'Grabowsky, Simon'
_publ_section_title
;
 Hydrogen atoms in bridging positions from quantum crystallographic
 refinements: Influence of hydrogen atom displacement parameters on
 geometry and electron density
;
_journal_name_full               CrystEngComm
_journal_paper_doi               10.1039/D0CE00378F
_journal_year                    2020
_chemical_formula_moiety         'C4 H3 O4, Na, 3(H2 O)'
_chemical_formula_sum            'C4 H9 Na O7'
_chemical_formula_weight         192.1019
_chemical_name_common            'Sodium hydrogen maleate trihydrate'
_space_group_IT_number           2
_space_group_name_Hall           '-P 1'
_space_group_name_H-M_alt        'P -1'
_symmetry_cell_setting           triclinic
_symmetry_Int_Tables_number      2
_symmetry_space_group_name_Hall  '-P 1'
_symmetry_space_group_name_H-M   'P -1'
_atom_sites_solution_hydrogens   difmap
_atom_sites_solution_primary     dual
_audit_creation_date             2019-05-02T13:25:16-00:00
_audit_creation_method           'WinGX routine CIF_UPDATE'
_audit_update_record
;
2020-03-10 deposited with the CCDC.	2020-06-15 downloaded from the CCDC.
;
_cell_angle_alpha                103.935(7)
_cell_angle_beta                 91.490(6)
_cell_angle_gamma                99.823(7)
_cell_formula_units_Z            2
_cell_length_a                   5.9224(4)
_cell_length_b                   6.2512(3)
_cell_length_c                   11.2141(7)
_cell_measurement_reflns_used    28744
_cell_measurement_temperature    15(2)
_cell_measurement_theta_max      30.3
_cell_measurement_theta_min      0.93
_cell_measurement_wavelength     0.3531
_cell_volume                     396.07(4)
_computing_cell_refinement       'CrystalClear (Rigaku/MSC Inc., 2006)'
_computing_data_collection       'CrystalClear (Rigaku/MSC Inc., 2006)'
_computing_data_reduction
'CrystalClear (Rigaku/MSC Inc., 2006), SORTAV (Blessing, 1995)'
_computing_structure_refinement
'Tonto 18.12.17 github v. 2b3dd9c (Capelli, 2014)'
_computing_structure_solution    'SHELXT-2014 (Sheldrick, 2014)'
_diffrn_ambient_temperature      15(2)
_diffrn_detector                 'SPring-8 BL02B1 Curved Imaging Plate'
_diffrn_detector_area_resol_mean 10
_diffrn_measured_fraction_theta_full 0.997
_diffrn_measured_fraction_theta_max 0.939
_diffrn_measurement_device       'quarter \C-circle diffractometer'
_diffrn_measurement_device_type  IPDSC-Q
_diffrn_measurement_method       'phi or omega oscillation scans'
_diffrn_orient_matrix_UB_11      -0.165287
_diffrn_orient_matrix_UB_12      -0.041103
_diffrn_orient_matrix_UB_13      -0.031242
_diffrn_orient_matrix_UB_21      -0.014255
_diffrn_orient_matrix_UB_22      -0.141509
_diffrn_orient_matrix_UB_23      0.028175
_diffrn_orient_matrix_UB_31      -0.044575
_diffrn_orient_matrix_UB_32      0.079906
_diffrn_orient_matrix_UB_33      0.081935
_diffrn_radiation_monochromator  graphite
_diffrn_radiation_probe          x-ray
_diffrn_radiation_type           synchrotron
_diffrn_radiation_wavelength     0.3531
_diffrn_reflns_av_R_equivalents  0.0175
_diffrn_reflns_av_unetI/netI     0.0094
_diffrn_reflns_Laue_measured_fraction_full 0.997
_diffrn_reflns_Laue_measured_fraction_max 0.939
_diffrn_reflns_limit_h_max       14
_diffrn_reflns_limit_h_min       -14
_diffrn_reflns_limit_k_max       14
_diffrn_reflns_limit_k_min       -13
_diffrn_reflns_limit_l_max       27
_diffrn_reflns_limit_l_min       -27
_diffrn_reflns_number            70649
_diffrn_reflns_point_group_measured_fraction_full 0.997
_diffrn_reflns_point_group_measured_fraction_max 0.939
_diffrn_reflns_theta_full        12.231
_diffrn_reflns_theta_max         26.191
_diffrn_reflns_theta_min         0.932
_diffrn_source                   SPring-8
_diffrn_standards_number         0
_exptl_absorpt_coefficient_mu    0.051
_exptl_absorpt_correction_type   none
_exptl_crystal_colour            colourless
_exptl_crystal_density_diffrn    1.611
_exptl_crystal_density_method    'not measured'
_exptl_crystal_description       prism
_exptl_crystal_F_000             200
_exptl_crystal_size_max          0.13
_exptl_crystal_size_mid          0.13
_exptl_crystal_size_min          0.07
_refine_diff_density_max         0.3431
_refine_diff_density_min         -0.4738
_refine_diff_density_rms         0.046
_refine_ls_extinction_method     none
_refine_ls_goodness_of_fit_all   3.8153
_refine_ls_goodness_of_fit_gt    3.8153
_refine_ls_hydrogen_treatment    refxyz
_refine_ls_matrix_type           full
_refine_ls_number_constraints    54
_refine_ls_number_parameters     136
_refine_ls_number_reflns         11037
_refine_ls_number_restraints     0
_refine_ls_R_factor_all          0.0185
_refine_ls_R_factor_gt           0.0185
_refine_ls_shift/su_max          0.0096
_refine_ls_structure_factor_coef F
_refine_ls_weighting_details     w=1/\s(F)
_refine_ls_weighting_scheme      sigma
_refine_ls_wR_factor_all         0.0194
_refine_ls_wR_factor_gt          0.0194
_reflns_Friedel_coverage         0
_reflns_number_gt                11038
_reflns_number_total             12183
_reflns_threshold_expression     'F>0 & F/u(F)>4.0 & |F_calc|>10^-3'
_iucr_refine_instructions_details
;
!!!!!!!!!!!!!!!!!!!!!!!!!!!!!!!!!!!!!!!!!!!!!!!!!!!!!!!!!!!!!!!!!!!!!!!!!!!!!!!
!!!                                                                         !!!
!!!                        This stdin was written with lamaGOET             !!!
!!!                                                                         !!!
!!!                    script written by Lorraine Andrade Malaspina         !!!
!!!                        contact: lorraine.malaspina@gmail.com            !!!
!!!                                                                         !!!
!!!!!!!!!!!!!!!!!!!!!!!!!!!!!!!!!!!!!!!!!!!!!!!!!!!!!!!!!!!!!!!!!!!!!!!!!!!!!!!
{

   name= Na_HAR_neutron

   charge= 0
   multiplicity= 1

   ! Process the CIF
   cif= {
      file_name=  ./new_from_n_neutron_ADPs_omit.cif
   }
   process_cif 

   name= Na_HAR_neutron

   basis_directory= /basis_sets
   basis_name= def2-TZVP


   crystal= {

      xray_data= {
         thermal_smearing_model= hirshfeld
         partition_model= mulliken
         optimise_extinction= false
         correct_dispersion= false
         optimise_scale_factor= true
         wavelength= 0.3531 Angstrom
 	 refine_H_ADPs= false

         REDIRECT ./new_from_n_omit_O.hkl

         f_sigma_cutoff= 4.0
      }
   }

   ! Geometry
   put
  
   ! Normal SCF
   scfdata= {
      initial_density= promolecule 
      kind=            rhf
      use_SC_cluster_charges= FALSE
      convergence= 0.001
      diis= { convergence_tolerance= 0.0002 }
   }

   scf

   ! SC cluster charge SCF
   scfdata= {
      initial_MOs= restricted
      kind=            rhf
      use_SC_cluster_charges= TRUE 
      cluster_radius= 8 angstrom
      defragment= false
      convergence= 0.001
      diis= {
         convergence_tolerance= 0.0002
      }
   }

   refine_hirshfeld_atoms

}
;
_cod_data_source_file            d0ce00378f2.cif
_cod_data_source_block           Na_HAR_neutron
_cod_depositor_comments
;
The following automatic conversions were performed:

data item '_symmetry_cell_setting' value 'Triclinic' was changed to
'triclinic' in accordance with the
/home/data/users/saulius/crontab/automatic-downloads/rss-feeds/RSC/lib/dictionaries/cif_core.dic
dictionary named 'cif_core.dic' version 2.4.2 last updated on
2011-04-26.

Automatic conversion script
Id: cif_fix_values 7556 2019-12-06 15:28:31Z antanas 
;
_cod_original_sg_symbol_Hall     '-p 1'
_cod_original_sg_symbol_H-M      'p -1'
_cod_database_code               7240725
_shelx_estimated_absorpt_t_min   0.993
_shelx_estimated_absorpt_t_max   0.996
_refine_ls_coordinate_system     cartesian
_refine_ls_svd_threshold         0.1E-02
_iucr_refine_reflections_details
;
reflection_data= {
   keys= { h= k= l= i_exp= i_sigma= }
      data= {
 -14  -2   1    417.14     38.91
 -14  -2   2    301.42     59.28
 -14  -2   3   2229.20     44.54
 -14  -2   4    321.22     38.86
 -14  -2   5    149.86     38.35
 -14  -2   6     59.65     47.22
 -14  -1   1   2263.94     43.17
 -14  -1   2    779.60     39.51
 -14  -1   3   3905.03     48.02
 -14  -1   4    736.08     39.99
 -14  -1   5    135.64     37.80
 -14  -1   6   1789.38     59.09
 -14  -1   7    878.50     40.22
 -14  -1   8   1899.35     43.86
 -14   0   1    212.94     36.63
 -14   0   2   4430.26     48.01
 -14   0   3   1338.20     45.68
 -14   0   4    230.51     37.56
 -14   0   5   1927.39     42.28
 -14   0   6    727.51     58.70
 -14   0   7   3470.03     47.31
 -14   0   8     73.42     37.77
 -14   0   9     45.16     29.93
 -14   1   1    646.22     37.88
 -14   1   2   3050.38     62.34
 -14   1   3   1507.11     54.69
 -14   1   4      0.00     35.98
 -14   1   5   3344.03     56.42
 -14   1   6     60.19     43.06
 -14   1   7   5424.45     51.36
 -14   1   8    141.67     26.22
 -14   1   9    895.51     27.77
 -14   2   1   7597.10     84.35
 -14   2   2   1237.14     38.89
 -14   2   3      6.05     39.30
 -14   2   4     89.28     46.01
 -14   2   5    272.31     35.82
 -14   2   6    262.25     39.84
 -14   2   7    199.14     32.43
 -14   2   8      0.00     25.21
 -14   2   9     51.88     25.31
 -14   3   1   1415.74     38.40
 -14   3   2   4891.84     67.52
 -14   3   3    366.27     35.00
 -14   3   4    537.03     35.96
 -14   3   5   1422.78     42.40
 -14   3   6   2136.20     40.73
 -14   3   7    361.77     32.06
 -14   3   8    791.92     26.69
 -14   3   9   4022.70     41.16
 -14   4   1   5763.49    127.84
 -14   4   2    145.38     33.79
 -14   4   3    168.01     52.13
 -14   4   4   1384.15     37.80
 -14   4   5    182.78     33.92
 -14   4   6     67.25     32.85
 -14   4   7   1076.76     26.58
 -14   4   8    676.36     30.16
 -14   5   1   5554.14     73.80
 -14   5   2    210.02     33.21
 -14   5   3    166.21     33.08
 -14   5   4   1519.73     44.54
 -14   5   5   1901.33     48.14
 -14   5   6    396.36     30.91
 -14   5   7     20.77     23.90
 -14   6   1   4164.18    155.65
 -14   6   2   3298.54    137.76
 -14   6   3   3308.25     99.50
 -14   6   4     12.87     32.04
 -14   6   5     31.82     31.61
 -14   7   1      0.00     31.43
 -14   7   2     56.21     31.12
 -13  -5   3    179.85     39.26
 -13  -5   4   2797.52     46.39
 -13  -5   5    692.11     41.07
 -13  -4   1   6153.35    102.79
 -13  -4   2    480.28     50.43
 -13  -4   3   1108.54     41.25
 -13  -4   4     33.94     38.06
 -13  -4   5    454.89     45.69
 -13  -4   6    825.41     40.47
 -13  -4   7     76.67     38.69
 -13  -4   8    955.32     41.41
 -13  -4   9    571.34     40.20
 -13  -4  10     21.42     31.71
 -13  -3   1    965.25     40.32
 -13  -3   2    382.31     37.78
 -13  -3   3    692.21     42.48
 -13  -3   4   4366.34     62.93
 -13  -3   5    246.02     37.90
 -13  -3   6    767.29     39.52
 -13  -3   7   1614.07     42.36
 -13  -3   8   1013.39     40.86
 -13  -3   9    200.06     38.29
 -13  -3  10    722.37     27.82
 -13  -3  11   3978.13     48.57
 -13  -3  12    940.78     29.13
 -13  -2   1   2982.18     43.90
 -13  -2   2   1099.40     39.11
 -13  -2   3     54.37     48.53
 -13  -2   4     61.90     36.29
 -13  -2   5   1000.17     39.72
 -13  -2   6   1332.89     40.30
 -13  -2   7     54.30     49.11
 -13  -2   8   5764.09     52.09
 -13  -2   9   1408.65     42.52
 -13  -2  10   1529.67     51.45
 -13  -2  11     28.74     35.84
 -13  -2  12    756.15     29.49
 -13  -2  13    167.78     27.10
 -13  -1   1    165.45     35.90
 -13  -1   2    520.07     56.83
 -13  -1   3   9500.98     57.34
 -13  -1   4    225.16     36.44
 -13  -1   5    700.11     39.76
 -13  -1   6    759.10     40.23
 -13  -1   7     48.93     35.67
 -13  -1   8     32.71     36.17
 -13  -1   9    300.29     30.79
 -13  -1  10   8146.50     93.83
 -13  -1  11    290.37     28.14
 -13  -1  12    135.81     26.61
 -13  -1  13   1867.94     32.87
 -13   0   1   4958.13     47.35
 -13   0   2   1088.93     37.92
 -13   0   3   1457.52     38.68
 -13   0   4   3624.90     55.69
 -13   0   5    242.76     35.42
 -13   0   6    763.30     37.04
 -13   0   7   1122.10     31.65
 -13   0   8    524.96     25.80
 -13   0   9     80.21     25.06
 -13   0  10    165.06     25.46
 -13   0  11    223.71     26.14
 -13   0  12   1438.24     28.71
 -13   0  13     36.92     30.83
 -13   0  14     24.80     33.44
 -13   1   1    102.52     34.32
 -13   1   2   3079.34     41.93
 -13   1   3    654.95     35.40
 -13   1   4    408.12     38.69
 -13   1   5     88.31     34.36
 -13   1   6   1389.59     38.09
 -13   1   7    955.22     32.80
 -13   1   8     57.13     26.87
 -13   1   9   9715.24     86.63
 -13   1  10    485.31     25.86
 -13   1  11     15.03     25.17
 -13   1  12   2476.16     50.70
 -13   1  13    747.05     29.40
 -13   1  14   1003.81     31.86
 -13   2   1    356.12     38.98
 -13   2   2     54.08     32.53
 -13   2   3    268.45     33.36
 -13   2   4   1208.49     36.31
 -13   2   5   1022.91     51.11
 -13   2   6    435.77     28.53
 -13   2   7   1239.92     40.23
 -13   2   8    252.78     24.64
 -13   2   9    916.19     27.88
 -13   2  10   1370.37     41.08
 -13   2  11   5872.64     67.68
 -13   2  12    584.43     26.20
 -13   2  13      0.00     29.15
 -13   3   1   1343.21     36.01
 -13   3   2    354.87     41.72
 -13   3   3    423.88     33.30
 -13   3   4   2490.64     40.91
 -13   3   5   3881.80     55.50
 -13   3   6   1072.43     27.54
 -13   3   7     40.61     25.36
 -13   3   8   7197.77     71.15
 -13   3   9   1911.32     29.77
 -13   3  10     24.76     24.55
 -13   3  11   2956.41     47.34
 -13   3  12     29.64     26.69
 -13   3  13   2931.52     47.23
 -13   4   1     14.58     31.20
 -13   4   2    519.14     38.60
 -13   4   3     24.52     35.44
 -13   4   4   5513.87    119.32
 -13   4   5    453.19     29.57
 -13   4   6   4707.47     92.96
 -13   4   7     45.94     24.68
 -13   4   8     18.18     24.44
 -13   4   9     33.38     23.43
 -13   4  10    563.66     25.02
 -13   4  11    616.07     26.69
 -13   4  12    209.42     28.39
 -13   5   1    693.32     32.82
 -13   5   2    161.32     30.50
 -13   5   3    431.20     61.14
 -13   5   4    585.17     32.21
 -13   5   5     41.73     25.29
 -13   5   6     61.91     22.32
 -13   5   7   1500.74     25.97
 -13   5   8   7602.56     93.07
 -13   5   9    223.86     23.67
 -13   5  10   1426.55     28.42
 -13   5  11     38.35     23.70
 -13   6   1    305.35     30.54
 -13   6   2    911.42     32.52
 -13   6   3    832.61     42.42
 -13   6   4    472.44     33.57
 -13   6   5    596.45     32.05
 -13   6   6    679.21     23.54
 -13   6   7     44.61     21.96
 -13   6   8    313.59     26.08
 -13   6   9     77.14     23.05
 -13   6  10    319.57     23.64
 -13   7   1     71.42     34.84
 -13   7   2    277.01     33.34
 -13   7   3     43.67     24.12
 -13   7   4     40.17     24.05
 -13   7   5    104.09     21.45
 -13   7   6     18.14     21.83
 -13   7   7   9693.17    108.91
 -13   7   8     44.24     24.00
 -13   8   1    408.30     35.51
 -13   8   2    382.97     29.78
 -13   8   3    453.55     28.01
 -13   8   4    854.86     48.91
 -13   8   5      0.28     20.85
 -13   8   6   1399.56     24.97
 -13   9   1   2059.56     29.96
 -13   9   2    313.29     24.31
 -13   9   3      3.34     21.76
 -12  -6   1    529.14     44.21
 -12  -6   2   1941.72     53.54
 -12  -6   3   1486.29     41.68
 -12  -6   4   1655.95     42.41
 -12  -6   5      0.00     37.70
 -12  -6   6     51.89     38.33
 -12  -6   7     78.94     38.28
 -12  -6   8   1302.89     51.03
 -12  -6   9    742.14     48.27
 -12  -6  10      0.00     31.41
 -12  -6  11    385.74     32.61
 -12  -5   1     22.83     36.12
 -12  -5   2    169.73     36.90
 -12  -5   3    125.72     36.56
 -12  -5   4    609.82     38.05
 -12  -5   5    544.02     38.52
 -12  -5   6    129.29     54.65
 -12  -5   7   1468.75     43.71
 -12  -5   8    608.14     39.11
 -12  -5   9     77.53     38.00
 -12  -5  10   4430.03     93.62
 -12  -5  11   4168.63     60.05
 -12  -5  12     67.95     26.80
 -12  -5  13    239.25     29.50
 -12  -4   1   5506.70     49.60
 -12  -4   2   2423.91     56.89
 -12  -4   3   2030.63     41.60
 -12  -4   4     39.79     36.03
 -12  -4   5    286.43     36.79
 -12  -4   6      1.21     36.37
 -12  -4   7   1990.84     42.40
 -12  -4   8   1981.30     63.25
 -12  -4   9    265.53     27.94
 -12  -4  10   2380.06     55.08
 -12  -4  11    383.26     28.45
 -12  -4  12     26.09     26.24
 -12  -4  13   9003.97     91.24
 -12  -4  14   1398.52     51.89
 -12  -3   1    440.03     35.93
 -12  -3   2    220.47     35.17
 -12  -3   3    734.30     36.71
 -12  -3   4   7701.86     53.62
 -12  -3   5   1178.60     39.09
 -12  -3   6   4423.02     47.09
 -12  -3   7    258.38     74.21
 -12  -3   8    276.39     32.82
 -12  -3   9   1550.07     32.76
 -12  -3  10    184.84     25.57
 -12  -3  11   2190.13     29.76
 -12  -3  12    201.54     26.28
 -12  -3  13     20.40     28.31
 -12  -3  14    830.60     30.55
 -12  -3  15   1223.53     40.83
 -12  -2   1   4541.87     54.48
 -12  -2   2   1363.10     37.72
 -12  -2   3     43.51     34.11
 -12  -2   4    202.00     35.06
 -12  -2   5    201.25     34.97
 -12  -2   6   6167.18     49.70
 -12  -2   7    426.76     36.26
 -12  -2   8   1021.09     28.44
 -12  -2   9    143.77     24.76
 -12  -2  10    612.38     25.86
 -12  -2  11    440.71     27.47
 -12  -2  12   6984.97    109.40
 -12  -2  13   3480.58     44.50
 -12  -2  14     45.11     26.35
 -12  -2  15     77.39     28.21
 -12  -2  16    210.69     27.21
 -12  -1   1    106.88     33.24
 -12  -1   2      0.00     32.91
 -12  -1   3   1548.27     37.13
 -12  -1   4   1109.94     36.82
 -12  -1   5    104.22     34.04
 -12  -1   6   1643.27     38.57
 -12  -1   7    749.46     31.82
 -12  -1   8    205.26     24.39
 -12  -1   9    349.62     24.81
 -12  -1  10   1824.54     41.73
 -12  -1  11   2986.82     46.73
 -12  -1  12   1862.64     31.21
 -12  -1  13   3742.42     49.51
 -12  -1  14   1592.57     31.64
 -12  -1  15   1940.97     36.96
 -12  -1  16    716.62     31.97
 -12   0   1    252.92     33.35
 -12   0   2   4324.15     43.29
 -12   0   3    643.58     33.92
 -12   0   4     64.99     36.83
 -12   0   5   5526.28     46.65
 -12   0   6    831.37     35.66
 -12   0   7   1699.44     26.60
 -12   0   8    126.07     23.69
 -12   0   9    931.98     25.74
 -12   0  10     17.62     23.89
 -12   0  11  11404.32     91.66
 -12   0  12   1616.84     27.92
 -12   0  13   3198.89     43.48
 -12   0  14   2128.94     42.20
 -12   0  15   1650.28     29.26
 -12   0  16    109.14     28.49
 -12   0  17    632.20     36.26
 -12   1   1     31.45     31.44
 -12   1   2    275.38     32.31
 -12   1   3   2956.62     52.42
 -12   1   4    595.20     44.85
 -12   1   5     82.42     32.47
 -12   1   6   8860.73    126.07
 -12   1   7   1547.80     41.07
 -12   1   8   3312.29     31.08
 -12   1   9   2444.92     31.52
 -12   1  10   2383.94     33.15
 -12   1  11    192.12     24.25
 -12   1  12    426.01     25.98
 -12   1  13     38.97     24.70
 -12   1  14   2314.78     29.92
 -12   1  15   3103.05     31.83
 -12   1  16    158.59     30.82
 -12   2   1   8832.11    109.07
 -12   2   2    635.14     33.06
 -12   2   3    325.62     31.85
 -12   2   4   5185.19     98.26
 -12   2   5   1291.26     35.20
 -12   2   6   2841.60     47.19
 -12   2   7     72.02     24.05
 -12   2   8   4552.27     57.35
 -12   2   9   1141.26     27.23
 -12   2  10   3527.91     32.45
 -12   2  11   8564.52     78.13
 -12   2  12    680.45     25.85
 -12   2  13     94.60     25.92
 -12   2  14    100.82     24.91
 -12   2  15      0.00     27.42
 -12   2  16    335.73     33.33
 -12   3   1   2639.68     61.54
 -12   3   2  10220.66    147.58
 -12   3   3     23.50     30.13
 -12   3   4    156.43     30.21
 -12   3   5   2339.77     42.16
 -12   3   6    603.53     22.91
 -12   3   7     29.94     21.91
 -12   3   8     78.91     22.30
 -12   3   9   1774.26     28.02
 -12   3  10    536.09     25.96
 -12   3  11    198.27     23.59
 -12   3  12    345.54     25.56
 -12   3  13    353.44     24.77
 -12   3  14   8714.38     86.87
 -12   3  15    639.76     31.06
 -12   3  16    122.19     39.57
 -12   4   1      5.39     29.05
 -12   4   2    275.05     29.60
 -12   4   3    350.79     29.95
 -12   4   4   8827.99    146.98
 -12   4   5    153.06     25.33
 -12   4   6    544.52     22.51
 -12   4   7   2686.95     48.71
 -12   4   8    162.93     23.38
 -12   4   9   2701.30     32.37
 -12   4  10   9391.52    115.87
 -12   4  11   1219.58     36.28
 -12   4  12    115.66     23.42
 -12   4  13    531.81     26.59
 -12   4  14    696.54     27.52
 -12   4  15    432.93     75.10
 -12   5   1   1274.83     32.07
 -12   5   2   2080.03     41.47
 -12   5   3     16.24     31.74
 -12   5   4    389.17     24.55
 -12   5   5   2372.34     38.90
 -12   5   6     46.30     29.31
 -12   5   7   1274.60     24.25
 -12   5   8    241.76     21.96
 -12   5   9   5610.61     64.19
 -12   5  10   1787.56     28.42
 -12   5  11    639.51     24.03
 -12   5  12    140.23     23.00
 -12   5  13   5557.07     72.09
 -12   5  14    123.57     28.80
 -12   6   1     47.58     27.35
 -12   6   2    550.92     29.13
 -12   6   3  11017.39    115.96
 -12   6   4    112.60     23.58
 -12   6   5    176.82     20.69
 -12   6   6   3480.95     44.29
 -12   6   7     90.26     24.40
 -12   6   8    767.13     24.68
 -12   6   9  12038.76     89.41
 -12   6  10    175.14     22.26
 -12   6  11    612.97     23.71
 -12   6  12    233.87     27.82
 -12   6  13     50.57     25.99
 -12   7   1    165.59     27.44
 -12   7   2   2593.77     85.26
 -12   7   3   2216.15     49.01
 -12   7   4   7029.78    108.40
 -12   7   5    179.51     21.49
 -12   7   6    245.58     20.68
 -12   7   7     18.71     23.17
 -12   7   8    848.05     23.56
 -12   7   9     28.68     22.84
 -12   7  10     18.88     21.20
 -12   7  11     36.56     24.50
 -12   8   1    870.69     29.23
 -12   8   2   5423.99     85.31
 -12   8   3    689.94     28.47
 -12   8   4    387.69     20.26
 -12   8   5    425.05     20.51
 -12   8   6   1960.74     34.96
 -12   8   7   2831.63     49.70
 -12   8   8   4516.71     49.72
 -12   8   9   1371.46     31.80
 -12   8  10    234.85     21.44
 -12   9   1    257.52     24.77
 -12   9   2     42.77     21.20
 -12   9   3    699.74     22.39
 -12   9   4    672.94     22.00
 -12   9   5    331.60     23.09
 -12   9   6    310.90     20.23
 -12   9   7     25.34     19.59
 -12  10   1    200.53     21.42
 -12  10   2   2400.87     47.69
 -12  10   3    238.64     25.28
 -12  10   4      1.60     60.26
 -11  -8   1    438.84     46.01
 -11  -8   2      0.00     36.36
 -11  -8   3   1164.60     58.04
 -11  -8   4     25.04     37.22
 -11  -8   5    346.54     44.56
 -11  -8   6    637.73     39.52
 -11  -8   7    862.01     39.95
 -11  -8   8    460.85     39.12
 -11  -8   9    370.92     60.41
 -11  -7   1    385.30     36.77
 -11  -7   2    198.29     36.54
 -11  -7   3    512.25     40.83
 -11  -7   4   3013.47     44.43
 -11  -7   5    642.99     38.56
 -11  -7   6    649.08     38.75
 -11  -7   7   1026.35     39.95
 -11  -7   8    179.24     37.72
 -11  -7   9      0.00     37.35
 -11  -7  10      0.95     30.16
 -11  -7  11      0.00     30.31
 -11  -7  12   4165.54     82.24
 -11  -7  13   5801.45    142.16
 -11  -6   1     48.63     34.95
 -11  -6   2    131.14     35.44
 -11  -6   3    342.42     36.23
 -11  -6   4    415.86     36.68
 -11  -6   5     33.66     35.83
 -11  -6   6   7122.38     88.97
 -11  -6   7   2585.13     43.43
 -11  -6   8    830.10     47.37
 -11  -6   9    517.33     38.08
 -11  -6  10     46.30     29.77
 -11  -6  11    379.84     25.92
 -11  -6  12      9.99     25.40
 -11  -6  13   2207.11     46.87
 -11  -6  14     21.81     26.21
 -11  -6  15    296.26     29.64
 -11  -5   1    218.80     34.17
 -11  -5   2    342.77     34.95
 -11  -5   3   4429.88     54.49
 -11  -5   4   2894.18     42.56
 -11  -5   5   2306.08     41.12
 -11  -5   6     21.52     35.29
 -11  -5   7   4384.20     54.45
 -11  -5   8   1711.99     49.15
 -11  -5   9   1319.25     34.32
 -11  -5  10   1137.84     31.77
 -11  -5  11   1635.50     28.11
 -11  -5  12    627.65     26.62
 -11  -5  13   4093.59     43.88
 -11  -5  14    411.20     26.71
 -11  -5  15     39.79     26.57
 -11  -5  16      0.00     26.83
 -11  -5  17    676.60     28.51
 -11  -4   1   1998.80     39.04
 -11  -4   2   3240.31     46.15
 -11  -4   3   1155.31     42.66
 -11  -4   4      0.00     38.56
 -11  -4   5   5092.31     46.74
 -11  -4   6      0.00     34.28
 -11  -4   7    196.39     35.70
 -11  -4   8    926.30     29.84
 -11  -4   9   1370.61     28.65
 -11  -4  10    688.41     25.44
 -11  -4  11   1122.78     39.08
 -11  -4  12   1289.83     29.80
 -11  -4  13    159.32     25.73
 -11  -4  14     62.58     25.84
 -11  -4  15   6772.29     75.53
 -11  -4  16    321.48     27.13
 -11  -4  17    318.97     35.66
 -11  -4  18    956.06     33.85
 -11  -3   1    143.01     33.15
 -11  -3   2  12596.58    102.15
 -11  -3   3    660.13     34.75
 -11  -3   4    157.79     36.06
 -11  -3   5   3056.35     41.18
 -11  -3   6    682.54     35.06
 -11  -3   7    124.75     33.81
 -11  -3   8      9.01     34.42
 -11  -3   9    349.37     24.07
 -11  -3  10   1919.84     35.95
 -11  -3  11     45.76     26.42
 -11  -3  12   4604.03     60.95
 -11  -3  13   4017.67     53.16
 -11  -3  14   1665.26     48.35
 -11  -3  15   2523.87     41.96
 -11  -3  16   3819.74     60.23
 -11  -3  17     90.88     28.95
 -11  -3  18     89.70     31.43
 -11  -2   1     33.21     31.49
 -11  -2   2     29.12     31.55
 -11  -2   3      0.00     31.70
 -11  -2   4   1370.33     40.81
 -11  -2   5   2833.02     39.97
 -11  -2   6    778.97     40.74
 -11  -2   7      0.00     44.48
 -11  -2   8   8015.48     98.27
 -11  -2   9   3809.56     66.56
 -11  -2  10   1717.00     32.19
 -11  -2  11   1807.25     27.59
 -11  -2  12    522.78     25.42
 -11  -2  13     17.10     24.77
 -11  -2  14   7841.94     70.21
 -11  -2  15    578.67     26.68
 -11  -2  16   1736.02     34.80
 -11  -2  17     39.33     31.24
 -11  -2  18    547.20     54.04
 -11  -2  19   3240.75     42.96
 -11  -1   1   9073.11    113.95
 -11  -1   2   2927.00     38.91
 -11  -1   3    383.51     32.28
 -11  -1   4   3175.48     39.71
 -11  -1   5   1129.21     34.81
 -11  -1   6     36.34     31.77
 -11  -1   7   1533.81     36.38
 -11  -1   8   4180.44     50.96
 -11  -1   9    113.44     23.01
 -11  -1  10   5132.37     65.35
 -11  -1  11  11190.46     86.08
 -11  -1  12   2290.42     28.63
 -11  -1  13     31.95     24.31
 -11  -1  14     71.47     26.55
 -11  -1  15     97.82     25.40
 -11  -1  16    962.27     44.53
 -11  -1  17     74.21     30.72
 -11  -1  18   1707.15     58.34
 -11  -1  19   1368.93     33.97
 -11   0   1   2162.55     41.19
 -11   0   2   4493.90     41.26
 -11   0   3   1182.93     40.23
 -11   0   4  11981.05     55.71
 -11   0   5   1270.84     50.76
 -11   0   6    125.60     56.16
 -11   0   7   6121.74     58.10
 -11   0   8    493.55     23.10
 -11   0   9     13.96     24.09
 -11   0  10   2483.78     34.83
 -11   0  11   4338.49     51.79
 -11   0  12   1333.20     28.27
 -11   0  13   1589.41     27.19
 -11   0  14   4325.49     45.19
 -11   0  15   1165.39     27.18
 -11   0  16    108.03     38.63
 -11   0  17   1044.74     31.43
 -11   0  18   3041.86     76.86
 -11   0  19   1585.85     35.51
 -11   1   1   2734.81     48.35
 -11   1   2   3333.34     72.00
 -11   1   3   7690.04     57.73
 -11   1   4    103.82     30.10
 -11   1   5   3925.33     76.03
 -11   1   6     96.61     30.17
 -11   1   7      7.22     21.30
 -11   1   8   2217.31     27.79
 -11   1   9    844.13     23.68
 -11   1  10   2456.82     60.12
 -11   1  11   6082.71     52.81
 -11   1  12    294.42     23.75
 -11   1  13     88.43     25.23
 -11   1  14     14.32     24.01
 -11   1  15    152.54     26.63
 -11   1  16   1929.17     38.27
 -11   1  17   7125.09     71.28
 -11   1  18     40.19     30.47
 -11   1  19   2274.15     58.01
 -11   2   1    713.73     30.30
 -11   2   2    459.32     29.71
 -11   2   3   2413.46     35.20
 -11   2   4    311.26     29.44
 -11   2   5    240.64     26.23
 -11   2   6    807.36     22.24
 -11   2   7   1699.81     26.83
 -11   2   8   1682.38     24.64
 -11   2   9    985.19     23.62
 -11   2  10  12404.09    154.65
 -11   2  11   2702.86     33.09
 -11   2  12    498.41     23.97
 -11   2  13   4345.65     39.45
 -11   2  14   2319.60     36.91
 -11   2  15     59.45     24.23
 -11   2  16   1897.33     32.61
 -11   2  17   3292.66     54.28
 -11   2  18    871.62     35.83
 -11   3   1     64.97     32.92
 -11   3   2    549.25     29.29
 -11   3   3    755.12     29.83
 -11   3   4   1736.69     44.58
 -11   3   5     50.55     21.32
 -11   3   6     11.17     20.27
 -11   3   7   2182.01     26.95
 -11   3   8   1967.09     26.81
 -11   3   9   3266.81     27.68
 -11   3  10   1031.91     23.88
 -11   3  11   7488.75    110.56
 -11   3  12   3570.85     38.84
 -11   3  13   1800.73     27.05
 -11   3  14    875.56     27.13
 -11   3  15    805.03     29.04
 -11   3  16   1586.22     43.41
 -11   3  17   2141.65     31.73
 -11   3  18    442.72     56.22
 -11   4   1   3395.08     70.67
 -11   4   2    994.32     29.77
 -11   4   3     15.91     26.49
 -11   4   4   2149.29     34.51
 -11   4   5   2183.30     40.45
 -11   4   6   7564.61     97.70
 -11   4   7   2586.01     55.81
 -11   4   8     82.89     22.29
 -11   4   9  12270.66    125.57
 -11   4  10    180.15     21.70
 -11   4  11   1425.44     24.96
 -11   4  12   3509.50     62.34
 -11   4  13    712.69     32.96
 -11   4  14   2827.93     60.42
 -11   4  15     54.07     26.49
 -11   4  16    171.28     26.07
 -11   4  17   2602.34     62.48
 -11   5   1    546.38     27.71
 -11   5   2     88.09     26.09
 -11   5   3   3736.00     65.02
 -11   5   4    264.86     22.60
 -11   5   5   2154.45     27.34
 -11   5   6   7555.49     71.45
 -11   5   7     19.32     19.72
 -11   5   8     54.54     20.09
 -11   5   9   4812.41     58.61
 -11   5  10   1933.53     43.74
 -11   5  11      0.00     24.12
 -11   5  12      9.76     21.53
 -11   5  13     24.55     24.97
 -11   5  14    699.66     30.33
 -11   5  15    120.00     26.98
 -11   5  16   2980.63     55.71
 -11   6   1     22.22     33.61
 -11   6   2    293.11     21.70
 -11   6   3    799.98     34.83
 -11   6   4    188.92     21.71
 -11   6   5   1011.33     24.11
 -11   6   6     82.84     21.09
 -11   6   7     47.56     19.30
 -11   6   8   4116.21     72.01
 -11   6   9   3653.59     64.86
 -11   6  10   3845.79     57.43
 -11   6  11   2281.86     50.64
 -11   6  12     57.27     23.81
 -11   6  13   4934.03     58.57
 -11   6  14      2.47     27.18
 -11   6  15     35.03     32.84
 -11   7   1   2149.27     45.36
 -11   7   2     12.62     22.48
 -11   7   3   2376.76     75.78
 -11   7   4      0.78     19.68
 -11   7   5   1238.26     35.65
 -11   7   6    957.92     32.42
 -11   7   7      9.66     20.39
 -11   7   8   2762.11     44.87
 -11   7   9   1621.59     30.11
 -11   7  10     33.15     21.22
 -11   7  11    140.20     23.22
 -11   7  12    790.85     25.12
 -11   7  13    305.04     22.18
 -11   7  14   1673.25     30.24
 -11   8   1     10.51     19.90
 -11   8   2     66.52     32.43
 -11   8   3    639.84     20.80
 -11   8   4      5.05     17.54
 -11   8   5    104.65     18.90
 -11   8   6    405.85     19.21
 -11   8   7     23.54     18.50
 -11   8   8   9426.42     85.00
 -11   8   9   2303.79     39.31
 -11   8  10   2588.08     55.13
 -11   8  11     22.71     19.84
 -11   8  12   3246.70     51.01
 -11   9   1    233.30     26.63
 -11   9   2   2115.72     54.86
 -11   9   3    166.15     18.06
 -11   9   4   1374.60     32.35
 -11   9   5    124.49     19.52
 -11   9   6   1154.51     35.86
 -11   9   7   4433.38     61.62
 -11   9   8     40.31     22.77
 -11   9   9   1692.31     36.22
 -11   9  10    227.30     30.91
 -11  10   1   2033.86     54.41
 -11  10   2   4138.43     36.82
 -11  10   3    665.78     20.41
 -11  10   4     75.72     26.53
 -11  10   5    102.43     33.12
 -11  10   6     56.57     31.63
 -11  10   7   4002.71     82.97
 -11  10   8     15.70     28.54
 -11  11   1   1635.25     88.98
 -11  11   2     16.98     30.51
 -11  11   3     12.32     29.72
 -11  11   4   1922.07     39.24
 -11  11   5     43.81     26.61
 -10  -9   1     29.96     27.51
 -10  -9   2    323.40     28.41
 -10  -9   3     98.18     35.86
 -10  -9   4   6312.16    137.55
 -10  -9   5    624.06     38.07
 -10  -9   6    382.72     37.65
 -10  -9   7   2819.39     51.53
 -10  -9   8   5142.47     82.16
 -10  -9   9    315.15     39.83
 -10  -9  10   1789.56     48.47
 -10  -9  11    106.89     30.35
 -10  -8   1    465.59     28.15
 -10  -8   2     73.24     29.90
 -10  -8   3      7.38     34.37
 -10  -8   4    282.10     66.35
 -10  -8   5    101.05     35.70
 -10  -8   6    824.05     37.97
 -10  -8   7   2184.62     42.22
 -10  -8   8    359.63     38.66
 -10  -8   9   6379.25     72.39
 -10  -8  10   2331.21     35.16
 -10  -8  11      0.00     33.26
 -10  -8  12   1210.81     31.55
 -10  -8  13   1521.46     31.16
 -10  -8  14    356.90     26.45
 -10  -8  15    573.36     27.44
 -10  -7   1     63.53     38.21
 -10  -7   2   1491.02     38.72
 -10  -7   3  15939.24    134.97
 -10  -7   4   1243.51     38.28
 -10  -7   5    278.48     46.99
 -10  -7   6   3507.16     60.12
 -10  -7   7   9566.97     98.91
 -10  -7   8    796.33     41.24
 -10  -7   9   4715.92     82.45
 -10  -7  10    586.06     27.31
 -10  -7  11   1080.05     30.70
 -10  -7  12   4094.85     56.23
 -10  -7  13   1705.08     49.97
 -10  -7  14    368.88     26.06
 -10  -7  15   1515.74     44.81
 -10  -7  16   1834.48     47.35
 -10  -7  17    636.92     39.75
 -10  -6   1    434.66     29.55
 -10  -6   2   2093.14     43.90
 -10  -6   3   2167.72     41.35
 -10  -6   4   4434.07     45.26
 -10  -6   5   4687.99     49.39
 -10  -6   6    736.72     41.54
 -10  -6   7    410.12     35.14
 -10  -6   8   1702.99     61.11
 -10  -6   9    242.57     28.13
 -10  -6  10   1515.94     31.82
 -10  -6  11    895.33     27.08
 -10  -6  12    882.17     26.27
 -10  -6  13    472.52     25.65
 -10  -6  14   1665.82     53.90
 -10  -6  15   2115.31     41.92
 -10  -6  16    134.94     29.30
 -10  -6  17   6500.88     82.09
 -10  -6  18   1031.41     59.63
 -10  -5   1   1970.06     43.60
 -10  -5   2  11120.46     94.90
 -10  -5   3   8635.94     59.63
 -10  -5   4     27.89     33.41
 -10  -5   5   9736.92     54.68
 -10  -5   6   3951.69     58.78
 -10  -5   7   9778.16     61.05
 -10  -5   8   2385.40     35.32
 -10  -5   9     73.24     24.99
 -10  -5  10   1627.01     33.25
 -10  -5  11   7490.31     85.32
 -10  -5  12    891.20     25.86
 -10  -5  13   1154.13     26.62
 -10  -5  14   1869.25     40.62
 -10  -5  15   1452.67     38.36
 -10  -5  16   3432.32     38.51
 -10  -5  17     17.41     28.19
 -10  -5  18   5684.61     88.05
 -10  -5  19   3661.81     44.64
 -10  -4   1    100.56     31.19
 -10  -4   2     60.23     37.31
 -10  -4   3    158.32     31.78
 -10  -4   4    299.19     33.15
 -10  -4   5   2859.00     39.71
 -10  -4   6    807.19     46.04
 -10  -4   7    710.21     30.28
 -10  -4   8   1088.88     28.77
 -10  -4   9     99.76     24.54
 -10  -4  10   8679.13     97.12
 -10  -4  11   1002.31     25.47
 -10  -4  12   6788.77     86.77
 -10  -4  13   3428.01     51.52
 -10  -4  14   2166.34     57.09
 -10  -4  15    872.86     29.00
 -10  -4  16   4846.25     58.86
 -10  -4  17     72.49     26.22
 -10  -4  18    286.90     34.80
 -10  -4  19    498.37     36.21
 -10  -4  20    292.87     30.11
 -10  -3   1   1624.39     35.05
 -10  -3   2  24240.94     96.85
 -10  -3   3    997.01     34.46
 -10  -3   4  20370.03     89.69
 -10  -3   5   1647.09     36.22
 -10  -3   6  17807.08     87.83
 -10  -3   7   5525.85     45.03
 -10  -3   8    226.68     26.34
 -10  -3   9    508.59     23.43
 -10  -3  10  14701.10    191.41
 -10  -3  11   1235.62     27.27
 -10  -3  12     75.21     23.39
 -10  -3  13    206.96     31.01
 -10  -3  14   9224.88    134.67
 -10  -3  15    410.09     25.55
 -10  -3  16   1333.32     27.79
 -10  -3  17   2427.59     33.06
 -10  -3  18    244.41     30.53
 -10  -3  19   7183.30     53.39
 -10  -3  20   3334.88     85.40
 -10  -2   1     35.96     33.41
 -10  -2   2    349.02     38.66
 -10  -2   3   2043.45     35.22
 -10  -2   4    112.44     32.23
 -10  -2   5  13017.87     87.09
 -10  -2   6   2245.15     41.35
 -10  -2   7   8633.05     72.64
 -10  -2   8    870.20     23.25
 -10  -2   9   4374.52     35.62
 -10  -2  10    482.23     23.91
 -10  -2  11   1117.62     24.72
 -10  -2  12      1.92     22.93
 -10  -2  13   4039.68     58.65
 -10  -2  14   3788.06     48.86
 -10  -2  15   1511.49     27.51
 -10  -2  16   2871.39     45.24
 -10  -2  17     87.77     27.10
 -10  -2  18   2655.16     49.70
 -10  -2  19     53.15     31.37
 -10  -2  20   5650.83     81.84
 -10  -2  21    121.25     46.96
 -10  -1   1  33710.60    243.56
 -10  -1   2   6220.81     43.82
 -10  -1   3  20356.37     65.52
 -10  -1   4   4784.51     47.40
 -10  -1   5  14596.17     93.03
 -10  -1   6   8899.23     54.10
 -10  -1   7   5466.44     42.18
 -10  -1   8   6343.78     56.89
 -10  -1   9   3969.35     30.48
 -10  -1  10   1761.00     25.06
 -10  -1  11   1912.91     38.37
 -10  -1  12     95.66     24.57
 -10  -1  13   8294.02     85.01
 -10  -1  14   1085.12     25.94
 -10  -1  15    938.60     26.06
 -10  -1  16   3902.57     44.71
 -10  -1  17    121.65     28.74
 -10  -1  18   3079.96     45.54
 -10  -1  19  13230.15     75.73
 -10  -1  20   2105.68     66.88
 -10  -1  21     18.42     27.49
 -10   0   1   2666.70     34.80
 -10   0   2    555.00     37.04
 -10   0   3   2267.08     34.07
 -10   0   4   2454.17     38.30
 -10   0   5    544.27     30.28
 -10   0   6   1137.19     31.93
 -10   0   7    388.92     21.12
 -10   0   8   3246.93     29.21
 -10   0   9   3350.89     41.76
 -10   0  10    283.44     23.97
 -10   0  11     14.80     21.76
 -10   0  12     47.27     22.41
 -10   0  13  18747.80    140.17
 -10   0  14     88.18     23.37
 -10   0  15   7302.26     57.93
 -10   0  16     28.26     24.29
 -10   0  17   2535.04     53.87
 -10   0  18     42.25     29.98
 -10   0  19   3324.82     41.45
 -10   0  20   1011.06     41.08
 -10   0  21    507.26     30.87
 -10   1   1  12719.18     70.02
 -10   1   2   4049.29     37.72
 -10   1   3  26242.40    111.34
 -10   1   4   3684.87     37.24
 -10   1   5  14208.89    210.75
 -10   1   6  15613.62     92.44
 -10   1   7   9309.05     68.82
 -10   1   8   2902.61     25.75
 -10   1   9   3006.00     26.30
 -10   1  10    400.20     23.19
 -10   1  11   1914.43     31.42
 -10   1  12  11140.00    111.48
 -10   1  13    102.41     30.58
 -10   1  14   4172.67     32.68
 -10   1  15    274.25     24.01
 -10   1  16   3106.51     34.43
 -10   1  17   7789.00     92.23
 -10   1  18   7906.38     73.71
 -10   1  19     28.87     29.13
 -10   1  20   1259.78     31.17
 -10   2   1     25.91     26.29
 -10   2   2   1185.77     44.39
 -10   2   3   1652.33     42.28
 -10   2   4    650.73     28.39
 -10   2   5   3098.84     29.65
 -10   2   6    904.99     22.51
 -10   2   7   1456.38     25.66
 -10   2   8  19506.13    184.47
 -10   2   9   1134.74     24.34
 -10   2  10   1276.85     26.03
 -10   2  11    200.38     21.57
 -10   2  12  10045.46    105.11
 -10   2  13   2445.66     27.20
 -10   2  14   2141.04     27.02
 -10   2  15    922.89     26.97
 -10   2  16    593.35     34.87
 -10   2  17   2730.14     30.17
 -10   2  18    481.86     29.19
 -10   2  19   2388.82     68.66
 -10   2  20   1374.75     35.03
 -10   3   1   2346.32     32.66
 -10   3   2  45734.87    590.41
 -10   3   3   2595.74     33.35
 -10   3   4   9347.84     89.83
 -10   3   5  25402.30    299.98
 -10   3   6   4707.84     41.11
 -10   3   7   4521.30     50.26
 -10   3   8   5301.20     28.95
 -10   3   9   2104.18     25.18
 -10   3  10     68.06     20.38
 -10   3  11    501.57     21.94
 -10   3  12   5516.19     44.23
 -10   3  13    430.50     22.68
 -10   3  14   1289.30     35.30
 -10   3  15   2844.78     42.71
 -10   3  16   3784.02     77.34
 -10   3  17   8952.96     78.47
 -10   3  18    338.48     33.88
 -10   3  19    551.67     25.05
 -10   4   1   7683.84    123.53
 -10   4   2   1453.79     53.16
 -10   4   3   8567.59    151.25
 -10   4   4     78.18     19.20
 -10   4   5    859.36     19.99
 -10   4   6     70.04     18.56
 -10   4   7   4454.15     46.06
 -10   4   8   1221.99     23.84
 -10   4   9      6.09     19.39
 -10   4  10     39.87     19.75
 -10   4  11   3343.85     56.20
 -10   4  12   7316.92     73.79
 -10   4  13   1810.09     25.45
 -10   4  14     41.07     32.82
 -10   4  15   1283.33     36.13
 -10   4  16   8399.51    125.30
 -10   4  17     50.87     31.39
 -10   4  18   2174.53     78.72
 -10   4  19   2192.86     77.53
 -10   5   1  21801.30    130.76
 -10   5   2   8850.97    207.86
 -10   5   3   6805.89     80.16
 -10   5   4  12830.99    158.37
 -10   5   5   1800.28     31.45
 -10   5   6  16835.00    141.51
 -10   5   7   2563.65     53.58
 -10   5   8   1372.54     26.97
 -10   5   9    422.27     19.99
 -10   5  10      0.00     19.40
 -10   5  11   4000.95     30.53
 -10   5  12   1163.05     23.35
 -10   5  13     56.45     31.63
 -10   5  14   6239.97     80.50
 -10   5  15   3908.95     90.91
 -10   5  16   3183.12     70.07
 -10   5  17   5603.39    136.20
 -10   5  18   2711.81     93.29
 -10   6   1    312.88     21.54
 -10   6   2   1191.01     24.84
 -10   6   3    432.36     20.58
 -10   6   4    331.58     17.76
 -10   6   5     22.27     22.33
 -10   6   6   1852.99     33.54
 -10   6   7    795.02     25.81
 -10   6   8   1994.98     35.96
 -10   6   9   2908.63     53.15
 -10   6  10    439.77     20.30
 -10   6  11  14353.80    114.19
 -10   6  12    737.46     24.94
 -10   6  13    333.09     22.70
 -10   6  14    847.11     26.33
 -10   6  15   2676.61     51.22
 -10   6  16   1417.72     76.83
 -10   6  17    907.28     52.25
 -10   7   1  11112.08     54.53
 -10   7   2   9100.62     62.80
 -10   7   3   2253.01     64.50
 -10   7   4  11277.71    114.26
 -10   7   5  13478.31    116.90
 -10   7   6   5888.47     85.69
 -10   7   7   2311.93     33.89
 -10   7   8    666.20     20.94
 -10   7   9    105.80     18.39
 -10   7  10   3577.55    148.26
 -10   7  11     45.46     19.04
 -10   7  12   2045.81     58.20
 -10   7  13    594.51     22.84
 -10   7  14      0.00     19.81
 -10   7  15   7612.07    142.87
 -10   8   1   2335.10     44.75
 -10   8   2    402.03     22.10
 -10   8   3   4041.30     59.75
 -10   8   4   2653.48     50.78
 -10   8   5    586.30     29.14
 -10   8   6   4168.15     51.97
 -10   8   7    167.34     17.53
 -10   8   8    116.32     20.30
 -10   8   9     89.91     17.75
 -10   8  10   3421.49     40.25
 -10   8  11   2985.50     58.95
 -10   8  12    325.37     28.19
 -10   8  13    149.81     25.27
 -10   8  14    137.09     23.33
 -10   9   1   9879.02     68.18
 -10   9   2   1331.88     34.56
 -10   9   3   7762.51    102.37
 -10   9   4   4042.71    130.15
 -10   9   5   5826.25    101.06
 -10   9   6     32.88     18.07
 -10   9   7   1321.86     35.91
 -10   9   8   1467.83     31.02
 -10   9   9    214.51     18.52
 -10   9  10    110.79     38.21
 -10   9  11   1808.46    131.60
 -10   9  12    210.48     43.88
 -10  10   1   1137.51     27.64
 -10  10   2     27.43     16.36
 -10  10   3      0.00     16.82
 -10  10   4     39.55     16.85
 -10  10   5    691.17     44.03
 -10  10   6    514.30     28.99
 -10  10   7     10.92     26.10
 -10  10   8    173.62     59.18
 -10  10   9   1539.23     45.66
 -10  10  10    990.85     66.13
 -10  11   1   3678.65    113.07
 -10  11   2   1153.36     61.92
 -10  11   3     72.88     27.05
 -10  11   4   3525.06     85.08
 -10  11   5   1236.20     36.79
 -10  11   6   3082.57     50.07
 -10  11   7   1023.75     41.52
 -10  11   8    427.94    100.15
 -10  12   1     50.14     34.11
 -10  12   2     52.45     52.43
 -10  12   3     99.92     37.06
 -10  12   4   1524.80    276.06
  -9 -10   1    444.28     34.06
  -9 -10   2    730.86     38.94
  -9 -10   3    627.78     28.46
  -9 -10   4     88.23     30.07
  -9 -10   5   2440.86    135.37
  -9 -10   6    771.18     42.85
  -9 -10   7   1653.82     41.06
  -9 -10   8    205.23     63.10
  -9 -10   9   1788.11     42.25
  -9 -10  10      7.53     23.41
  -9 -10  11    750.20     28.67
  -9 -10  12   9646.78    101.63
  -9  -9   1   1951.91     32.40
  -9  -9   2     24.17     25.80
  -9  -9   3   1731.34     43.70
  -9  -9   4    277.67     34.94
  -9  -9   5   8329.06    177.55
  -9  -9   6   4201.64     72.82
  -9  -9   7     10.96     47.05
  -9  -9   8    403.02     31.57
  -9  -9   9   1088.46     33.85
  -9  -9  10   1936.52     59.26
  -9  -9  11   1247.34     34.88
  -9  -9  12   1116.92     33.14
  -9  -9  13     46.01     24.20
  -9  -9  14     44.21     24.75
  -9  -9  15   1454.20     48.10
  -9  -8   1   1359.71     28.65
  -9  -8   2    753.23     36.84
  -9  -8   3     94.92     38.68
  -9  -8   4   6255.06     66.86
  -9  -8   5   2104.82     39.25
  -9  -8   6    348.75     34.37
  -9  -8   7   4195.96    128.70
  -9  -8   8     61.73     45.76
  -9  -8   9   3818.82     98.73
  -9  -8  10     22.62     27.77
  -9  -8  11   4568.29     93.10
  -9  -8  12   2696.54     62.18
  -9  -8  13    161.19     24.29
  -9  -8  14     71.89     26.59
  -9  -8  15    241.42     27.07
  -9  -8  16     36.82     25.26
  -9  -8  17    130.04     29.44
  -9  -8  18   1402.93     31.92
  -9  -7   1    992.15     27.33
  -9  -7   2    304.63     28.18
  -9  -7   3   2474.34     48.36
  -9  -7   4   5756.50     81.65
  -9  -7   5     43.05     43.60
  -9  -7   6   1759.70     64.01
  -9  -7   7    157.50     33.09
  -9  -7   8    353.43     36.51
  -9  -7   9     28.69     26.76
  -9  -7  10   5925.78    102.16
  -9  -7  11   2331.57     44.03
  -9  -7  12    320.59     23.79
  -9  -7  13    819.10     25.30
  -9  -7  14   4445.79     95.84
  -9  -7  15    316.84     25.14
  -9  -7  16    301.45     25.56
  -9  -7  17    303.09     30.09
  -9  -7  18   1761.88     35.15
  -9  -7  19    360.56     29.37
  -9  -6   1   5671.19     91.24
  -9  -6   2   1150.90     33.89
  -9  -6   3    568.42     44.85
  -9  -6   4    356.35     32.30
  -9  -6   5   3814.93    128.23
  -9  -6   6   3413.18     40.68
  -9  -6   7    123.52     32.81
  -9  -6   8   4643.30     90.46
  -9  -6   9    574.37     25.17
  -9  -6  10   6520.40     69.37
  -9  -6  11   2825.87     30.59
  -9  -6  12   1271.60     38.34
  -9  -6  13   4367.41     95.33
  -9  -6  14   6098.01     96.26
  -9  -6  15   1311.43     42.71
  -9  -6  16    323.59     27.44
  -9  -6  17     72.94     26.73
  -9  -6  18    825.00     30.43
  -9  -6  19    763.24     27.94
  -9  -6  20    477.92     35.15
  -9  -5   1   2056.96     43.06
  -9  -5   2   4058.91     39.85
  -9  -5   3   4676.82    132.62
  -9  -5   4   1075.49     33.44
  -9  -5   5    971.46     33.55
  -9  -5   6   5695.01     44.53
  -9  -5   7   2402.38     36.17
  -9  -5   8   6409.59     63.95
  -9  -5   9  11988.31    104.26
  -9  -5  10   4680.21     37.50
  -9  -5  11     32.56     22.46
  -9  -5  12    457.74     23.56
  -9  -5  13   2626.31     45.26
  -9  -5  14      0.00     23.43
  -9  -5  15      4.22     30.19
  -9  -5  16    647.06     35.90
  -9  -5  17     63.02     34.36
  -9  -5  18   1139.30     29.57
  -9  -5  19   1461.01     39.98
  -9  -5  20   3786.78     53.43
  -9  -5  21      0.00     33.94
  -9  -4   1   2703.47     59.56
  -9  -4   2    105.38     29.52
  -9  -4   3    486.18     30.33
  -9  -4   4   1848.60     41.10
  -9  -4   5   9854.11     51.17
  -9  -4   6    467.38     31.43
  -9  -4   7  13337.55    100.59
  -9  -4   8     34.37     22.75
  -9  -4   9    141.33     21.69
  -9  -4  10  19109.68    192.13
  -9  -4  11     96.45     28.41
  -9  -4  12    349.59     37.16
  -9  -4  13    935.45     27.05
  -9  -4  14    475.15     24.16
  -9  -4  15    432.58     33.01
  -9  -4  16    139.18     26.67
  -9  -4  17   1820.84     62.92
  -9  -4  18    527.87     33.99
  -9  -4  19    447.04     38.65
  -9  -4  20     50.80     34.50
  -9  -4  21    269.76     33.76
  -9  -4  22   3159.31     51.48
  -9  -3   1  27944.25     96.70
  -9  -3   2     16.07     29.22
  -9  -3   3  14144.30     70.18
  -9  -3   4   3490.13     50.58
  -9  -3   5   4736.52     40.35
  -9  -3   6     77.52     41.21
  -9  -3   7   1597.01     33.20
  -9  -3   8   2392.78     28.71
  -9  -3   9  11404.76    111.61
  -9  -3  10   1687.78     26.54
  -9  -3  11   1310.07     28.16
  -9  -3  12     22.89     21.98
  -9  -3  13    873.15     30.36
  -9  -3  14    260.25     24.96
  -9  -3  15   3284.24     41.85
  -9  -3  16    914.87     25.93
  -9  -3  17   1890.53     52.18
  -9  -3  18    337.17     32.92
  -9  -3  19   7271.45     45.56
  -9  -3  20      0.00     30.30
  -9  -3  21    554.85     26.40
  -9  -3  22    603.06     27.09
  -9  -2   1    139.81     27.52
  -9  -2   2   2022.94     32.42
  -9  -2   3   7855.84     44.36
  -9  -2   4    810.00     29.94
  -9  -2   5   5524.70     40.88
  -9  -2   6   1363.07     31.95
  -9  -2   7   5030.39     36.53
  -9  -2   8    844.38     23.66
  -9  -2   9  17243.36    149.88
  -9  -2  10    522.07     21.88
  -9  -2  11    677.67     22.46
  -9  -2  12   1143.03     23.97
  -9  -2  13    323.45     22.69
  -9  -2  14    467.80     27.25
  -9  -2  15   3286.90     31.87
  -9  -2  16  11633.31     88.59
  -9  -2  17    487.54     33.50
  -9  -2  18    307.86     27.49
  -9  -2  19    538.60     26.43
  -9  -2  20     20.27     29.90
  -9  -2  21   1197.32     29.62
  -9  -2  22   1540.56     30.16
  -9  -1   1   6846.44     41.51
  -9  -1   2   4249.71     36.58
  -9  -1   3      7.96     26.66
  -9  -1   4   5447.16     73.40
  -9  -1   5   2281.40     32.87
  -9  -1   6      0.00     34.47
  -9  -1   7    544.02     20.34
  -9  -1   8   4891.39     39.83
  -9  -1   9  21359.46    126.87
  -9  -1  10   9725.91    109.80
  -9  -1  11   1145.55     27.74
  -9  -1  12    735.35     22.79
  -9  -1  13   1262.82     25.92
  -9  -1  14   3476.56     50.99
  -9  -1  15    325.63     25.27
  -9  -1  16   1434.21     39.42
  -9  -1  17    482.16     31.82
  -9  -1  18   2171.09     39.45
  -9  -1  19   4400.17     42.75
  -9  -1  20    569.82     29.67
  -9  -1  21     79.16     28.90
  -9  -1  22    172.47     25.73
  -9   0   1     86.21     36.86
  -9   0   2   8107.65     79.04
  -9   0   3     30.90     25.70
  -9   0   4   8804.25     73.89
  -9   0   5   1617.22     34.80
  -9   0   6   3625.91     31.23
  -9   0   7    923.28     20.88
  -9   0   8  30669.27    121.88
  -9   0   9     73.47     19.98
  -9   0  10   1564.66     24.59
  -9   0  11   1764.50     24.13
  -9   0  12   9201.01     57.32
  -9   0  13    918.84     27.19
  -9   0  14    322.92     26.78
  -9   0  15   2558.74     32.46
  -9   0  16   1478.72     59.97
  -9   0  17    292.90     24.29
  -9   0  18    174.22     24.89
  -9   0  19    325.42     36.30
  -9   0  20    463.18     29.04
  -9   0  21    519.12     25.83
  -9   0  22   1540.57     40.31
  -9   1   1   8418.74     49.16
  -9   1   2   2021.37     39.93
  -9   1   3   1011.85     27.62
  -9   1   4  28336.45    185.52
  -9   1   5   4190.52     79.33
  -9   1   6    649.14     19.44
  -9   1   7   5247.26     44.59
  -9   1   8  21644.20    118.82
  -9   1   9   1530.78     23.69
  -9   1  10    368.46     20.47
  -9   1  11     34.09     20.28
  -9   1  12     94.32     23.80
  -9   1  13    196.33     23.34
  -9   1  14   2554.37     35.86
  -9   1  15     47.64     25.35
  -9   1  16    103.75     25.07
  -9   1  17    484.42     24.52
  -9   1  18   8557.69     49.65
  -9   1  19    405.89     28.11
  -9   1  20     56.47     24.20
  -9   1  21   1083.92     44.43
  -9   1  22   1312.03     40.21
  -9   2   1  16002.46    214.53
  -9   2   2    381.37     28.42
  -9   2   3  10186.54    126.76
  -9   2   4    215.90     22.44
  -9   2   5  13918.23    113.18
  -9   2   6   1016.45     20.49
  -9   2   7   3888.16     41.99
  -9   2   8   9915.35     54.12
  -9   2   9    513.82     20.07
  -9   2  10     14.76     19.31
  -9   2  11   4878.36     33.16
  -9   2  12      0.00     23.35
  -9   2  13    856.89     26.57
  -9   2  14   1382.19     28.25
  -9   2  15   1302.82     26.27
  -9   2  16    324.41     23.23
  -9   2  17   3989.02     44.09
  -9   2  18   4764.26     63.27
  -9   2  19    489.11     26.05
  -9   2  20    215.00     31.04
  -9   2  21   2765.38    101.78
  -9   3   1    648.36     24.69
  -9   3   2    177.50     23.51
  -9   3   3   9944.20    164.21
  -9   3   4    613.99     20.45
  -9   3   5    224.13     17.34
  -9   3   6   2976.73     40.29
  -9   3   7  11129.62     94.70
  -9   3   8   2169.27     22.40
  -9   3   9   2816.74     40.06
  -9   3  10    558.03     27.29
  -9   3  11   2346.15     25.92
  -9   3  12   6071.70     33.32
  -9   3  13   5409.09     33.90
  -9   3  14    182.80     29.55
  -9   3  15    575.84     22.99
  -9   3  16      6.06     25.37
  -9   3  17   8754.43     94.39
  -9   3  18     56.48     26.19
  -9   3  19      0.00     26.11
  -9   3  20     13.36     24.95
  -9   3  21    323.76     28.60
  -9   4   1   9619.79    120.05
  -9   4   2    369.58     23.07
  -9   4   3   5922.20     45.33
  -9   4   4   9004.09    106.80
  -9   4   5    423.36     17.46
  -9   4   6   1173.69     22.10
  -9   4   7   9718.96    111.19
  -9   4   8     53.15     17.77
  -9   4   9   1654.82     21.67
  -9   4  10  10272.91     87.15
  -9   4  11   1091.50     23.01
  -9   4  12    617.01     20.97
  -9   4  13   1303.26     26.62
  -9   4  14   8080.73     76.69
  -9   4  15    306.98     24.94
  -9   4  16    773.85     36.11
  -9   4  17    776.16     34.27
  -9   4  18    646.28     48.04
  -9   4  19     64.22     37.66
  -9   4  20   1197.56     67.09
  -9   5   1    256.70     21.72
  -9   5   2   3753.35     93.62
  -9   5   3   2122.58     37.62
  -9   5   4   1039.33     18.21
  -9   5   5  12908.71    174.25
  -9   5   6     80.47     17.70
  -9   5   7  15794.30     92.37
  -9   5   8   4465.22     80.68
  -9   5   9    900.44     19.80
  -9   5  10   2477.52     33.99
  -9   5  11   3063.90     47.02
  -9   5  12    828.27     21.22
  -9   5  13   1032.93     23.95
  -9   5  14     78.33     21.54
  -9   5  15   1803.70     63.16
  -9   5  16    941.52     55.67
  -9   5  17   1602.16     72.05
  -9   5  18    102.59     28.12
  -9   5  19    115.86     27.47
  -9   6   1   1409.20     42.60
  -9   6   2   1240.29     20.45
  -9   6   3  15794.48     94.17
  -9   6   4   1507.55     28.70
  -9   6   5     46.21     16.74
  -9   6   6  13093.21    112.88
  -9   6   7    629.27     25.39
  -9   6   8    385.51     17.63
  -9   6   9    236.67     17.75
  -9   6  10   2404.24     55.77
  -9   6  11    854.71     23.51
  -9   6  12     29.39     18.80
  -9   6  13   2675.52     39.18
  -9   6  14     22.72     19.25
  -9   6  15    983.46     51.55
  -9   6  16    188.66     20.79
  -9   6  17    927.39     49.30
  -9   6  18    181.44     26.51
  -9   7   1    849.37     19.00
  -9   7   2  10741.24    186.18
  -9   7   3     77.86     16.46
  -9   7   4   3762.18     65.73
  -9   7   5   1858.48     42.91
  -9   7   6   5582.47     67.18
  -9   7   7     46.94     15.78
  -9   7   8   1457.30     42.52
  -9   7   9    143.69     17.78
  -9   7  10     49.00     18.00
  -9   7  11    469.60     18.93
  -9   7  12    964.84     31.34
  -9   7  13   1717.98     87.89
  -9   7  14   5856.59    101.56
  -9   7  15     34.63     22.10
  -9   7  16   1390.42     83.61
  -9   7  17    131.11     27.18
  -9   8   1    382.86     16.82
  -9   8   2   4094.56     32.21
  -9   8   3   3058.73     24.83
  -9   8   4   4862.80     58.39
  -9   8   5   1202.15     41.27
  -9   8   6    231.86     15.35
  -9   8   7     84.62     15.21
  -9   8   8     39.23     15.50
  -9   8   9   2130.76     38.49
  -9   8  10     85.58     17.59
  -9   8  11   1036.30     61.73
  -9   8  12   3774.85     40.43
  -9   8  13    329.89     27.98
  -9   8  14    169.89     20.54
  -9   8  15   1239.44     72.10
  -9   9   1   2483.96     85.27
  -9   9   2   1313.29     29.01
  -9   9   3   1210.17     44.79
  -9   9   4   3132.57     45.57
  -9   9   5   2437.56     63.64
  -9   9   6     21.07     13.81
  -9   9   7     63.08     18.24
  -9   9   8   2231.77     44.79
  -9   9   9   2498.82     29.12
  -9   9  10   1874.39     33.51
  -9   9  11    261.09     51.22
  -9   9  12   2288.01     51.34
  -9   9  13   2505.96     52.82
  -9   9  14    214.18     40.24
  -9  10   1    540.23     17.38
  -9  10   2   7095.32     80.35
  -9  10   3   4193.02    102.05
  -9  10   4   1688.76     60.38
  -9  10   5    244.86     23.63
  -9  10   6   1322.02     58.26
  -9  10   7    734.40     60.47
  -9  10   8   4578.52     82.97
  -9  10   9    781.43     69.84
  -9  10  10     26.84     26.38
  -9  10  11     75.85     30.36
  -9  10  12    765.80     79.79
  -9  11   1     35.64     30.94
  -9  11   2   1072.78     45.85
  -9  11   3   7813.64     60.42
  -9  11   4     58.76     25.00
  -9  11   5    379.58     30.07
  -9  11   6      0.00     22.32
  -9  11   7    775.48     76.05
  -9  11   8    534.58    100.19
  -9  11   9    138.14     41.66
  -9  11  10      0.00     42.38
  -9  12   1   6768.02     90.92
  -9  12   2   1801.93    293.80
  -9  12   3    817.99    197.66
  -9  12   4    173.98     35.47
  -9  12   5    233.32     36.72
  -9  12   6    675.53    153.92
  -9  12   7     73.09     59.55
  -8 -11   1    378.93     26.44
  -8 -11   2   1178.17     48.98
  -8 -11   3   1276.00     28.92
  -8 -11   4     84.86     31.91
  -8 -11   5     40.37     30.49
  -8 -11   6    394.91     26.38
  -8 -11   7   1282.46     44.66
  -8 -11   8   6507.40    181.30
  -8 -11   9    814.38     30.66
  -8 -11  10     50.43     26.96
  -8 -11  11    545.76     23.94
  -8 -11  12    396.03     38.88
  -8 -10   1     48.52     27.74
  -8 -10   2  15991.95    281.00
  -8 -10   3    591.74     26.46
  -8 -10   4   1392.92     93.26
  -8 -10   5     33.28     32.43
  -8 -10   6   2036.66     41.17
  -8 -10   7     92.69     40.60
  -8 -10   8    519.25     31.23
  -8 -10   9     22.06     26.69
  -8 -10  10    822.37     23.83
  -8 -10  11    405.63     23.44
  -8 -10  12   3610.60     37.04
  -8 -10  13    591.12     32.83
  -8 -10  14   3486.41     62.68
  -8 -10  15    120.29     24.14
  -8 -10  16    680.72     33.64
  -8  -9   1   4639.76     67.02
  -8  -9   2     38.90     23.99
  -8  -9   3   2378.95     92.10
  -8  -9   4   1897.61     63.22
  -8  -9   5    825.73     41.02
  -8  -9   6      0.00     31.70
  -8  -9   7   2103.20     38.89
  -8  -9   8    775.72     35.26
  -8  -9   9    911.99     28.58
  -8  -9  10    542.99     31.58
  -8  -9  11    265.50     24.68
  -8  -9  12    355.57     23.16
  -8  -9  13    425.96     23.68
  -8  -9  14    857.09     35.85
  -8  -9  15    130.34     24.16
  -8  -9  16  10525.82     83.91
  -8  -9  17    626.94     32.03
  -8  -9  18   1013.62     37.90
  -8  -8   1  13226.97    147.20
  -8  -8   2   1565.34     29.93
  -8  -8   3   3262.52     40.78
  -8  -8   4   1720.56     49.39
  -8  -8   5      0.00     30.83
  -8  -8   6   2433.71     37.97
  -8  -8   7    118.16     31.91
  -8  -8   8      8.22     32.23
  -8  -8   9   3473.33     73.62
  -8  -8  10     32.99     23.23
  -8  -8  11   6550.82    107.80
  -8  -8  12     20.08     26.06
  -8  -8  13   8970.88    128.00
  -8  -8  14     16.21     23.23
  -8  -8  15   2200.47     50.17
  -8  -8  16     52.01     25.36
  -8  -8  17   1615.08     37.04
  -8  -8  18   2865.46     37.33
  -8  -8  19     21.71     27.38
  -8  -8  20      6.78     24.28
  -8  -7   1   4373.63     45.95
  -8  -7   2    803.19     27.65
  -8  -7   3    728.98     31.26
  -8  -7   4    382.36     30.58
  -8  -7   5    203.90     30.85
  -8  -7   6   3189.13     58.62
  -8  -7   7    742.45     29.12
  -8  -7   8    201.92     25.59
  -8  -7   9   9742.29     82.32
  -8  -7  10   2877.25     49.11
  -8  -7  11   6938.99     93.27
  -8  -7  12     28.18     22.91
  -8  -7  13     27.01     22.29
  -8  -7  14   1774.31     39.09
  -8  -7  15   8435.12     87.38
  -8  -7  16    822.49     25.56
  -8  -7  17    138.36     28.31
  -8  -7  18   1071.75     34.29
  -8  -7  19     70.65     29.76
  -8  -7  20   3276.10     51.64
  -8  -7  21     91.65     24.99
  -8  -6   1   6722.95     51.45
  -8  -6   2    159.06     28.84
  -8  -6   3  16527.04    174.50
  -8  -6   4   3967.66     45.44
  -8  -6   5   7912.78     58.11
  -8  -6   6    950.59     32.21
  -8  -6   7    282.09     30.28
  -8  -6   8   5233.95     34.63
  -8  -6   9     48.49     22.27
  -8  -6  10   8961.89    113.89
  -8  -6  11     51.93     23.22
  -8  -6  12   2682.51     33.78
  -8  -6  13   7960.25     45.64
  -8  -6  14    204.85     23.15
  -8  -6  15   1584.62     29.98
  -8  -6  16    898.96     28.73
  -8  -6  17   1705.01     49.64
  -8  -6  18    422.69     27.53
  -8  -6  19     41.83     26.99
  -8  -6  20     35.49     30.63
  -8  -6  21     20.15     24.70
  -8  -6  22   1837.50     39.04
  -8  -5   1   6508.55     44.39
  -8  -5   2   5364.35     50.11
  -8  -5   3   6126.26     58.36
  -8  -5   4   1832.12     32.78
  -8  -5   5    511.38     29.92
  -8  -5   6  14222.55     59.14
  -8  -5   7   1203.17     32.57
  -8  -5   8   2922.47     44.44
  -8  -5   9    109.07     20.02
  -8  -5  10    954.87     25.81
  -8  -5  11   2479.17     55.77
  -8  -5  12     91.64     21.41
  -8  -5  13   3688.95     65.84
  -8  -5  14   7277.81     90.84
  -8  -5  15   3666.77     65.80
  -8  -5  16   1447.82     26.36
  -8  -5  17     91.53     28.25
  -8  -5  18   3268.59     39.72
  -8  -5  19   9786.50     61.28
  -8  -5  20    179.68     34.31
  -8  -5  21     47.56     24.89
  -8  -5  22   2212.06     52.54
  -8  -5  23    118.20     25.92
  -8  -4   1     29.22     26.85
  -8  -4   2  18187.18    169.67
  -8  -4   3    486.34     33.43
  -8  -4   4   1917.61     36.23
  -8  -4   5   4575.07     38.10
  -8  -4   6    757.68     46.52
  -8  -4   7     22.99     22.67
  -8  -4   8   8815.81    112.95
  -8  -4   9   3193.08     45.86
  -8  -4  10    379.61     22.05
  -8  -4  11    786.58     22.24
  -8  -4  12  17775.47    173.21
  -8  -4  13    146.16     23.27
  -8  -4  14    361.58     24.62
  -8  -4  15   4735.30     63.06
  -8  -4  16   3880.17     36.21
  -8  -4  17      7.45     28.13
  -8  -4  18   1332.41     29.40
  -8  -4  19   3457.53     72.59
  -8  -4  20   2478.43     82.45
  -8  -4  21     75.48     26.07
  -8  -4  22     22.96     24.99
  -8  -4  23   2877.94     63.50
  -8  -3   1   1142.89     28.37
  -8  -3   2    358.12     26.44
  -8  -3   3   1995.40     30.73
  -8  -3   4    352.59     26.83
  -8  -3   5  10975.76     81.18
  -8  -3   6     71.00     27.10
  -8  -3   7   4084.12     29.94
  -8  -3   8    470.33     21.46
  -8  -3   9   1670.09     34.67
  -8  -3  10    408.00     20.60
  -8  -3  11   7009.83     77.46
  -8  -3  12  22591.99    196.72
  -8  -3  13    615.51     23.83
  -8  -3  14  15268.96    138.67
  -8  -3  15    964.63     28.38
  -8  -3  16     81.81     29.14
  -8  -3  17   1817.60     29.48
  -8  -3  18   4371.45     51.13
  -8  -3  19   2781.29     44.13
  -8  -3  20     35.96     25.34
  -8  -3  21    179.53     26.63
  -8  -3  22   3815.48     94.26
  -8  -3  23    159.18     32.10
  -8  -2   1   6948.34     39.33
  -8  -2   2   4520.09     35.11
  -8  -2   3     34.03     24.94
  -8  -2   4   3161.90     32.77
  -8  -2   5  16285.20    157.00
  -8  -2   6   9112.92     70.81
  -8  -2   7  18876.70    100.56
  -8  -2   8   5531.68     34.58
  -8  -2   9      3.14     18.91
  -8  -2  10    112.21     19.86
  -8  -2  11  25826.41    170.04
  -8  -2  12     85.70     21.67
  -8  -2  13   1652.55     40.46
  -8  -2  14    436.23     24.45
  -8  -2  15    703.38     25.78
  -8  -2  16   7110.39     73.06
  -8  -2  17    119.67     23.59
  -8  -2  18   1082.74     32.26
  -8  -2  19    671.48     37.64
  -8  -2  20    881.33     27.35
  -8  -2  21     49.95     34.18
  -8  -2  22   2943.48     42.81
  -8  -2  23   3802.79     45.90
  -8  -1   1    442.98     24.64
  -8  -1   2    925.94     32.04
  -8  -1   3   1624.07     28.57
  -8  -1   4  29289.51    207.10
  -8  -1   5   2434.41     24.97
  -8  -1   6   1093.26     19.34
  -8  -1   7  18034.73     74.71
  -8  -1   8   2549.50     22.78
  -8  -1   9   9072.21     68.61
  -8  -1  10   2191.16     23.30
  -8  -1  11   7165.29     53.42
  -8  -1  12   8815.59     54.11
  -8  -1  13   7415.06     42.65
  -8  -1  14   4098.30     28.80
  -8  -1  15   1052.20     27.60
  -8  -1  16    167.34     22.96
  -8  -1  17   1011.29     36.72
  -8  -1  18   3695.72     68.44
  -8  -1  19   2038.17     39.09
  -8  -1  20   1819.88     43.76
  -8  -1  21   9661.61     64.64
  -8  -1  22    102.82     35.51
  -8   0   1  32284.19    229.51
  -8   0   2   2515.33     29.66
  -8   0   3   2175.15     29.10
  -8   0   4  25460.95    160.45
  -8   0   5   5438.31     29.28
  -8   0   6   7124.93     45.31
  -8   0   7  10435.11     47.33
  -8   0   8   3033.84     32.13
  -8   0   9   5155.89     47.67
  -8   0  10   3303.55     27.64
  -8   0  11   6464.07     62.73
  -8   0  12     53.78     22.84
  -8   0  13    109.43     20.84
  -8   0  14   3562.57     31.40
  -8   0  15   7211.85     75.55
  -8   0  16    405.98     27.02
  -8   0  17   4185.31     48.83
  -8   0  18   2022.35     33.46
  -8   0  19     62.93     26.32
  -8   0  20   1729.67     77.93
  -8   0  21   9510.26    139.50
  -8   0  22    555.71     42.48
  -8   1   1  11924.05     74.26
  -8   1   2   2338.23     31.07
  -8   1   3   1713.04     26.86
  -8   1   4   8617.77     41.51
  -8   1   5   2659.20     28.77
  -8   1   6   4999.35     29.75
  -8   1   7      3.55     17.14
  -8   1   8   4238.89     28.25
  -8   1   9   4475.57     25.60
  -8   1  10   2821.40     31.14
  -8   1  11  10715.77     97.28
  -8   1  12  14046.12    145.26
  -8   1  13    145.53     20.64
  -8   1  14  14741.65    173.99
  -8   1  15   2519.68     30.76
  -8   1  16    287.15     24.26
  -8   1  17   5675.21     85.49
  -8   1  18   3005.64     65.50
  -8   1  19   1152.06     78.98
  -8   1  20   4151.58    109.08
  -8   1  21   1548.59     39.50
  -8   2   1    124.55     22.36
  -8   2   2   1030.09     23.76
  -8   2   3  10472.67    118.61
  -8   2   4   2384.21     25.76
  -8   2   5    259.59     16.28
  -8   2   6  11979.06     47.41
  -8   2   7  16742.96    103.11
  -8   2   8  18083.04    123.94
  -8   2   9    221.07     20.21
  -8   2  10   6474.50     40.70
  -8   2  11   1923.60     25.08
  -8   2  12   1316.98     27.38
  -8   2  13   8566.25     78.46
  -8   2  14   8263.01     64.80
  -8   2  15     54.83     22.60
  -8   2  16    266.07     24.35
  -8   2  17   1383.74     49.16
  -8   2  18   6571.99     65.53
  -8   2  19     33.80     25.66
  -8   2  20   2811.53     63.37
  -8   2  21   2232.95     55.92
  -8   3   1    499.25     21.51
  -8   3   2    326.37     21.20
  -8   3   3  10468.77     89.15
  -8   3   4    226.37     19.18
  -8   3   5  10520.98     92.92
  -8   3   6   2172.27     19.66
  -8   3   7  14719.38    108.91
  -8   3   8     85.72     16.87
  -8   3   9   3983.12     44.07
  -8   3  10  30212.42    251.87
  -8   3  11   4110.29     53.06
  -8   3  12   3113.49     26.58
  -8   3  13   6808.94     86.54
  -8   3  14     74.26     20.30
  -8   3  15    355.68     23.04
  -8   3  16   2535.68     52.77
  -8   3  17   2408.34    127.37
  -8   3  18     69.38     23.23
  -8   3  19    291.90     24.33
  -8   3  20   2354.64     54.98
  -8   3  21    724.33     83.95
  -8   3  22    863.56     77.34
  -8   4   1   9189.59    131.62
  -8   4   2    287.61     24.11
  -8   4   3  24323.12    211.20
  -8   4   4   3672.71     46.25
  -8   4   5   5723.19     64.69
  -8   4   6  26917.99    177.04
  -8   4   7  13745.83    115.05
  -8   4   8   1321.83     20.35
  -8   4   9   4398.23     58.96
  -8   4  10    232.82     21.23
  -8   4  11   1101.74     21.57
  -8   4  12      4.51     18.49
  -8   4  13     16.13     20.29
  -8   4  14   2751.43     31.72
  -8   4  15    244.63     25.76
  -8   4  16   2831.10     50.74
  -8   4  17   4483.27     83.73
  -8   4  18    886.49     30.29
  -8   4  19   3211.99    152.88
  -8   4  20    764.31     33.17
  -8   4  21   3503.89     61.61
  -8   5   1   2430.63     62.88
  -8   5   2  21479.12    298.77
  -8   5   3   3966.48     54.91
  -8   5   4     25.10     15.09
  -8   5   5   3327.88     33.54
  -8   5   6     91.92     15.02
  -8   5   7   5174.29     81.30
  -8   5   8    374.48     18.19
  -8   5   9  10433.69     77.94
  -8   5  10   8323.68     85.32
  -8   5  11   2409.20     45.45
  -8   5  12   4102.94     66.11
  -8   5  13   1039.98     22.36
  -8   5  14     69.40     18.67
  -8   5  15   5669.51     48.87
  -8   5  16     36.65     25.03
  -8   5  17   3736.03     57.26
  -8   5  18    496.20     42.27
  -8   5  19   2716.28     99.63
  -8   6   1     42.28     18.19
  -8   6   2  10834.94    141.30
  -8   6   3     57.47     13.43
  -8   6   4   1753.60     38.15
  -8   6   5  11839.23    112.02
  -8   6   6     23.44     15.45
  -8   6   7  13633.57     75.89
  -8   6   8    819.98     19.78
  -8   6   9     80.24     21.10
  -8   6  10   4746.74     57.73
  -8   6  11   1129.52     19.85
  -8   6  12     63.52     19.46
  -8   6  13    391.04     19.16
  -8   6  14   1049.98     61.49
  -8   6  15   6887.17    140.26
  -8   6  16   4643.01     47.66
  -8   6  17    309.93     25.09
  -8   6  18    141.80     32.01
  -8   6  19   5452.29     65.87
  -8   7   1    592.35     19.72
  -8   7   2    325.89     24.18
  -8   7   3    497.06     28.78
  -8   7   4   2473.72     55.59
  -8   7   5     40.40     14.32
  -8   7   6   2687.80     47.18
  -8   7   7   2539.73     41.71
  -8   7   8  10650.24    102.48
  -8   7   9   1420.01     31.36
  -8   7  10  10196.50     80.64
  -8   7  11     51.80     16.67
  -8   7  12   7335.49     73.82
  -8   7  13    871.80     44.92
  -8   7  14   2611.35     48.41
  -8   7  15    229.50     22.31
  -8   7  16   1300.30    111.93
  -8   7  17     49.28     21.72
  -8   7  18    593.50     62.39
  -8   8   1   1856.53     34.69
  -8   8   2    223.97     13.09
  -8   8   3   3432.99     59.88
  -8   8   4    632.33     21.14
  -8   8   5   7499.31    118.47
  -8   8   6  15289.29    241.82
  -8   8   7   2319.10     85.47
  -8   8   8   1687.28     41.16
  -8   8   9   5710.60    118.67
  -8   8  10    896.52     40.14
  -8   8  11     25.17     14.64
  -8   8  12   1014.35     53.47
  -8   8  13    139.76     19.36
  -8   8  14    278.61     37.81
  -8   8  15     30.11     19.13
  -8   8  16   3340.71    365.17
  -8   9   1    287.45     12.68
  -8   9   2   1391.01     26.64
  -8   9   3   7395.62    138.18
  -8   9   4   1647.43     18.83
  -8   9   5   6770.87    162.66
  -8   9   6     10.53     12.52
  -8   9   7    214.99     27.14
  -8   9   8   6608.18    113.00
  -8   9   9   1879.10    110.73
  -8   9  10    808.00     37.10
  -8   9  11   2224.26    137.69
  -8   9  12     20.64     30.10
  -8   9  13   1509.64    212.93
  -8   9  14    715.91     49.31
  -8  10   1   1033.43     28.48
  -8  10   2   1945.67     68.17
  -8  10   3    268.67      9.98
  -8  10   4   4602.62     88.94
  -8  10   5   4640.08     60.29
  -8  10   6   3053.50     43.12
  -8  10   7    115.49     27.08
  -8  10   8     32.95     27.32
  -8  10   9   1216.45    109.28
  -8  10  10    785.14     62.01
  -8  10  11    550.78     78.59
  -8  10  12    560.99     67.58
  -8  10  13     13.56     32.97
  -8  11   1    393.33     18.29
  -8  11   2     24.61     25.50
  -8  11   3    987.82     69.55
  -8  11   4    378.37     24.21
  -8  11   5    687.88     80.47
  -8  11   6     34.52     32.19
  -8  11   7   4238.12     52.20
  -8  11   8   1429.09    108.41
  -8  11   9    256.13     60.35
  -8  11  10   3062.29     81.93
  -8  11  11    103.92     43.03
  -8  12   1    797.69    126.47
  -8  12   2   1120.81    183.99
  -8  12   3    581.87     46.41
  -8  12   4    613.58     78.83
  -8  12   5   1790.02    277.42
  -8  12   6    745.35     51.92
  -8  12   7   1312.29    162.60
  -8  12   8   1927.52    336.28
  -8  13   5   1004.17    170.20
  -7 -12   2   1242.90     28.86
  -7 -12   3    810.91     38.72
  -7 -12   4   3802.67    119.42
  -7 -12   5   2101.68     58.14
  -7 -12   6    226.70     44.21
  -7 -12   7     13.43     33.13
  -7 -12   8     86.69     33.97
  -7 -12   9    611.50     28.92
  -7 -12  10    301.39     27.11
  -7 -12  11    508.71     44.93
  -7 -11   1   3542.24     55.64
  -7 -11   2     30.21     22.99
  -7 -11   3   1057.76     30.61
  -7 -11   4   3980.75     50.86
  -7 -11   5    376.02     23.93
  -7 -11   6    284.22     23.57
  -7 -11   7      7.52     32.28
  -7 -11   8   4898.03    128.59
  -7 -11   9     17.79     22.39
  -7 -11  10     54.79     22.54
  -7 -11  11   1019.05     40.99
  -7 -11  12     93.79     25.63
  -7 -11  13   2433.93     59.23
  -7 -11  14   2286.41     62.44
  -7 -11  15    376.59     26.15
  -7 -11  16   1968.10     66.30
  -7 -10   1      0.00     26.15
  -7 -10   2    120.60     25.36
  -7 -10   3    963.83     28.05
  -7 -10   4     15.35     22.11
  -7 -10   5    706.32     30.87
  -7 -10   6      0.00     30.55
  -7 -10   7      0.00     31.31
  -7 -10   8     24.34     24.41
  -7 -10   9     59.89     25.02
  -7 -10  10    126.34     20.43
  -7 -10  11   1462.68     43.46
  -7 -10  12   4636.55     90.57
  -7 -10  13   1624.96     55.89
  -7 -10  14   2351.63     42.79
  -7 -10  15   2418.61     64.05
  -7 -10  16    148.77     23.24
  -7 -10  17   1190.11     33.95
  -7 -10  18    190.19     26.08
  -7  -9   1   5738.95    116.85
  -7  -9   2    424.33     22.74
  -7  -9   3    853.85     27.01
  -7  -9   4   1729.53     34.38
  -7  -9   5   1231.11     33.23
  -7  -9   6    252.57     68.70
  -7  -9   7   8186.44     89.94
  -7  -9   8   1501.01     30.77
  -7  -9   9   1227.06     35.38
  -7  -9  10   4400.53     67.97
  -7  -9  11    971.99     27.08
  -7  -9  12    311.80     22.77
  -7  -9  13  14781.84    216.37
  -7  -9  14    370.86     27.50
  -7  -9  15     23.70     23.57
  -7  -9  16    970.76     49.86
  -7  -9  17    111.24     26.65
  -7  -9  18    156.12     28.83
  -7  -9  19      4.78     22.79
  -7  -9  20   2160.84     33.43
  -7  -8   1     74.54     21.48
  -7  -8   2   1542.92     54.93
  -7  -8   3     64.24     23.73
  -7  -8   4     95.50     28.41
  -7  -8   5   5058.51     64.92
  -7  -8   6   6469.86     47.18
  -7  -8   7   4589.93     55.86
  -7  -8   8   1127.46     29.43
  -7  -8   9    982.19     26.37
  -7  -8  10   1284.19     27.47
  -7  -8  11   2905.39     38.63
  -7  -8  12     56.04     25.26
  -7  -8  13    736.82     22.79
  -7  -8  14   3333.65     44.52
  -7  -8  15   1210.73     30.22
  -7  -8  16    212.47     23.22
  -7  -8  17    801.32     26.77
  -7  -8  18      0.00     27.54
  -7  -8  19   1079.98     29.11
  -7  -8  20    124.56     23.74
  -7  -8  21   3506.86     36.61
  -7  -8  22    459.32     27.81
  -7  -7   1   1487.16     41.27
  -7  -7   2   1963.16     27.83
  -7  -7   3    531.11     28.16
  -7  -7   4   6081.42     44.19
  -7  -7   5   1537.63     32.02
  -7  -7   6  15154.18    141.93
  -7  -7   7   1128.51     37.71
  -7  -7   8    689.88     24.49
  -7  -7   9    197.78     22.74
  -7  -7  10   3917.97     29.96
  -7  -7  11   6360.47    105.41
  -7  -7  12  12719.82     60.35
  -7  -7  13    702.49     27.64
  -7  -7  14    514.77     23.89
  -7  -7  15    889.98     34.76
  -7  -7  16    412.94     23.35
  -7  -7  17     48.51     25.20
  -7  -7  18    690.46     27.09
  -7  -7  19   8097.34     86.02
  -7  -7  20    480.09     30.40
  -7  -7  21   1506.10     39.12
  -7  -7  22   7107.33    117.88
  -7  -7  23     97.17     31.34
  -7  -6   1   1582.08     26.16
  -7  -6   2   8510.51    100.19
  -7  -6   3   1984.32     36.50
  -7  -6   4   1249.08     29.42
  -7  -6   5    870.96     28.89
  -7  -6   6    203.01     23.96
  -7  -6   7    398.12     22.65
  -7  -6   8    264.73     22.63
  -7  -6   9    631.69     20.97
  -7  -6  10     91.72     19.29
  -7  -6  11   1779.46     37.21
  -7  -6  12   1227.41     30.61
  -7  -6  13    496.22     27.93
  -7  -6  14  12407.93    146.20
  -7  -6  15   3246.51     62.66
  -7  -6  16   1666.76     27.83
  -7  -6  17    432.83     24.02
  -7  -6  18   2703.28     58.78
  -7  -6  19    310.38     31.40
  -7  -6  20   4533.86     78.38
  -7  -6  21    730.66     41.30
  -7  -6  22   1230.25     52.12
  -7  -6  23     88.45     41.20
  -7  -5   1   3755.54     44.70
  -7  -5   2   5466.10     66.94
  -7  -5   3      0.00     28.74
  -7  -5   4   4351.74     58.79
  -7  -5   5   2887.16     32.96
  -7  -5   6   8816.01     86.77
  -7  -5   7   2237.00     27.03
  -7  -5   8   1449.75     31.83
  -7  -5   9   7041.56     79.83
  -7  -5  10   2484.66     39.32
  -7  -5  11  32842.08    235.81
  -7  -5  12    195.11     21.76
  -7  -5  13    745.52     23.99
  -7  -5  14   8892.68     86.84
  -7  -5  15   1800.85     40.40
  -7  -5  16   6254.00     47.72
  -7  -5  17    354.66     25.83
  -7  -5  18   2279.28     52.82
  -7  -5  19   6409.40    161.58
  -7  -5  20    400.35     26.03
  -7  -5  21   3734.56    118.79
  -7  -5  22    470.03     31.02
  -7  -5  23    683.02     37.73
  -7  -5  24      0.00     69.20
  -7  -4   1   4392.76     38.64
  -7  -4   2    145.20     24.29
  -7  -4   3   2141.71     29.97
  -7  -4   4     64.07     24.62
  -7  -4   5     21.94     25.07
  -7  -4   6     16.30     25.69
  -7  -4   7  10223.28    112.01
  -7  -4   8   5810.32     32.04
  -7  -4   9   8400.76     50.49
  -7  -4  10  11517.49     95.10
  -7  -4  11    820.01     22.65
  -7  -4  12    514.46     21.65
  -7  -4  13  14143.04     85.92
  -7  -4  14    581.36     22.06
  -7  -4  15    185.92     25.87
  -7  -4  16    527.48     23.12
  -7  -4  17      0.00     26.50
  -7  -4  18   2583.94     60.30
  -7  -4  19    175.94     24.81
  -7  -4  20   3883.47     83.04
  -7  -4  21   2756.04     64.75
  -7  -4  22    430.21     34.97
  -7  -4  23    235.12     74.92
  -7  -3   1  24057.04    208.58
  -7  -3   2   7066.89     44.02
  -7  -3   3  14469.88     49.48
  -7  -3   4   4274.34     46.34
  -7  -3   5   4940.73     39.13
  -7  -3   6  16508.39     76.82
  -7  -3   7   8401.95     76.52
  -7  -3   8  17043.52    127.79
  -7  -3   9   6213.28     76.09
  -7  -3  10  15228.59    152.53
  -7  -3  11  22918.81    112.89
  -7  -3  12   4354.09     40.25
  -7  -3  13    636.48     23.29
  -7  -3  14    235.72     20.99
  -7  -3  15   2526.62     33.64
  -7  -3  16    368.65     26.79
  -7  -3  17   2980.98     43.54
  -7  -3  18   9123.12    111.66
  -7  -3  19   2117.76    116.30
  -7  -3  21     19.96     27.33
  -7  -3  22    505.61     27.32
  -7  -2   1   7130.97     48.68
  -7  -2   2   4548.13     37.25
  -7  -2   3  17930.77    115.59
  -7  -2   4  11133.12     54.31
  -7  -2   5   6254.39     39.11
  -7  -2   6   3938.06     29.36
  -7  -2   7    654.18     18.74
  -7  -2   8   1558.93     29.15
  -7  -2   9   2730.21     29.44
  -7  -2  10   4444.26     25.39
  -7  -2  11   2656.13     23.36
  -7  -2  12   4163.40     43.59
  -7  -2  13   2480.46     29.38
  -7  -2  14    125.37     20.55
  -7  -2  15     28.41     24.67
  -7  -2  16   3988.45     40.81
  -7  -2  17   9397.30     43.14
  -7  -2  18     14.97     27.24
  -7  -2  19   2110.33     77.78
  -7  -2  20   9109.67    141.83
  -7  -2  21    850.58     25.38
  -7  -2  22    724.16     32.61
  -7  -1   1  11326.46     64.61
  -7  -1   2  10614.03     47.68
  -7  -1   3   5366.82     33.45
  -7  -1   4  19562.10    124.78
  -7  -1   5   1032.45     18.60
  -7  -1   6   3583.59     21.37
  -7  -1   7     47.45     17.61
  -7  -1   8    215.09     16.90
  -7  -1   9  18391.08    135.48
  -7  -1  10  43035.62    242.52
  -7  -1  11   2970.14     44.36
  -7  -1  12   2905.48     27.04
  -7  -1  13    400.02     20.34
  -7  -1  14   8929.24    100.77
  -7  -1  15    159.74     24.91
  -7  -1  16    330.63     22.70
  -7  -1  17  29834.74    118.06
  -7  -1  18      0.00     43.90
  -7  -1  19    121.48     41.85
  -7  -1  20   2871.10     46.77
  -7  -1  21     30.86     27.06
  -7   0   1   1255.99     23.44
  -7   0   2   4027.12     29.49
  -7   0   3   1670.65     24.82
  -7   0   4   1848.76     30.09
  -7   0   5   5441.78     33.64
  -7   0   6    310.86     16.92
  -7   0   7     71.90     15.87
  -7   0   8   2835.89     21.16
  -7   0   9    104.37     20.13
  -7   0  10  27040.50    143.30
  -7   0  11   1408.19     23.68
  -7   0  12  14400.54     99.22
  -7   0  13    305.11     23.16
  -7   0  14    732.14     22.79
  -7   0  15   6561.44     40.73
  -7   0  16   5792.13     31.66
  -7   0  17    469.08     23.19
  -7   0  18   2389.22     69.22
  -7   0  19   4039.48     69.82
  -7   0  20   2680.10     44.55
  -7   0  21   1048.58     74.34
  -7   1   1   4131.39     28.89
  -7   1   2  17404.44    122.25
  -7   1   3  35901.35    214.00
  -7   1   4   1741.96     17.88
  -7   1   5  17308.89     56.22
  -7   1   6      6.42     14.94
  -7   1   7    249.89     15.85
  -7   1   8   1999.02     40.50
  -7   1   9  86031.09    553.57
  -7   1  10   5102.90     40.84
  -7   1  11     71.63     17.85
  -7   1  12   3422.86     27.47
  -7   1  13     36.13     22.72
  -7   1  14   9325.34     66.74
  -7   1  15   1554.85     32.93
  -7   1  16  14079.68     67.93
  -7   1  17   4178.97     57.69
  -7   1  18    547.56     31.55
  -7   1  19   2174.08     43.63
  -7   1  20     30.78     44.64
  -7   1  21    324.97     69.36
  -7   1  22    788.12     73.08
  -7   2   1   8296.41     39.86
  -7   2   2   7039.14     50.71
  -7   2   3  14883.78    109.56
  -7   2   4   1868.96     18.80
  -7   2   5  27694.14    128.50
  -7   2   6  11023.39     65.25
  -7   2   7    752.42     16.47
  -7   2   8   2464.93     23.52
  -7   2   9  18391.33    161.48
  -7   2  10    125.96     16.94
  -7   2  11   4922.50     42.15
  -7   2  12    239.33     20.33
  -7   2  13    104.55     18.96
  -7   2  14    326.68     20.14
  -7   2  15    139.48     20.37
  -7   2  16   3617.09     77.96
  -7   2  17   2783.73    108.21
  -7   2  18    679.08     28.21
  -7   2  20   1032.40     49.49
  -7   2  21    683.56     39.45
  -7   3   1   5410.36     50.12
  -7   3   2  62796.39    339.30
  -7   3   3   5430.61     40.24
  -7   3   4  17866.21    140.00
  -7   3   5     57.72     15.05
  -7   3   6   2337.15     29.02
  -7   3   7  15160.94    125.64
  -7   3   8  21883.40     95.20
  -7   3   9   9182.77     58.73
  -7   3  10   7585.60     61.41
  -7   3  11   1196.64     24.62
  -7   3  12    124.17     19.13
  -7   3  13  10142.04     99.62
  -7   3  14     29.26     19.24
  -7   3  15  17329.06    175.05
  -7   3  16   2811.51     69.51
  -7   3  17    965.76     52.58
  -7   3  23   1013.06     44.70
  -7   4   1   3312.97     58.91
  -7   4   2    229.01     14.74
  -7   4   3   2997.89     33.11
  -7   4   4   8318.66    125.50
  -7   4   5    788.96     14.79
  -7   4   6     98.99     14.73
  -7   4   7   1631.41     24.89
  -7   4   8   9300.34     90.90
  -7   4   9   3941.60     33.94
  -7   4  10   1713.73     19.61
  -7   4  11     98.23     19.36
  -7   4  12   3041.62     32.66
  -7   4  13   3587.63     25.31
  -7   4  14   4359.80     45.56
  -7   4  15   2686.34    103.76
  -7   4  16   4680.95     40.52
  -7   4  17     19.50     36.88
  -7   4  18  12551.79    190.75
  -7   4  19    309.54     65.78
  -7   4  22    126.47     33.51
  -7   5   1  23283.88    276.78
  -7   5   2   6080.73     48.88
  -7   5   3    830.64     19.29
  -7   5   4   9448.87     94.57
  -7   5   5   2908.50     51.22
  -7   5   6  16819.67     69.42
  -7   5   7   8115.97     53.15
  -7   5   8  14235.23    105.46
  -7   5   9    821.29     19.53
  -7   5  10   9680.74     57.82
  -7   5  11   4827.53     57.39
  -7   5  12  18426.42    225.64
  -7   5  13    402.56     21.20
  -7   5  14   3369.69     62.68
  -7   5  15  14503.74     58.57
  -7   5  16    431.91     33.20
  -7   5  17    925.03     73.45
  -7   5  18      2.07     24.59
  -7   5  20     56.33     41.01
  -7   5  21     90.60     47.34
  -7   6   1    303.50     17.11
  -7   6   2   2017.80     35.03
  -7   6   3   8177.77    106.65
  -7   6   4    942.25     17.21
  -7   6   5   1699.18     28.86
  -7   6   6  11637.89    133.50
  -7   6   7     47.99     14.23
  -7   6   8  19431.03    275.93
  -7   6   9     77.53     14.56
  -7   6  10     66.81     15.08
  -7   6  11   1885.91     62.40
  -7   6  12   1798.33     82.98
  -7   6  13   1482.43     68.68
  -7   6  14    200.34     20.56
  -7   6  15   2839.58     55.84
  -7   6  16   1912.13     96.24
  -7   6  17   1462.50     54.96
  -7   6  18   1663.17    135.95
  -7   6  19    570.35     57.12
  -7   6  20   1509.30     83.58
  -7   7   1  27819.29    307.10
  -7   7   2   4677.23     55.70
  -7   7   3   3445.62     82.58
  -7   7   4  14403.61    220.95
  -7   7   5  20068.01    252.07
  -7   7   6   2200.51     63.25
  -7   7   7  17143.30    186.37
  -7   7   8   1142.58     28.65
  -7   7   9    935.33     20.12
  -7   7  10    802.22     43.55
  -7   7  11    582.88     31.04
  -7   7  12   5187.77    101.41
  -7   7  13   3910.35     71.61
  -7   7  14  14573.90    194.15
  -7   7  15     15.69     21.39
  -7   7  16    793.76     38.97
  -7   7  17      3.35     22.17
  -7   7  18    193.16     20.20
  -7   7  19    153.22     22.20
  -7   8   1   9269.33    153.70
  -7   8   2      8.05     14.21
  -7   8   3   4097.94     93.23
  -7   8   4    710.92     23.03
  -7   8   5   1327.45     39.44
  -7   8   6   1296.37     31.58
  -7   8   7   7259.03    114.69
  -7   8   8    694.14     25.73
  -7   8   9     20.55     12.10
  -7   8  10    242.84     13.56
  -7   8  11      0.00     17.53
  -7   8  12     22.11     14.43
  -7   8  13     10.26     15.92
  -7   8  14     24.03     26.87
  -7   8  15   5115.49    115.14
  -7   8  16     27.07     21.29
  -7   8  17   1894.99    123.21
  -7   8  18     78.33     46.62
  -7   9   1   1593.28     18.97
  -7   9   2    947.60     18.14
  -7   9   3   6082.91    122.82
  -7   9   4    373.34     13.89
  -7   9   5  16211.45    204.14
  -7   9   6   2392.51     98.13
  -7   9   7    141.18     11.87
  -7   9   8    129.39     10.10
  -7   9   9   2383.24     86.03
  -7   9  10     96.50     11.39
  -7   9  11   2150.74     46.55
  -7   9  12      0.00     35.58
  -7   9  13  15494.11    135.15
  -7   9  14    258.61     56.75
  -7   9  16    815.99     74.58
  -7  10   1   1735.39     66.79
  -7  10   2   1702.62     41.72
  -7  10   3     96.49     26.88
  -7  10   4    745.97     44.06
  -7  10   5    791.54     34.43
  -7  10   6   6682.75    131.89
  -7  10   7     92.42     35.95
  -7  10   8   1337.19    136.37
  -7  10   9   1627.68    125.81
  -7  10  10   1852.31    141.03
  -7  10  11    464.58     94.11
  -7  10  12      0.00     47.61
  -7  10  14   3248.57     56.78
  -7  11   1      0.00     15.22
  -7  11   2   1358.26     96.69
  -7  11   3   2269.83    155.22
  -7  11   4  16150.70     70.57
  -7  11   5   2540.77    136.97
  -7  11   6    400.14     19.66
  -7  11   7   1409.49    102.00
  -7  11   8   3887.33     48.38
  -7  11   9    136.14     30.30
  -7  12   1   6098.89    830.34
  -7  12   2   1730.14    215.38
  -7  12   3    487.22     45.37
  -7  12   4   4104.65     72.13
  -7  12   5    329.50     45.01
  -7  12   6   1092.59     54.04
  -7  12   7     96.20     53.14
  -7  12   8    412.12     58.32
  -7  12   9    173.98     52.60
  -7  13   5     37.52     47.16
  -7  13   6     60.09     33.89
  -7  13   7      7.48     47.59
  -6 -12   1    154.60     24.18
  -6 -12   2     35.50     23.78
  -6 -12   3     48.88     28.55
  -6 -12   4   5224.99    163.53
  -6 -12   5     87.74     41.16
  -6 -12   6    823.07     49.99
  -6 -12   7     12.10     30.65
  -6 -12   8    105.03     27.04
  -6 -12   9     33.21     23.74
  -6 -12  10     79.66     24.33
  -6 -12  11    566.59     26.99
  -6 -12  12   2841.24     53.85
  -6 -12  13   1928.31     46.20
  -6 -12  14     21.73     33.14
  -6 -12  15   3194.99     65.34
  -6 -11   1      0.00     20.65
  -6 -11   2     19.92     22.81
  -6 -11   3   2197.53     28.30
  -6 -11   4    932.66     33.54
  -6 -11   5    396.34     36.82
  -6 -11   6    735.64     27.85
  -6 -11   7    183.07     20.66
  -6 -11   8   6106.89     57.04
  -6 -11   9   2758.18     73.09
  -6 -11  10    181.73     21.03
  -6 -11  11      5.45     18.65
  -6 -11  12    598.87     30.87
  -6 -11  13   6672.47    115.89
  -6 -11  14     29.73     20.08
  -6 -11  15     18.40     23.44
  -6 -11  16   1710.63     53.54
  -6 -11  17    184.71     26.38
  -6 -11  18   1465.69     33.80
  -6 -10   1      0.00     20.31
  -6 -10   2     83.52     20.52
  -6 -10   3   8723.50    181.85
  -6 -10   4    698.85     22.14
  -6 -10   5   4491.16     79.90
  -6 -10   6   1172.29     32.80
  -6 -10   7    658.10     26.97
  -6 -10   8   2618.82     65.03
  -6 -10   9   3006.74     66.67
  -6 -10  10   7643.56    112.94
  -6 -10  11    685.80     25.09
  -6 -10  12      0.00     19.00
  -6 -10  13   2100.75     39.78
  -6 -10  14   1597.06     44.73
  -6 -10  15     23.00     20.49
  -6 -10  16    869.98     39.99
  -6 -10  17   1804.92     43.84
  -6 -10  18    245.81     21.66
  -6 -10  19    260.68     22.26
  -6 -10  20   1006.51     48.20
  -6  -9   1   3562.02     39.24
  -6  -9   2    399.70     37.81
  -6  -9   3  14200.83    209.27
  -6  -9   4   3115.09     35.70
  -6  -9   5    803.64     29.60
  -6  -9   6    220.51     28.43
  -6  -9   7   8722.48     73.11
  -6  -9   8    881.59     35.45
  -6  -9   9    120.54     22.59
  -6  -9  10     95.60     20.20
  -6  -9  11    198.87     18.81
  -6  -9  12    814.22     25.78
  -6  -9  13   5714.78    104.12
  -6  -9  14    429.92     25.79
  -6  -9  15   2609.60     35.47
  -6  -9  16     83.73     24.24
  -6  -9  17   3570.98     87.36
  -6  -9  18    262.80     23.26
  -6  -9  19   4227.78     74.46
  -6  -9  20    433.03     35.19
  -6  -9  21   1899.07     50.60
  -6  -9  22   5893.98    157.27
  -6  -8   1   3939.84     32.24
  -6  -8   2  21808.63    162.10
  -6  -8   3    144.56     26.03
  -6  -8   4    124.38     30.94
  -6  -8   5   3230.40     46.70
  -6  -8   6   4181.85     53.02
  -6  -8   7    204.36     24.30
  -6  -8   8    204.63     24.51
  -6  -8   9   3453.75     96.35
  -6  -8  10   5140.93     57.00
  -6  -8  11      3.61     20.59
  -6  -8  12   2814.24     65.86
  -6  -8  13   3478.26     66.49
  -6  -8  14     77.47     21.64
  -6  -8  15   5601.76     65.06
  -6  -8  16     40.86     22.99
  -6  -8  17   2861.18     57.58
  -6  -8  18   5484.19     59.80
  -6  -8  19   2682.96     60.77
  -6  -8  20   1872.56     45.82
  -6  -8  21   2562.76     48.66
  -6  -8  22    300.51     37.22
  -6  -8  23    582.43     48.82
  -6  -7   1    324.02     19.10
  -6  -7   2   9657.47     74.52
  -6  -7   3      0.00     35.22
  -6  -7   4   3663.14     38.60
  -6  -7   5   2133.94     30.61
  -6  -7   6   2858.27     41.77
  -6  -7   7   2111.83     44.81
  -6  -7   8   1415.13     24.12
  -6  -7   9   2349.28     38.26
  -6  -7  10   4813.58     55.78
  -6  -7  11    343.12     21.95
  -6  -7  12  12369.71    143.59
  -6  -7  13    380.04     21.81
  -6  -7  14   9671.07     96.76
  -6  -7  15    223.39     21.25
  -6  -7  16   7836.29    104.15
  -6  -7  17    570.92     28.57
  -6  -7  18   1328.75     31.27
  -6  -7  19   8713.62    260.56
  -6  -7  20      0.00     25.15
  -6  -7  21    414.68     33.60
  -6  -7  22   6639.29    595.14
  -6  -7  23   3889.72    195.35
  -6  -7  24    213.24     46.79
  -6  -6   1   3005.10     42.42
  -6  -6   2  11255.45     98.83
  -6  -6   3    197.26     24.63
  -6  -6   4   7870.25     60.89
  -6  -6   5   5916.28     38.37
  -6  -6   6    212.60     25.59
  -6  -6   7   4330.43     31.73
  -6  -6   8  11226.12     63.33
  -6  -6   9   1134.38     20.99
  -6  -6  10  11122.70    109.22
  -6  -6  11  20120.85    166.89
  -6  -6  12     86.88     18.95
  -6  -6  13   4054.86     47.26
  -6  -6  14   1305.38     23.76
  -6  -6  15   3512.79     51.31
  -6  -6  16   1067.08     25.69
  -6  -6  17   2453.17     55.47
  -6  -6  18    310.13     28.77
  -6  -6  19   3790.32    176.30
  -6  -6  20    533.85     25.25
  -6  -6  21   3400.59     55.18
  -6  -6  22    109.70     63.86
  -6  -6  23     60.99     44.20
  -6  -5   1   8165.91     41.31
  -6  -5   2    218.50     22.73
  -6  -5   3     29.32     22.96
  -6  -5   4  29136.95    189.93
  -6  -5   5   2352.29     26.15
  -6  -5   6  17414.38    107.36
  -6  -5   7   1726.95     23.13
  -6  -5   8   8231.28     81.62
  -6  -5   9   8040.46     62.21
  -6  -5  10    279.35     18.52
  -6  -5  11  14347.94     56.88
  -6  -5  12    939.25     20.46
  -6  -5  13   2066.88     36.44
  -6  -5  14   7749.87     85.21
  -6  -5  15     91.30     24.52
  -6  -5  16   2311.94     52.74
  -6  -5  17   2012.86     43.36
  -6  -5  18  15123.31    350.80
  -6  -5  19    185.40     28.15
  -6  -5  20    600.52     28.00
  -6  -5  21   4329.58     55.50
  -6  -5  23      2.21     62.75
  -6  -4   1   7255.96     85.75
  -6  -4   2   8024.58     61.61
  -6  -4   3  37338.15    265.93
  -6  -4   4  20797.41    133.81
  -6  -4   5   1771.05     24.09
  -6  -4   6    253.66     17.01
  -6  -4   7    784.41     18.60
  -6  -4   8  29408.29    233.28
  -6  -4   9   1854.33     24.90
  -6  -4  10   5129.62     39.75
  -6  -4  11   2628.81     26.56
  -6  -4  12   1492.50     21.40
  -6  -4  13   3044.82     35.73
  -6  -4  14   6449.14     44.68
  -6  -4  15   2046.55     34.39
  -6  -4  16   3406.22     48.45
  -6  -4  17   1113.20     26.53
  -6  -4  18     88.72     37.49
  -6  -4  19   3270.31     40.69
  -6  -4  20  14312.63    166.92
  -6  -4  21      3.23     42.85
  -6  -4  23   5968.06     96.09
  -6  -3   1  13743.52     57.78
  -6  -3   2    708.83     22.56
  -6  -3   3  28903.79    226.49
  -6  -3   4    134.49     21.69
  -6  -3   5  10840.17     44.71
  -6  -3   6      7.75     15.52
  -6  -3   7   5047.98     33.54
  -6  -3   8    158.05     17.41
  -6  -3   9   8458.92     57.86
  -6  -3  10   5081.28     39.08
  -6  -3  11   2371.23     27.73
  -6  -3  12    533.19     19.28
  -6  -3  13  25635.22     96.21
  -6  -3  14      0.00     22.59
  -6  -3  15   1114.36     29.35
  -6  -3  16    469.11     22.06
  -6  -3  17  32056.85    172.97
  -6  -3  18     94.69     30.94
  -6  -3  19    192.92     22.37
  -6  -3  20  12746.97    265.70
  -6  -3  23      1.19     65.63
  -6  -3  25   1344.52     83.21
  -6  -2   1     96.06     19.99
  -6  -2   2   1214.51     31.32
  -6  -2   3   1526.41     25.51
  -6  -2   4   7057.07     80.87
  -6  -2   5    752.32     16.54
  -6  -2   6   4651.81     21.64
  -6  -2   7  38523.82    199.53
  -6  -2   8   8908.85     27.86
  -6  -2   9   8865.72     54.03
  -6  -2  10     72.96     16.71
  -6  -2  11  12042.01     82.97
  -6  -2  12    993.04     20.21
  -6  -2  13  38342.50    181.40
  -6  -2  14    636.98     20.76
  -6  -2  15    229.88     20.51
  -6  -2  16    670.79     23.58
  -6  -2  17   1667.55     44.78
  -6  -2  18   2034.93     36.09
  -6  -2  19   8105.92     96.39
  -6  -2  24    986.68     79.89
  -6  -2  25   2524.46     52.71
  -6  -1   1    233.74     19.07
  -6  -1   2  15823.91    109.90
  -6  -1   3   6374.90     31.93
  -6  -1   4   4970.87     24.09
  -6  -1   5    804.38     15.02
  -6  -1   6   2516.61     18.35
  -6  -1   7  31953.59    157.37
  -6  -1   8  34099.03    192.64
  -6  -1   9   4737.77     32.74
  -6  -1  10    693.06     17.62
  -6  -1  11   8192.26     51.37
  -6  -1  12  34544.70    157.44
  -6  -1  13    184.98     21.07
  -6  -1  14   3348.28     25.22
  -6  -1  15    241.78     26.60
  -6  -1  16   7164.92     35.08
  -6  -1  17  17529.86    137.60
  -6  -1  18   1690.77     31.58
  -6  -1  22    671.35     49.51
  -6  -1  23    148.18     72.49
  -6  -1  24    122.91     36.42
  -6  -1  25   4591.59     78.04
  -6   0   1   2347.46     26.03
  -6   0   2   6688.22     41.46
  -6   0   3   1103.31     20.72
  -6   0   4   7775.61     29.00
  -6   0   5  48445.70    263.71
  -6   0   6  82987.59    376.31
  -6   0   7   1358.10     16.87
  -6   0   8   1964.31     18.31
  -6   0   9  21000.06     99.89
  -6   0  10    356.51     19.17
  -6   0  11   4378.64     34.96
  -6   0  12  17218.90     79.24
  -6   0  13   2608.82     23.14
  -6   0  14    179.60     19.35
  -6   0  15    578.55     24.06
  -6   0  16   1525.97     45.97
  -6   0  17   1525.16     45.46
  -6   0  18   4952.40     57.18
  -6   0  21    313.80     63.50
  -6   0  22  12689.65    201.95
  -6   0  23    917.34     37.86
  -6   0  24   3421.84    141.37
  -6   0  25     47.73     29.44
  -6   1   1   3987.85     25.97
  -6   1   2  66842.97    380.95
  -6   1   3    433.07     16.42
  -6   1   4    290.71     12.96
  -6   1   5   2965.21     18.97
  -6   1   6  32163.24    160.20
  -6   1   7  15157.65    114.22
  -6   1   8  10954.92     84.33
  -6   1   9   5448.97     35.13
  -6   1  10    133.60     16.09
  -6   1  11   2219.61     20.61
  -6   1  12  13836.00     91.89
  -6   1  13   1662.21     21.22
  -6   1  14    881.55     22.00
  -6   1  15    566.81     37.11
  -6   1  16  31492.63    137.87
  -6   1  17     66.65     23.22
  -6   1  19    707.00     65.85
  -6   1  20  20215.65    373.53
  -6   1  21     60.98     47.95
  -6   1  22    773.91     50.16
  -6   1  23   3185.68    160.38
  -6   1  24    522.59     37.10
  -6   1  25    108.13     43.90
  -6   2   1  17676.31    115.08
  -6   2   2  11788.23     98.93
  -6   2   3   2132.26     16.26
  -6   2   4    959.05     13.84
  -6   2   5   1851.97     15.76
  -6   2   6  39620.36    330.78
  -6   2   7    205.24     13.99
  -6   2   8  17444.94    112.02
  -6   2   9    469.27     16.81
  -6   2  10   2304.50     25.23
  -6   2  11  22289.79    160.50
  -6   2  12   1635.24     20.21
  -6   2  13   1976.73     23.25
  -6   2  14   9397.03     80.70
  -6   2  15  11045.76     70.71
  -6   2  16    907.37     29.73
  -6   2  17     18.31     24.44
  -6   2  18   3985.26     79.90
  -6   2  19    176.13     34.60
  -6   2  20    286.64     41.09
  -6   2  21   7939.33     61.54
  -6   2  22      0.00     31.95
  -6   2  23   3206.33     55.15
  -6   2  24    457.00     36.66
  -6   3   1  33053.53    243.67
  -6   3   2   1305.27     19.40
  -6   3   3    943.69     12.96
  -6   3   4     29.59     15.68
  -6   3   5   7070.95     64.81
  -6   3   6     79.50     13.82
  -6   3   7  10384.95     43.60
  -6   3   8  25391.03    204.26
  -6   3   9   5734.19     45.38
  -6   3  10   2220.41     26.19
  -6   3  11  14653.02    117.98
  -6   3  12   8811.29    138.91
  -6   3  13   4839.27     28.11
  -6   3  14    876.54     25.64
  -6   3  15  31027.16    157.51
  -6   3  16    579.88     41.60
  -6   3  17   4808.26    362.25
  -6   3  18  11159.45     73.53
  -6   3  19   2465.12    107.16
  -6   3  20   7800.37    178.21
  -6   3  21     70.23     35.83
  -6   3  22   1831.18     34.71
  -6   3  23    538.59     42.07
  -6   3  24    259.52     34.00
  -6   4   1   1830.74     23.34
  -6   4   2   3713.82     42.96
  -6   4   3    732.15     13.06
  -6   4   4    314.80     11.74
  -6   4   5  21595.84    180.85
  -6   4   6  15024.64    150.93
  -6   4   7  40310.46    203.77
  -6   4   8   8031.97     29.65
  -6   4   9  11176.69    110.23
  -6   4  10   2438.80     30.31
  -6   4  11  21295.01     80.62
  -6   4  12    950.51     27.49
  -6   4  13    754.81     33.47
  -6   4  14   1243.69     40.60
  -6   4  15    260.98     30.02
  -6   4  16    366.08     23.62
  -6   4  17   2480.03     62.11
  -6   4  18     52.23     44.58
  -6   4  19      0.00     32.62
  -6   4  20   3830.54     94.85
  -6   4  21    609.03     42.30
  -6   4  22    611.50     52.79
  -6   4  23   4023.09     76.80
  -6   5   1    160.77     11.70
  -6   5   2  15626.08    163.64
  -6   5   3  14485.74    175.79
  -6   5   4   1499.24     30.16
  -6   5   5   8360.20     73.95
  -6   5   6   7774.64     82.26
  -6   5   7  30790.31    184.63
  -6   5   8   3612.99     61.84
  -6   5   9   1812.18     23.16
  -6   5  10   7133.87    119.83
  -6   5  11   7011.00     47.38
  -6   5  12    337.57     19.16
  -6   5  13   3614.00     74.36
  -6   5  14   6148.08     51.90
  -6   5  15   8086.68     59.81
  -6   5  16   1385.01     30.74
  -6   5  17  13194.22     67.89
  -6   5  18    920.96     73.04
  -6   5  19   4128.47     49.19
  -6   5  20   2786.84     59.19
  -6   5  21   5132.25     54.68
  -6   5  22     27.57     27.03
  -6   6   1  17782.96    142.26
  -6   6   2   8934.84     96.03
  -6   6   3   6918.48     84.18
  -6   6   4  26824.66    211.82
  -6   6   5   2107.73     45.72
  -6   6   6   1545.47     34.13
  -6   6   7   3713.48     60.26
  -6   6   8    527.26     15.77
  -6   6   9   8057.95     86.42
  -6   6  10  14449.15    122.74
  -6   6  11     72.76     16.17
  -6   6  12    857.29     35.96
  -6   6  13    692.39     32.37
  -6   6  14     49.52     17.78
  -6   6  15    192.48     19.57
  -6   6  16   5692.24     64.04
  -6   6  17   1580.07     64.97
  -6   6  18   1171.51     55.27
  -6   6  19    179.19     23.43
  -6   6  20   1980.44    113.41
  -6   6  21    188.97     22.43
  -6   7   1   4135.13     84.72
  -6   7   2   2979.94     80.62
  -6   7   3     28.45      8.74
  -6   7   4   4612.67     66.83
  -6   7   5   2518.76     65.61
  -6   7   6  14072.03    193.11
  -6   7   7   1256.09     26.36
  -6   7   8    568.06     27.30
  -6   7   9   1150.26     41.26
  -6   7  10   2429.20     66.83
  -6   7  11   6596.04     40.10
  -6   7  12   6031.05     40.91
  -6   7  13   2904.27     61.07
  -6   7  14   2875.55    138.24
  -6   7  15    954.17     68.43
  -6   7  16  20654.57     77.14
  -6   7  17    112.64     19.42
  -6   7  18   5093.20     49.87
  -6   7  19    908.56     29.64
  -6   7  20    105.83     22.93
  -6   8   1   4222.09     85.94
  -6   8   2   1733.71     45.18
  -6   8   3   3066.25     31.09
  -6   8   4   3143.70     48.49
  -6   8   5     74.38     11.06
  -6   8   6   5505.63     80.39
  -6   8   7     33.14     10.93
  -6   8   8    235.42     14.65
  -6   8   9  25932.48    284.35
  -6   8  10   1849.90     76.48
  -6   8  11    506.55     29.15
  -6   8  12   1145.05     50.55
  -6   8  13   2385.90     28.89
  -6   8  14    650.81     26.82
  -6   8  15    857.84     38.96
  -6   8  16     18.85     18.42
  -6   8  17      1.16     42.34
  -6   8  18    321.82     49.57
  -6   9   1    240.99      7.90
  -6   9   2    338.27     12.07
  -6   9   3   4755.81    141.69
  -6   9   4   3286.60     69.50
  -6   9   5   1023.25     65.39
  -6   9   6   9681.92    246.88
  -6   9   7   1834.93     58.45
  -6   9   8    426.61     13.84
  -6   9   9     66.93     10.52
  -6   9  10  10693.88   1133.00
  -6   9  11   3124.11     90.34
  -6   9  12   1860.09     45.96
  -6   9  13   2782.96     51.15
  -6   9  14     34.04     27.91
  -6   9  15   2184.18    127.52
  -6   9  16   3608.06    115.72
  -6   9  17    448.69     32.65
  -6  10   1    173.95     11.54
  -6  10   2   6586.40    184.92
  -6  10   3    373.69     22.08
  -6  10   4   6315.20    577.91
  -6  10   5   8283.13    988.64
  -6  10   6   1225.34     68.07
  -6  10   7   1632.82     37.10
  -6  10   8   5553.61    564.73
  -6  10   9   1971.33     39.74
  -6  10  10   1305.80    103.80
  -6  10  11      7.53     37.48
  -6  10  12    664.90     65.90
  -6  10  13    239.64     49.54
  -6  10  14    358.91     60.77
  -6  10  15      0.00     33.58
  -6  11   1   3824.69    506.52
  -6  11   2    816.86     83.85
  -6  11   3    191.80     14.07
  -6  11   4    831.14     52.39
  -6  11   5   6726.53    597.28
  -6  11   6    202.73     17.43
  -6  11   7    278.16     29.11
  -6  11   8    334.45     28.92
  -6  11   9   1943.92    158.58
  -6  11  10     97.37     30.83
  -6  11  11   2433.36     72.85
  -6  11  12   2499.34     79.96
  -6  11  13    106.03     62.58
  -6  12   1   1499.47     42.85
  -6  12   2   1125.54    113.57
  -6  12   3      9.11     25.44
  -6  12   4     16.32     27.49
  -6  12   5    329.65     61.36
  -6  12   6     35.04     42.53
  -6  12   7   1516.75     57.60
  -6  12   8   3358.93     75.99
  -6  12   9    351.32     57.20
  -6  12  10    545.34     41.51
  -6  12  11   2089.21    257.96
  -6  13   6      8.68     46.27
  -6  13   7   1146.89     56.11
  -6  13   8      0.00     47.55
  -5 -13   3    407.65     27.68
  -5 -13   4     69.19     26.88
  -5 -13   5    134.01     27.68
  -5 -13   6     66.50     28.28
  -5 -13   7    677.39     31.56
  -5 -13   8   3429.90     61.98
  -5 -13   9    305.76     31.79
  -5 -13  10    234.70     32.22
  -5 -13  11   1975.64    146.05
  -5 -13  12   2904.45    116.66
  -5 -13  13    523.97     32.36
  -5 -12   1    433.75     18.45
  -5 -12   2    889.05     24.28
  -5 -12   3   3407.46     83.63
  -5 -12   4     64.42     26.28
  -5 -12   5    439.17     28.72
  -5 -12   6   9276.49    180.51
  -5 -12   7   5042.13     86.06
  -5 -12   8     15.20     26.80
  -5 -12   9   5856.16     69.46
  -5 -12  10   5032.48    144.29
  -5 -12  11   1741.06     68.02
  -5 -12  12   2148.27     49.07
  -5 -12  13   1407.69     50.05
  -5 -12  14     37.23     22.99
  -5 -12  15    638.26     28.52
  -5 -12  16     42.62     24.34
  -5 -12  17     60.10     28.87
  -5 -11   1   3979.06    114.10
  -5 -11   2     14.12     18.13
  -5 -11   3   3296.85     51.56
  -5 -11   4   1388.96     23.85
  -5 -11   5   3693.91     88.33
  -5 -11   6   8767.76    133.52
  -5 -11   7   1509.30     30.68
  -5 -11   8    947.19     27.98
  -5 -11   9    201.04     18.62
  -5 -11  10    736.06     21.33
  -5 -11  11   1056.97     45.89
  -5 -11  12      0.63     16.58
  -5 -11  13   1150.27     43.26
  -5 -11  14     48.46     16.72
  -5 -11  15    424.58     23.59
  -5 -11  16   5898.86    157.61
  -5 -11  17   3740.85    116.62
  -5 -11  18   1061.77     43.96
  -5 -11  19      0.00     32.16
  -5 -11  20   4321.30     89.95
  -5 -10   1    681.82     19.71
  -5 -10   2   9603.62    163.08
  -5 -10   3    140.44     18.14
  -5 -10   4   1070.75     21.05
  -5 -10   5  12508.13    216.59
  -5 -10   6   8042.56    123.40
  -5 -10   7   4657.32     45.30
  -5 -10   8    723.87     23.32
  -5 -10   9    165.36     26.82
  -5 -10  10  12788.37    133.32
  -5 -10  11   3475.38     55.04
  -5 -10  12   1756.26     45.19
  -5 -10  13     27.79     17.60
  -5 -10  14    555.92     25.04
  -5 -10  15    532.36     21.80
  -5 -10  16    972.65     33.13
  -5 -10  17    943.75     26.54
  -5 -10  18   3837.96     67.11
  -5 -10  19   2122.47     71.33
  -5 -10  20     58.33     38.63
  -5 -10  21    861.00     39.74
  -5 -10  22   3826.87    323.78
  -5  -9   1   8208.93     93.85
  -5  -9   2     98.28     19.80
  -5  -9   3   1195.84     28.14
  -5  -9   4    393.26     20.81
  -5  -9   5   3663.42     36.07
  -5  -9   6   8624.71     90.23
  -5  -9   7   1660.64     40.75
  -5  -9   8    236.56     20.69
  -5  -9   9    934.10     23.84
  -5  -9  10   1432.29     23.50
  -5  -9  11    573.87     20.97
  -5  -9  12    325.34     21.42
  -5  -9  13   5827.88     49.05
  -5  -9  14   1348.59     36.02
  -5  -9  15  13737.92    204.00
  -5  -9  16   9893.84    120.75
  -5  -9  17   1018.27     57.19
  -5  -9  18     41.95     22.06
  -5  -9  19   5015.00    113.88
  -5  -9  20   1580.39     92.64
  -5  -9  21   1395.25     38.96
  -5  -9  22      6.94     46.76
  -5  -8   1   8085.43    154.80
  -5  -8   2   5682.02     71.33
  -5  -8   3   1320.51     24.16
  -5  -8   4   4834.37     59.25
  -5  -8   5  13514.18    134.96
  -5  -8   6  20787.94    192.55
  -5  -8   7      0.00     19.23
  -5  -8   8   2521.48     57.25
  -5  -8   9   9755.38    105.46
  -5  -8  10  23527.98    212.43
  -5  -8  11   7626.76     85.06
  -5  -8  12    910.26     32.85
  -5  -8  13   3982.22     61.18
  -5  -8  14    340.30     26.27
  -5  -8  15   1831.84     46.01
  -5  -8  16   1423.91     23.14
  -5  -8  17     58.07     25.19
  -5  -8  18    124.23     20.45
  -5  -8  19   1400.51     29.67
  -5  -8  20    477.35     29.88
  -5  -8  21   3689.39    250.73
  -5  -8  22   3527.33    214.84
  -5  -8  23    106.68     61.85
  -5  -7   1     21.81     20.53
  -5  -7   2    865.35     18.06
  -5  -7   3   4239.18     79.59
  -5  -7   4  11806.56    160.65
  -5  -7   5   3520.86     60.47
  -5  -7   6  25612.15    248.17
  -5  -7   7  12305.81    111.60
  -5  -7   8   2638.87     22.19
  -5  -7   9   1176.83     18.65
  -5  -7  10    526.55     18.28
  -5  -7  11    123.51     16.81
  -5  -7  12   4046.62     52.96
  -5  -7  13    132.86     20.36
  -5  -7  14  10752.04     82.20
  -5  -7  15  19509.18    202.13
  -5  -7  16    672.18     29.42
  -5  -7  17   3676.97     90.88
  -5  -7  18   1787.75     36.49
  -5  -7  19   3592.31     36.11
  -5  -7  20   6936.21    388.34
  -5  -7  21    480.57     41.79
  -5  -7  22     42.83     42.44
  -5  -6   1  47567.71    363.16
  -5  -6   2   8596.78     40.18
  -5  -6   3   5583.29     70.15
  -5  -6   4   8565.69     67.01
  -5  -6   5  56789.51    368.66
  -5  -6   6     86.91     21.95
  -5  -6   7   8706.79     57.38
  -5  -6   8  15583.81    125.46
  -5  -6   9  18075.37    126.31
  -5  -6  10   1859.16     19.60
  -5  -6  11   9090.78     85.05
  -5  -6  12    325.26     17.90
  -5  -6  13    361.08     19.95
  -5  -6  14   3269.83     37.11
  -5  -6  15   1225.21     27.76
  -5  -6  16    393.15     21.16
  -5  -6  17      0.00     25.07
  -5  -6  18      6.62     20.47
  -5  -6  19   5671.03     79.37
  -5  -6  21    692.55     59.84
  -5  -6  22   5162.22    379.12
  -5  -6  23    108.83     61.94
  -5  -6  25    424.84     33.45
  -5  -5   1  15968.32    135.43
  -5  -5   2    346.84     15.83
  -5  -5   3    398.60     21.04
  -5  -5   4  42899.93    405.01
  -5  -5   5  12523.99     81.42
  -5  -5   6    892.16     20.96
  -5  -5   7     45.29     17.45
  -5  -5   8     22.86     15.54
  -5  -5   9    313.22     15.60
  -5  -5  10    499.91     16.80
  -5  -5  11   2183.44     34.80
  -5  -5  12     11.32     17.24
  -5  -5  13  15039.69     60.26
  -5  -5  14  13457.13     77.48
  -5  -5  15  20388.21    192.33
  -5  -5  16  15481.68     59.79
  -5  -5  17    720.20     39.79
  -5  -5  18   3428.30     44.45
  -5  -5  19  16865.30    589.75
  -5  -5  20    419.59     59.48
  -5  -5  21     67.93     56.67
  -5  -5  22   4383.29     87.13
  -5  -5  24    597.24     37.69
  -5  -5  25    790.58     39.24
  -5  -5  26    527.11     31.23
  -5  -4   1   2356.90     66.11
  -5  -4   2   9365.65     68.06
  -5  -4   3  23285.45    254.70
  -5  -4   4  27686.20    202.19
  -5  -4   5  28736.64    160.39
  -5  -4   6    328.85     16.68
  -5  -4   7   7065.11     80.13
  -5  -4   8  16388.16     54.24
  -5  -4   9  23919.80    132.96
  -5  -4  10  17876.71    108.36
  -5  -4  11    380.59     17.10
  -5  -4  12   3529.07     23.33
  -5  -4  13  23494.41    219.22
  -5  -4  14   6576.31     48.07
  -5  -4  15    869.40     22.10
  -5  -4  16   4472.86     82.33
  -5  -4  17   5833.28    136.69
  -5  -4  18     45.95     24.56
  -5  -4  21   2109.27     70.32
  -5  -4  22    213.68     48.24
  -5  -4  23   2373.74    143.93
  -5  -4  24     28.53     46.00
  -5  -4  25   5534.66    173.97
  -5  -4  26   1087.20     34.64
  -5  -3   1   3473.66     25.31
  -5  -3   2   2305.92     23.60
  -5  -3   3  65801.20    738.06
  -5  -3   4  27726.45    159.33
  -5  -3   5    974.68     15.64
  -5  -3   6    846.52     14.63
  -5  -3   7   7409.54     39.37
  -5  -3   8  18592.21    115.48
  -5  -3   9  24437.74    137.43
  -5  -3  10   5938.95     35.83
  -5  -3  11   8822.47     73.61
  -5  -3  12   4723.65     40.04
  -5  -3  13  23616.79    168.28
  -5  -3  14  31103.36    159.69
  -5  -3  15   8207.41     48.27
  -5  -3  16   3553.76     67.01
  -5  -3  17   3958.02     43.00
  -5  -3  18  10785.36    105.82
  -5  -3  19   4737.48     56.24
  -5  -3  20   1966.56     49.33
  -5  -3  21   2508.54     73.36
  -5  -3  22    230.31     49.52
  -5  -3  23    192.03     65.32
  -5  -3  24   3149.60    182.40
  -5  -3  25    311.75     35.89
  -5  -3  26     39.92     36.70
  -5  -2   1  12261.06     60.87
  -5  -2   2  79369.78    427.17
  -5  -2   3    671.32     20.84
  -5  -2   4  123201.1    447.82
  -5  -2   5   1201.75     14.69
  -5  -2   6  17382.69     79.89
  -5  -2   7   1974.45     16.84
  -5  -2   8  88856.83    626.22
  -5  -2   9  29337.14    164.55
  -5  -2  10    104.48     15.44
  -5  -2  11    118.67     16.33
  -5  -2  12   1191.86     21.70
  -5  -2  13   8064.21     56.78
  -5  -2  14   6308.35     70.40
  -5  -2  15    562.20     23.73
  -5  -2  16   3140.01     51.13
  -5  -2  17    136.92     24.66
  -5  -2  18    539.81     31.36
  -5  -2  19   7203.55    239.75
  -5  -2  20   8144.53     96.87
  -5  -2  21    472.34     32.16
  -5  -2  24    684.24     35.93
  -5  -2  25   7852.58     85.10
  -5  -2  26    277.15     26.37
  -5  -1   1  63784.86    607.01
  -5  -1   2  189832.6   1024.34
  -5  -1   3   5080.96     22.00
  -5  -1   4  29040.03    195.47
  -5  -1   5  24021.46    112.34
  -5  -1   6   4632.58     28.93
  -5  -1   7    449.60     13.92
  -5  -1   8   4619.51     26.21
  -5  -1   9    193.54     14.74
  -5  -1  10   2291.72     19.17
  -5  -1  11   4837.60     23.68
  -5  -1  12  31195.62    294.72
  -5  -1  13  28689.82    162.35
  -5  -1  14    454.62     19.18
  -5  -1  15   5482.11     68.06
  -5  -1  16  11043.61     86.25
  -5  -1  17   1484.44     22.34
  -5  -1  18  23268.27    102.50
  -5  -1  19   3198.07     75.33
  -5  -1  20   5186.95     76.66
  -5  -1  23   4643.21     91.70
  -5  -1  24    392.75     31.75
  -5  -1  25    265.70     25.76
  -5  -1  26    443.56     26.77
  -5   0   1  143981.2    566.48
  -5   0   2   1118.57     22.20
  -5   0   3  154474.0    603.66
  -5   0   4   9293.99     39.48
  -5   0   5   2450.64     15.70
  -5   0   6  36501.52    187.13
  -5   0   7  18526.94     85.03
  -5   0   8   1101.10     15.38
  -5   0   9   7196.07     29.17
  -5   0  10    616.25     16.02
  -5   0  11   1109.31     17.76
  -5   0  12  23892.68    140.43
  -5   0  13   1744.07     22.15
  -5   0  14  11189.63     41.59
  -5   0  15  16486.46    218.68
  -5   0  16   2336.24     46.55
  -5   0  17   1415.13     45.97
  -5   0  18  20229.30    401.43
  -5   0  19   1158.76     35.04
  -5   0  20   2468.94     47.95
  -5   0  22   1023.31     93.11
  -5   0  23   2471.36     55.10
  -5   0  24   6011.02     77.92
  -5   0  25     49.72     25.20
  -5   0  26      7.32     25.74
  -5   1   1  14169.98     94.18
  -5   1   2  121279.6    411.23
  -5   1   3   9117.82     38.83
  -5   1   4  15660.72     76.15
  -5   1   5   4910.39     36.33
  -5   1   6     84.70     14.11
  -5   1   7   4068.03     41.89
  -5   1   8    841.42     14.66
  -5   1   9   7946.48     29.24
  -5   1  10   1236.36     18.25
  -5   1  11  79650.47    340.68
  -5   1  12   6185.15     35.61
  -5   1  13   9106.64     54.10
  -5   1  14  10300.73     69.86
  -5   1  15  11217.55    165.08
  -5   1  16    768.13     40.87
  -5   1  17  25139.54    206.20
  -5   1  18    334.91     23.83
  -5   1  19   5402.67     99.91
  -5   1  20    964.66     49.53
  -5   1  21    174.23     31.78
  -5   1  22      0.00     26.53
  -5   1  23    574.12     28.11
  -5   1  24    105.88     30.41
  -5   1  25      0.00     35.71
  -5   2   1  23877.88    168.50
  -5   2   2  34865.28    172.07
  -5   2   3  42413.20    241.96
  -5   2   4   3848.75     39.68
  -5   2   5  104684.2    603.28
  -5   2   6    673.79     12.79
  -5   2   7   9359.42     65.67
  -5   2   8    328.78     14.31
  -5   2   9  18047.01    131.32
  -5   2  10  17562.79    152.15
  -5   2  11  44746.85    222.57
  -5   2  12   2628.50     31.54
  -5   2  13   2372.54     43.03
  -5   2  14      4.93     17.74
  -5   2  15   6845.28     91.87
  -5   2  16   3315.36     75.72
  -5   2  17   5560.61     68.95
  -5   2  18   3999.54     71.32
  -5   2  19   1902.70     51.47
  -5   2  20    573.88     32.04
  -5   2  21    973.39     28.36
  -5   2  22    284.09     23.68
  -5   2  23  10487.56    166.04
  -5   2  24    242.17     25.07
  -5   2  25    692.67     26.91
  -5   3   1  86419.19    821.92
  -5   3   2  62563.80    308.91
  -5   3   3  55190.39    418.88
  -5   3   4  30670.63    181.56
  -5   3   5  14764.58    107.08
  -5   3   6   5662.49     53.93
  -5   3   7  14181.81     83.34
  -5   3   8   2098.34     20.89
  -5   3   9   1462.28     19.22
  -5   3  10  35209.00    190.76
  -5   3  11  16920.14     74.15
  -5   3  12   8183.06    102.02
  -5   3  13   4948.11     81.17
  -5   3  14   7118.26     70.48
  -5   3  15   4883.32    123.23
  -5   3  16  11049.02    152.31
  -5   3  17   1347.96     51.47
  -5   3  18   2955.10    103.54
  -5   3  19   6644.35    109.73
  -5   3  20   2627.29     66.79
  -5   3  21    427.37     23.03
  -5   3  22    115.16     24.69
  -5   3  23   1741.47     50.94
  -5   3  24    639.58     25.85
  -5   4   1   1946.90     25.24
  -5   4   2  38957.01    248.69
  -5   4   3  25019.70    132.56
  -5   4   4  108030.2    757.45
  -5   4   5     96.42     10.72
  -5   4   6  12703.71    147.55
  -5   4   7   1899.10     14.88
  -5   4   8    708.88     13.45
  -5   4   9    682.88     14.16
  -5   4  10   1583.80     17.05
  -5   4  11   5382.47    110.52
  -5   4  12   3972.28     77.35
  -5   4  13   1836.85     53.00
  -5   4  14  12349.86    209.81
  -5   4  15    884.41     26.35
  -5   4  16  12094.32     67.67
  -5   4  17     32.20     22.67
  -5   4  18   8412.44     57.53
  -5   4  19    498.69     33.73
  -5   4  20   4878.19     45.15
  -5   4  21   1973.36     77.99
  -5   4  22   2383.06     63.28
  -5   4  23    939.51     30.71
  -5   5   1  15351.32    114.59
  -5   5   2     19.47      9.75
  -5   5   3   2628.26     37.59
  -5   5   4   1475.59     15.04
  -5   5   5    611.44     11.94
  -5   5   6   5958.85    100.31
  -5   5   7   1425.69     17.49
  -5   5   8    576.29     17.26
  -5   5   9  17795.56    111.86
  -5   5  10  16558.91     98.74
  -5   5  11  12903.60    114.85
  -5   5  12   6442.88     65.95
  -5   5  13    119.86     16.01
  -5   5  14  16105.11     92.91
  -5   5  15   2027.25     55.88
  -5   5  16   4961.69     43.07
  -5   5  17    644.46     28.00
  -5   5  18   9924.85     65.38
  -5   5  19   2035.36     68.96
  -5   5  20    224.70     21.57
  -5   5  21     34.24     21.97
  -5   5  22    337.31     23.49
  -5   6   1  28268.14    337.52
  -5   6   2  10500.93    221.68
  -5   6   3  15413.31    131.75
  -5   6   4  24387.00    284.54
  -5   6   5    256.51      9.91
  -5   6   6    584.10     15.19
  -5   6   7   1266.32     24.25
  -5   6   8   8464.26     66.37
  -5   6   9     99.46     20.23
  -5   6  10   1256.04     44.26
  -5   6  11   1282.29     49.37
  -5   6  12  17787.68    216.71
  -5   6  13  17431.76     64.09
  -5   6  14   1416.67     48.20
  -5   6  15   3531.57     35.07
  -5   6  16   4771.52     61.37
  -5   6  17     71.05     22.11
  -5   6  18   2044.71     55.64
  -5   6  19    490.69     31.00
  -5   6  20     68.67     22.45
  -5   6  21   1733.21     62.43
  -5   7   1   2802.06     56.58
  -5   7   2   6754.28    124.58
  -5   7   3    381.39     11.73
  -5   7   4    643.63     16.79
  -5   7   5  17441.47    205.58
  -5   7   6  11136.62    114.40
  -5   7   7   6484.89     89.47
  -5   7   8    497.82     18.68
  -5   7   9  30860.25    144.02
  -5   7  10   3502.49     26.63
  -5   7  11    143.59     12.78
  -5   7  12    843.87     31.85
  -5   7  13   7525.17     51.67
  -5   7  14   2642.12    101.02
  -5   7  15   3202.37     67.73
  -5   7  16    296.75     22.49
  -5   7  17   4092.61     96.53
  -5   7  18    109.82     18.99
  -5   7  19    294.22     21.47
  -5   7  20      0.00     20.38
  -5   8   1   1088.27     22.45
  -5   8   2    155.59     10.58
  -5   8   3  32455.34    272.85
  -5   8   4    936.28     17.56
  -5   8   5   4276.69     92.72
  -5   8   6   7479.78     70.84
  -5   8   7   9691.32     39.44
  -5   8   8     35.14      7.63
  -5   8   9   2602.11     76.64
  -5   8  10     42.84     13.23
  -5   8  11    740.17     45.19
  -5   8  12    142.42     14.56
  -5   8  13   2325.44     77.13
  -5   8  14   4426.01     35.31
  -5   8  15   4060.15     92.76
  -5   8  16     59.33     16.79
  -5   8  17   1068.35     55.31
  -5   8  18   1578.06    129.65
  -5   8  19    991.31     61.38
  -5   9   1  16118.62     76.03
  -5   9   2   3073.84     34.28
  -5   9   3   1100.90     62.27
  -5   9   4   1160.67     48.85
  -5   9   5    221.08     18.56
  -5   9   6    756.97     41.31
  -5   9   7   2688.08    138.33
  -5   9   8  14135.87   1377.05
  -5   9   9   4308.58     67.81
  -5   9  10     47.34      8.95
  -5   9  11    605.75     58.49
  -5   9  12   2969.07     72.26
  -5   9  13   1859.29    122.06
  -5   9  14   4732.91     59.39
  -5   9  15    970.19     52.12
  -5   9  16    243.49     43.46
  -5   9  17   1878.36    117.17
  -5  10   1   1508.58    120.01
  -5  10   2  18020.17    544.60
  -5  10   3   1174.08     63.77
  -5  10   4    676.92     25.64
  -5  10   5    130.83     14.36
  -5  10   6     13.82     14.82
  -5  10   7   3200.02    173.05
  -5  10   8    466.72     29.86
  -5  10   9    194.84     20.57
  -5  10  10     32.14     23.00
  -5  10  11    100.37     32.29
  -5  10  12    635.13     52.05
  -5  10  13     14.57     25.34
  -5  10  14  12618.24    214.95
  -5  10  15   1207.15    101.10
  -5  10  16   1712.43    141.15
  -5  11   1   1365.82     94.77
  -5  11   2     88.09     23.03
  -5  11   3    471.55     37.13
  -5  11   4    783.17     57.78
  -5  11   5    615.47     42.78
  -5  11   6     42.33     18.29
  -5  11   7  14249.96    485.05
  -5  11   8    276.32     18.46
  -5  11   9   3018.74     86.23
  -5  11  10   2994.62     45.78
  -5  11  11    159.81     38.25
  -5  11  12   3137.02    426.59
  -5  11  13   1579.02    260.67
  -5  12   1   5046.76    498.81
  -5  12   2   1464.31    216.30
  -5  12   3     70.75     23.12
  -5  12   4    920.44    122.73
  -5  12   5   1176.83    171.97
  -5  12   6   1347.15     55.10
  -5  12   7   2700.92    470.71
  -5  12   8   1905.09     61.42
  -5  12   9   1313.68    158.27
  -5  12  10    645.28     56.52
  -5  12  11    882.89    135.49
  -5  13   6   2107.42    325.91
  -5  13   7   2477.57    335.87
  -5  13   8    120.56     34.97
  -4 -14   9    207.39     31.20
  -4 -13   4   1539.04     43.39
  -4 -13   5   5846.85     64.54
  -4 -13   6   1229.12     45.70
  -4 -13   7    496.42     33.36
  -4 -13   8    210.75     31.75
  -4 -13   9   3002.20    129.43
  -4 -13  10     35.55     26.16
  -4 -13  11      0.00     26.92
  -4 -13  12    343.78     29.02
  -4 -13  13     77.83     29.24
  -4 -13  14     25.27     46.01
  -4 -13  15    720.45     50.71
  -4 -13  16     35.10     31.88
  -4 -12   1   1577.62     24.44
  -4 -12   2    668.08     34.70
  -4 -12   3   3558.92    102.95
  -4 -12   4    408.24     37.58
  -4 -12   5    180.29     19.49
  -4 -12   6    426.42     25.59
  -4 -12   7   9369.30    269.48
  -4 -12   8    511.30     23.31
  -4 -12   9   2631.69    111.12
  -4 -12  10   1998.69     39.12
  -4 -12  11    963.42     61.03
  -4 -12  12   1560.96     50.49
  -4 -12  13    161.01     20.97
  -4 -12  14   2097.52     71.01
  -4 -12  15    541.51     23.96
  -4 -12  16    232.30     23.68
  -4 -12  17   2364.80    101.83
  -4 -12  18   1393.51     70.04
  -4 -12  19   2186.86     49.04
  -4 -11   1   8386.46    105.21
  -4 -11   2      5.16     15.53
  -4 -11   3     17.36     18.00
  -4 -11   4    412.11     16.17
  -4 -11   5   3638.58     90.38
  -4 -11   6   2229.54     60.60
  -4 -11   7     94.01     15.59
  -4 -11   8   4295.16     87.96
  -4 -11   9     59.28     12.92
  -4 -11  10     96.81     16.88
  -4 -11  11      0.00     16.02
  -4 -11  12    387.74     15.42
  -4 -11  13   2364.09     68.71
  -4 -11  14   6782.20     84.75
  -4 -11  15    876.86     29.42
  -4 -11  16    252.69     17.19
  -4 -11  17   1072.23     36.04
  -4 -11  18   3582.29    171.83
  -4 -11  19     71.99     54.31
  -4 -11  21   1054.61     72.35
  -4 -10   1     37.47     18.38
  -4 -10   2   1620.99     41.91
  -4 -10   3   2272.46     30.60
  -4 -10   4     41.67     17.35
  -4 -10   5   1723.95     47.68
  -4 -10   6  11604.15    279.44
  -4 -10   7   1509.94     51.08
  -4 -10   8     24.17     18.28
  -4 -10   9  16566.18    178.88
  -4 -10  10    137.28     21.70
  -4 -10  11   5993.38     54.28
  -4 -10  12    236.77     19.14
  -4 -10  13   7121.08    140.81
  -4 -10  14   1349.14     36.32
  -4 -10  15    458.09     19.82
  -4 -10  16   3696.77     93.23
  -4 -10  17    842.51     35.26
  -4 -10  18      9.24     23.09
  -4 -10  19   1299.04     49.30
  -4 -10  20     37.25     25.84
  -4 -10  21   1181.21    122.05
  -4 -10  22    289.55     37.25
  -4  -9   1   2372.44     45.43
  -4  -9   2    343.11     17.85
  -4  -9   3    285.82     17.58
  -4  -9   4  10568.75     93.45
  -4  -9   5    429.52     25.53
  -4  -9   6   5103.69     82.68
  -4  -9   7  22212.75    196.48
  -4  -9   8   1037.30     23.89
  -4  -9   9   2540.80     63.40
  -4  -9  10   4512.54    112.42
  -4  -9  11   2579.06     40.89
  -4  -9  12    447.24     16.59
  -4  -9  13    507.47     25.44
  -4  -9  14   1652.09     44.80
  -4  -9  15    537.72     29.28
  -4  -9  16    525.20     24.56
  -4  -9  17   2771.84     66.94
  -4  -9  18   1291.48     34.94
  -4  -9  19    700.57     30.79
  -4  -9  21    766.34     34.16
  -4  -9  22    310.95     33.85
  -4  -9  24    300.57     33.16
  -4  -8   1   9377.53    119.94
  -4  -8   2    347.78     15.16
  -4  -8   3  14548.64    178.76
  -4  -8   4  17610.83    266.19
  -4  -8   5   4268.30     67.40
  -4  -8   6  10985.55     88.02
  -4  -8   7     60.09     18.59
  -4  -8   8  21358.36     74.09
  -4  -8   9    340.30     14.49
  -4  -8  10   6554.17     83.06
  -4  -8  11   1072.02     18.68
  -4  -8  12   2415.96     41.30
  -4  -8  13   2159.71     54.98
  -4  -8  14   2092.47     51.31
  -4  -8  15   1416.04     29.97
  -4  -8  16    970.90     21.21
  -4  -8  17   1912.08     41.26
  -4  -8  18   4395.68    188.22
  -4  -8  19      0.00     29.02
  -4  -8  20      6.51     29.63
  -4  -8  21   4227.45     89.39
  -4  -8  22   3621.08     76.18
  -4  -8  23   2054.86     63.44
  -4  -8  24     32.95     26.55
  -4  -8  25   1781.46     43.19
  -4  -7   1  12971.16    111.96
  -4  -7   2   7889.66     72.80
  -4  -7   3  28984.10    265.91
  -4  -7   4   2583.36     22.65
  -4  -7   5   1217.44     19.49
  -4  -7   6   1877.60     20.30
  -4  -7   7  16543.78    141.63
  -4  -7   8   2342.88     22.47
  -4  -7   9    340.33     14.35
  -4  -7  10   1729.63     31.96
  -4  -7  11    355.16     19.06
  -4  -7  12   1031.15     20.30
  -4  -7  13   1539.17     27.86
  -4  -7  14    307.12     19.00
  -4  -7  15   7681.07    172.22
  -4  -7  16  11614.55    184.98
  -4  -7  17     93.22     24.55
  -4  -7  18   1629.82     55.90
  -4  -7  19   1417.78     57.01
  -4  -7  20   6905.33    473.26
  -4  -7  21    163.59     32.40
  -4  -7  22   5697.82    200.24
  -4  -7  23     16.35     35.69
  -4  -7  24      0.00     34.55
  -4  -7  25     61.12     35.24
  -4  -7  26    113.67     40.53
  -4  -6   1   4342.62     48.42
  -4  -6   2   8124.00     50.90
  -4  -6   3   7391.76     67.49
  -4  -6   4  13552.74    256.66
  -4  -6   5  18917.07    200.24
  -4  -6   6    191.80     13.91
  -4  -6   7  13080.81     94.23
  -4  -6   8   6881.57     43.79
  -4  -6   9   8417.65    105.36
  -4  -6  10    159.37     16.35
  -4  -6  11   2112.02     30.60
  -4  -6  12  20310.31    183.50
  -4  -6  13   4976.74     75.59
  -4  -6  14   4391.35     84.36
  -4  -6  15    207.65     25.71
  -4  -6  16  10637.38     86.65
  -4  -6  17   7520.54    114.12
  -4  -6  18     52.40     37.97
  -4  -6  19   1249.36     38.78
  -4  -6  20    462.73     40.40
  -4  -6  21    408.68     55.01
  -4  -6  22    717.47     37.27
  -4  -6  23   2842.21    135.82
  -4  -6  24   1761.72     57.51
  -4  -6  25     20.81     34.13
  -4  -6  26    353.16     26.24
  -4  -5   1   5209.47     44.86
  -4  -5   2   2703.76     35.08
  -4  -5   3   1373.21     21.73
  -4  -5   4   2906.49     42.06
  -4  -5   5   2294.20     27.73
  -4  -5   6  48204.87    337.18
  -4  -5   7    124.18     12.61
  -4  -5   8  13593.42     66.18
  -4  -5   9  26027.15    199.41
  -4  -5  10  11389.46    103.17
  -4  -5  11   2536.67     25.98
  -4  -5  12  21213.52    143.80
  -4  -5  13   4564.38     58.94
  -4  -5  14     53.06     17.78
  -4  -5  15    358.18     25.17
  -4  -5  16   5135.66     66.91
  -4  -5  17     22.97     25.55
  -4  -5  18    518.65     62.41
  -4  -5  19   6315.43     61.47
  -4  -5  20   1405.71     31.02
  -4  -5  21   5250.87    365.88
  -4  -5  22   1394.44     47.06
  -4  -5  23     75.93     35.71
  -4  -5  24    341.52     30.18
  -4  -5  25   2157.83     43.23
  -4  -5  26   2228.48     30.25
  -4  -4   1  14283.09    123.98
  -4  -4   2   7951.87     54.17
  -4  -4   3   6032.83     45.43
  -4  -4   4  92518.10    468.05
  -4  -4   5  10308.63     34.57
  -4  -4   6   1779.30     19.71
  -4  -4   7  51070.03    243.41
  -4  -4   8   4033.30     29.82
  -4  -4   9    797.92     15.04
  -4  -4  10  10064.01     74.43
  -4  -4  11  30215.40    156.06
  -4  -4  12   2696.62     28.46
  -4  -4  13   3940.25     54.66
  -4  -4  14   1899.92     28.00
  -4  -4  15    447.38     26.43
  -4  -4  16    430.81     21.26
  -4  -4  17   3495.62     83.12
  -4  -4  18   1030.55     56.66
  -4  -4  19     42.82     24.91
  -4  -4  20   3092.29     43.88
  -4  -4  21    569.60     52.44
  -4  -4  22    388.61     40.02
  -4  -4  23   9947.90     63.80
  -4  -4  24   1239.56     28.51
  -4  -4  25   2645.85     76.19
  -4  -4  26   1586.71     35.49
  -4  -4  27    125.84     29.86
  -4  -3   1   1927.17     17.64
  -4  -3   2    918.65     14.90
  -4  -3   3   3924.60     42.37
  -4  -3   4  75345.62    335.47
  -4  -3   5  148765.8    502.13
  -4  -3   6   3278.15     18.10
  -4  -3   7    889.17     15.69
  -4  -3   8    132.37     12.88
  -4  -3   9  11563.66     44.18
  -4  -3  10  11819.34     42.00
  -4  -3  11   6083.75     36.88
  -4  -3  12    690.85     17.27
  -4  -3  13    363.88     17.41
  -4  -3  14     32.87     17.66
  -4  -3  15   5368.48     40.00
  -4  -3  16   1931.10     26.45
  -4  -3  17   5252.82     74.53
  -4  -3  18  16832.23    114.56
  -4  -3  19     11.33     22.54
  -4  -3  20     35.44     25.67
  -4  -3  21  12193.09    229.86
  -4  -3  22   1208.69     41.20
  -4  -3  23    225.94     25.84
  -4  -3  24   2652.46     29.67
  -4  -3  25   1336.53     39.36
  -4  -3  26    706.07     29.28
  -4  -3  27    350.09     29.20
  -4  -2   1  21287.11    117.42
  -4  -2   2  69133.35    551.72
  -4  -2   3  67496.40    488.86
  -4  -2   4      0.00     12.37
  -4  -2   5    637.70     13.37
  -4  -2   6  50161.76    220.84
  -4  -2   7   8602.56     43.33
  -4  -2   8   6976.93     39.47
  -4  -2   9   3076.94     18.45
  -4  -2  10   7161.23     28.30
  -4  -2  11    691.03     17.51
  -4  -2  12   1590.87     19.42
  -4  -2  13  17051.33     97.42
  -4  -2  14   4525.05     77.70
  -4  -2  15   5424.44     31.79
  -4  -2  16    983.54     27.09
  -4  -2  17   9940.25    124.36
  -4  -2  18   4885.56     40.49
  -4  -2  19   9680.33     67.75
  -4  -2  20   1688.16     48.57
  -4  -2  21   1959.72     72.25
  -4  -2  22   2905.07     43.41
  -4  -2  23   2288.14     28.05
  -4  -2  24    388.28     25.21
  -4  -2  25     72.80     25.48
  -4  -2  26    840.26     29.69
  -4  -2  27   1299.08     29.26
  -4  -1   1   5499.52     21.57
  -4  -1   2  25130.99    181.88
  -4  -1   3   6274.66     37.75
  -4  -1   4  10152.57     41.51
  -4  -1   5  38973.11    203.46
  -4  -1   6   5277.50     28.67
  -4  -1   7   5342.59     22.02
  -4  -1   8  50483.42    263.56
  -4  -1   9   8844.69     53.69
  -4  -1  10  34937.88    194.18
  -4  -1  11  16922.97     74.32
  -4  -1  12   7217.74     26.57
  -4  -1  13  11877.51    103.37
  -4  -1  14  27868.46    194.05
  -4  -1  15   1092.45     23.83
  -4  -1  16    130.32     32.00
  -4  -1  17   2110.07     22.84
  -4  -1  18   6876.49     63.72
  -4  -1  19    317.78     21.33
  -4  -1  20  10275.60     92.88
  -4  -1  21    139.33     22.39
  -4  -1  22    468.70     23.62
  -4  -1  23   1477.41     30.43
  -4  -1  24      1.58     24.46
  -4  -1  25   2381.56     29.90
  -4  -1  26   1028.99     36.14
  -4   0   1  65212.77    328.58
  -4   0   2  70644.65    297.72
  -4   0   3   9485.91     47.75
  -4   0   4    665.92     21.06
  -4   0   5  65847.26    308.68
  -4   0   6     17.49     10.94
  -4   0   7  75091.39    284.89
  -4   0   8  11025.72     56.47
  -4   0   9   5057.69     24.63
  -4   0  10   9791.01     59.21
  -4   0  11      5.82     14.61
  -4   0  12  34145.10    152.11
  -4   0  13   8817.32     86.20
  -4   0  14   6886.98     65.43
  -4   0  15   1050.78     28.40
  -4   0  16   2680.18     35.11
  -4   0  17    652.25     20.26
  -4   0  18    151.54     20.19
  -4   0  19   1833.09     29.35
  -4   0  20    185.50     25.19
  -4   0  21   1578.44     31.63
  -4   0  22   6320.49     81.99
  -4   0  23    308.21     24.18
  -4   0  24    284.75     26.90
  -4   0  25    123.84     29.54
  -4   0  26   5832.61     76.17
  -4   1   1  104856.4    416.00
  -4   1   2   2363.00     12.91
  -4   1   3     49.10     10.27
  -4   1   4  18355.58    105.36
  -4   1   5  24810.58    122.46
  -4   1   6  92117.02    552.34
  -4   1   7  145573.6    488.31
  -4   1   8  20539.14    116.78
  -4   1   9  10239.18     46.88
  -4   1  10   2146.11     21.90
  -4   1  11   9963.44     60.06
  -4   1  12   1199.36     16.73
  -4   1  13   3672.65     29.64
  -4   1  14    407.00     16.93
  -4   1  15     29.21     18.18
  -4   1  16    820.06     20.77
  -4   1  17   8940.56    102.68
  -4   1  18    293.67     24.08
  -4   1  19  14448.72     99.22
  -4   1  20    665.20     22.74
  -4   1  21    278.44     22.48
  -4   1  22    163.55     23.04
  -4   1  23   3179.86     48.24
  -4   1  24   4844.25     92.00
  -4   1  25   1599.01     28.60
  -4   1  26   3466.69     65.56
  -4   2   1    487.19     10.91
  -4   2   2  128620.7   1304.47
  -4   2   3  24325.51    186.84
  -4   2   4   2237.26     20.16
  -4   2   5  16219.58     86.84
  -4   2   6  41706.84    225.02
  -4   2   7   2724.91     31.41
  -4   2   8   4738.65     24.70
  -4   2   9   9077.62     47.19
  -4   2  10    447.76     14.26
  -4   2  11  10030.54    108.15
  -4   2  12    632.36     15.52
  -4   2  13     50.73     17.56
  -4   2  14      0.07     16.99
  -4   2  15     52.65     17.01
  -4   2  16   7866.89    107.39
  -4   2  17   2315.32     39.61
  -4   2  18    509.67     20.50
  -4   2  19   4898.39     72.69
  -4   2  20    675.43     22.72
  -4   2  21  14833.28    127.76
  -4   2  22    897.20     24.68
  -4   2  23     31.81     25.12
  -4   2  24    559.05     25.67
  -4   2  25    488.85     26.08
  -4   3   1  19770.40     98.01
  -4   3   2  11404.36     76.59
  -4   3   3  42251.51    251.88
  -4   3   4     57.33      8.43
  -4   3   5   1799.11     25.18
  -4   3   6   5310.01     49.93
  -4   3   7   8064.58     85.48
  -4   3   8  23515.94    115.20
  -4   3   9  10640.01     92.49
  -4   3  10  18474.52    127.96
  -4   3  11    408.55     14.05
  -4   3  12   9774.18     83.38
  -4   3  13   2632.52     33.67
  -4   3  14   6570.90    104.55
  -4   3  15   3007.77     36.27
  -4   3  16  24285.62    194.04
  -4   3  17    568.05     23.14
  -4   3  18   2675.64     49.51
  -4   3  19   1543.41     29.39
  -4   3  20    437.48     22.02
  -4   3  21      0.00     21.89
  -4   3  22   2597.81     59.40
  -4   3  23   2411.03     45.21
  -4   3  24   2292.59     40.08
  -4   4   1  35020.18    245.59
  -4   4   2   2760.59     23.70
  -4   4   3    225.85     11.21
  -4   4   4  21190.37    118.35
  -4   4   5  17407.16    113.44
  -4   4   6    415.18     10.07
  -4   4   7   1716.02     28.00
  -4   4   8   9192.05    137.21
  -4   4   9   6589.72    121.13
  -4   4  10    207.59     13.14
  -4   4  11  13189.31     81.87
  -4   4  12   1170.05     16.51
  -4   4  13    950.34     33.79
  -4   4  14   2880.56     74.08
  -4   4  15  16194.05    235.72
  -4   4  16   3466.46     75.37
  -4   4  17    514.23     19.59
  -4   4  18   1141.30     29.09
  -4   4  19   1413.64     33.28
  -4   4  20   1272.02     36.04
  -4   4  21   2231.81     79.63
  -4   4  22    653.20     26.09
  -4   4  23    588.44     24.88
  -4   4  24     67.74     24.31
  -4   5   1   6031.97     86.46
  -4   5   2   8425.66    155.54
  -4   5   3    680.63     11.10
  -4   5   4   3569.93     45.18
  -4   5   5     98.72     12.49
  -4   5   6   3430.97     38.23
  -4   5   7     28.49      9.15
  -4   5   8  59051.20    401.17
  -4   5   9  40186.30    301.07
  -4   5  10   3954.39     73.36
  -4   5  11    546.95     17.03
  -4   5  12   1801.54     44.92
  -4   5  13   1013.65     32.08
  -4   5  14   1352.57     32.45
  -4   5  15   4694.80    106.14
  -4   5  16   1100.12     29.38
  -4   5  17   2076.77     49.63
  -4   5  18   2247.14     85.62
  -4   5  19    504.34     24.92
  -4   5  20     25.25     24.33
  -4   5  21   2785.42     65.53
  -4   5  22   1723.78     42.25
  -4   5  23    739.15     28.47
  -4   6   1   6294.05     63.64
  -4   6   2   7226.27    116.21
  -4   6   3  44007.30    284.19
  -4   6   4     18.85      8.02
  -4   6   5  18513.55    129.66
  -4   6   6   1460.60     29.62
  -4   6   7   1179.98     35.20
  -4   6   8   2525.94     49.77
  -4   6   9    295.00     11.58
  -4   6  10  12148.48    139.75
  -4   6  11    534.51     17.13
  -4   6  12    186.50     14.55
  -4   6  13     25.84     15.10
  -4   6  14    917.55     23.87
  -4   6  15    422.18     20.94
  -4   6  16    379.76     21.82
  -4   6  17    253.36     18.44
  -4   6  18   3682.71     48.39
  -4   6  19     59.44     19.71
  -4   6  20   1534.23     54.38
  -4   6  21    268.57     22.07
  -4   6  22   3558.53    150.14
  -4   7   1  22570.16    269.12
  -4   7   2  15109.35    164.42
  -4   7   3  19317.14    166.37
  -4   7   4   4416.45     45.47
  -4   7   5   8965.53    222.15
  -4   7   6   2312.01     58.66
  -4   7   7  10701.16     76.53
  -4   7   8     86.99      8.51
  -4   7   9   7033.12     57.75
  -4   7  10   4612.63     34.00
  -4   7  11   1626.31     39.23
  -4   7  12   2271.14     61.92
  -4   7  13    756.50     22.23
  -4   7  14   6080.46     37.37
  -4   7  15      6.07     15.45
  -4   7  16    254.87     17.82
  -4   7  17   6966.84     57.33
  -4   7  18   2414.09     94.02
  -4   7  19    470.62     22.28
  -4   7  20    320.09     23.95
  -4   7  21      0.00     25.37
  -4   8   1    801.95     29.51
  -4   8   2   4407.44    198.60
  -4   8   3   4311.68    178.40
  -4   8   4   6116.37     36.50
  -4   8   5    463.00     27.64
  -4   8   6    102.29     15.06
  -4   8   7    102.50     16.38
  -4   8   8    281.22     17.21
  -4   8   9   3012.07     51.87
  -4   8  10     36.61     10.77
  -4   8  11    124.36     10.14
  -4   8  12   1934.74     47.79
  -4   8  13    347.92     20.77
  -4   8  14    859.12     28.64
  -4   8  15     31.02     15.24
  -4   8  16    957.78     44.76
  -4   8  17   7092.63    124.64
  -4   8  18    101.58     25.72
  -4   8  19   1983.74     83.63
  -4   9   1      6.11      6.18
  -4   9   2    137.92     10.30
  -4   9   3   3328.34    141.29
  -4   9   4    271.70     24.54
  -4   9   5    600.41     51.33
  -4   9   6   1933.70     94.02
  -4   9   7   1353.34     87.27
  -4   9   8   2712.24    135.87
  -4   9   9    205.49     20.03
  -4   9  10  12051.85    104.10
  -4   9  11   6643.71     50.48
  -4   9  12   2677.92    169.13
  -4   9  13    678.12     27.48
  -4   9  14   1957.83    114.85
  -4   9  15    442.98     37.87
  -4   9  16    807.93     87.19
  -4   9  17     34.26     29.99
  -4   9  18     11.73     41.51
  -4  10   1    860.00     84.08
  -4  10   2   1944.09    120.89
  -4  10   3   6626.70   1434.94
  -4  10   4   2162.81    103.23
  -4  10   5   1178.25     22.34
  -4  10   6   1853.56    164.67
  -4  10   7   2842.67     35.40
  -4  10   8    164.70     21.87
  -4  10   9    164.55     19.33
  -4  10  10    246.37     21.24
  -4  10  11   2694.20     45.85
  -4  10  12    658.09     49.07
  -4  10  13    639.49     57.25
  -4  10  14     41.20     41.79
  -4  10  15     74.53     33.59
  -4  10  16    627.14     60.11
  -4  11   1   2316.69     99.12
  -4  11   2   1723.00    155.10
  -4  11   3   3745.11    341.19
  -4  11   4   5978.55    392.19
  -4  11   5    844.26    128.94
  -4  11   6   5420.27     97.54
  -4  11   7   3282.15    169.49
  -4  11   8      3.39     22.80
  -4  11   9   1612.93     88.79
  -4  11  10      2.14     19.96
  -4  11  11    783.43     64.81
  -4  11  12   2734.64    328.49
  -4  11  13    894.80     71.13
  -4  11  14    336.28     59.66
  -4  12   2    918.19     87.57
  -4  12   3     41.35     21.26
  -4  12   4     45.53     23.66
  -4  12   5    107.55     26.79
  -4  12   6    779.08    159.77
  -4  12   7     99.28     30.90
  -4  12   8    314.54     43.32
  -4  12   9      1.95     34.13
  -4  12  10    374.97     43.44
  -4  12  11     12.78     37.81
  -4  12  12     35.31     39.78
  -4  13   6     15.63     41.40
  -4  13   7    180.90     32.08
  -4  13   8    280.52     71.76
  -4  13   9    246.43     37.10
  -3 -14   9   1410.27     97.88
  -3 -14  10   2398.82    135.62
  -3 -14  11      0.00     25.92
  -3 -14  12     17.52     26.82
  -3 -14  13    163.38     37.77
  -3 -13   4   1465.24     54.29
  -3 -13   5   1166.32     44.93
  -3 -13   6     54.99     19.81
  -3 -13   7      0.00     20.46
  -3 -13   8    554.23     32.59
  -3 -13   9     91.62     23.22
  -3 -13  10     31.94     27.23
  -3 -13  11    754.71     32.67
  -3 -13  12   2663.81    104.55
  -3 -13  13      0.45     27.36
  -3 -13  14    268.52     29.15
  -3 -13  15    711.04     42.88
  -3 -13  16   5335.46     82.92
  -3 -13  17     95.07     36.63
  -3 -12   1    700.21     27.35
  -3 -12   2   1493.98     45.71
  -3 -12   3    452.50     42.28
  -3 -12   4   3271.04    126.79
  -3 -12   5    226.09     21.62
  -3 -12   6    344.97     18.94
  -3 -12   7     84.63     23.22
  -3 -12   8    392.54     19.95
  -3 -12   9  10817.92    216.98
  -3 -12  10    858.54     24.28
  -3 -12  11   2432.48     66.92
  -3 -12  12   1083.94     26.97
  -3 -12  13      2.19     21.91
  -3 -12  14  11582.69     64.62
  -3 -12  15   2719.48     42.18
  -3 -12  16    938.60     38.79
  -3 -12  17    592.22     34.16
  -3 -12  18      5.15     35.61
  -3 -12  19    145.66     51.94
  -3 -11   1    400.03     12.93
  -3 -11   2      5.05     11.29
  -3 -11   3    915.46     33.25
  -3 -11   4    665.76     16.69
  -3 -11   5   5451.93    102.18
  -3 -11   6   2330.24     65.46
  -3 -11   7   2559.51     66.12
  -3 -11   8    263.62     19.82
  -3 -11   9   1893.68     27.97
  -3 -11  10   5925.42     59.84
  -3 -11  11   7213.34    103.88
  -3 -11  12      4.92     10.07
  -3 -11  13    108.28     19.26
  -3 -11  14    581.52     30.74
  -3 -11  15    376.22     16.90
  -3 -11  16   4612.01    105.36
  -3 -11  17     55.04     30.95
  -3 -11  18      0.00     36.20
  -3 -11  20   1668.01     65.31
  -3 -11  22    192.90     38.92
  -3 -10   1    800.37     21.73
  -3 -10   2   2017.13     26.46
  -3 -10   3  23497.75    180.04
  -3 -10   4   1000.95     22.10
  -3 -10   5   2210.77     50.70
  -3 -10   6   7469.98    118.12
  -3 -10   7   7954.79     83.57
  -3 -10   8   3669.77     67.45
  -3 -10   9   2324.16     29.21
  -3 -10  10      0.00     10.95
  -3 -10  11     65.95     12.31
  -3 -10  12    306.77     18.99
  -3 -10  13  15995.85    206.14
  -3 -10  14   7189.87     61.33
  -3 -10  15    276.28     24.12
  -3 -10  16     15.98     17.18
  -3 -10  17    195.03     24.93
  -3 -10  18     31.34     22.28
  -3 -10  19   6746.05    485.87
  -3 -10  20    337.98     62.60
  -3 -10  21    384.79     23.64
  -3 -10  22     65.84     24.69
  -3 -10  23      8.09     25.37
  -3  -9   1   2934.62     39.44
  -3  -9   2    197.15     12.78
  -3  -9   3    262.68     12.94
  -3  -9   4  14404.81    160.48
  -3  -9   5   2794.29     32.88
  -3  -9   6   3306.41     47.45
  -3  -9   7    262.68     15.61
  -3  -9   8     13.89     12.38
  -3  -9   9     18.72     11.59
  -3  -9  10      0.00     12.62
  -3  -9  11   5641.30    122.73
  -3  -9  12     43.55     23.68
  -3  -9  13   3619.87     84.74
  -3  -9  14      2.38     14.45
  -3  -9  15   6373.82     81.04
  -3  -9  16   3345.26     60.27
  -3  -9  17   3139.94     80.42
  -3  -9  18   2003.86     74.35
  -3  -9  19   9909.52    736.25
  -3  -9  20    386.02     29.76
  -3  -9  21    604.02     61.07
  -3  -9  22    104.78     23.79
  -3  -9  23   3709.06     96.09
  -3  -9  24    577.10     55.46
  -3  -9  25    504.77     27.23
  -3  -8   1     69.33     12.39
  -3  -8   2   4320.86     24.84
  -3  -8   3  15907.77    144.87
  -3  -8   4   2843.50     40.58
  -3  -8   5   1044.46     18.90
  -3  -8   6   4005.16     41.54
  -3  -8   7   7736.34     72.55
  -3  -8   8   5485.21     52.65
  -3  -8   9    173.58     11.97
  -3  -8  10    125.84     16.91
  -3  -8  11   1346.52     24.68
  -3  -8  12  39617.41    360.86
  -3  -8  13   4110.09     64.55
  -3  -8  14   5668.87    135.91
  -3  -8  15   4759.96    107.79
  -3  -8  16   4285.17     75.70
  -3  -8  17      0.00     21.24
  -3  -8  18   9625.34     78.78
  -3  -8  19      6.76     23.36
  -3  -8  20    286.69     30.26
  -3  -8  21     91.23     27.42
  -3  -8  22    324.84     32.77
  -3  -8  23     27.08     31.21
  -3  -8  24   1786.41     44.45
  -3  -8  25    918.15     35.43
  -3  -7   1    293.15     12.22
  -3  -7   2   1778.43     17.98
  -3  -7   3   7047.39     65.37
  -3  -7   4   1432.43     19.27
  -3  -7   5    584.10     14.44
  -3  -7   6     55.59     11.63
  -3  -7   7   5617.42     50.45
  -3  -7   8   8296.04     86.75
  -3  -7   9   2081.99     28.38
  -3  -7  10   3763.42     34.91
  -3  -7  11  10225.92    105.38
  -3  -7  12  23313.15    155.94
  -3  -7  13   2215.86     34.65
  -3  -7  14  16907.97     96.13
  -3  -7  15   1453.68     31.83
  -3  -7  16    330.38     24.37
  -3  -7  17   2530.57     63.99
  -3  -7  18    288.09     24.23
  -3  -7  19   3092.78     82.25
  -3  -7  20      9.04     34.44
  -3  -7  21    118.19     26.77
  -3  -7  22   5515.69     61.63
  -3  -7  23   2016.02     41.17
  -3  -7  24    176.06     25.16
  -3  -7  25   1613.68     32.65
  -3  -7  26   4093.23     47.04
  -3  -6   1    241.47     10.72
  -3  -6   2  53963.76    282.36
  -3  -6   3   1028.79     20.99
  -3  -6   4  18099.90    117.69
  -3  -6   5  32336.35    182.64
  -3  -6   6    112.36     13.90
  -3  -6   7  48389.65    272.26
  -3  -6   8   8098.09     70.91
  -3  -6   9  10702.14     80.32
  -3  -6  10   1690.00     26.11
  -3  -6  11  15984.40    138.87
  -3  -6  12  28764.18    224.41
  -3  -6  13   4927.02     53.52
  -3  -6  14   3116.11     26.43
  -3  -6  15   3694.13     47.83
  -3  -6  16    298.09     35.05
  -3  -6  17   8422.92     50.08
  -3  -6  18   2500.52     34.79
  -3  -6  19     77.87     26.39
  -3  -6  20    248.17     29.61
  -3  -6  21   2888.50     32.36
  -3  -6  22   2089.30     27.50
  -3  -6  23    484.72     24.14
  -3  -6  24   2379.54     30.95
  -3  -6  25    228.78     25.06
  -3  -6  26   4578.02     44.85
  -3  -6  27   2788.70     34.51
  -3  -5   1  32052.97    215.57
  -3  -5   2   2813.34     15.54
  -3  -5   3  39158.16    216.35
  -3  -5   4     55.29      9.28
  -3  -5   5    526.69     14.47
  -3  -5   6  27876.91    142.87
  -3  -5   7  30111.08    337.97
  -3  -5   8   5860.54     37.29
  -3  -5   9  10828.40     88.61
  -3  -5  10   3658.96     24.39
  -3  -5  11   1835.22     23.26
  -3  -5  12  12266.20     74.17
  -3  -5  13   1348.35     20.00
  -3  -5  14   9112.89     73.74
  -3  -5  15   3265.80     45.22
  -3  -5  16   7651.45    129.20
  -3  -5  17    521.31     19.46
  -3  -5  18    836.81     20.82
  -3  -5  19   4783.49     39.78
  -3  -5  20   3478.02     58.56
  -3  -5  21  18243.87    204.01
  -3  -5  22    369.07     23.28
  -3  -5  23   4156.83     44.31
  -3  -5  24      0.00     26.13
  -3  -5  25    115.68     24.79
  -3  -5  26   7551.46     56.28
  -3  -5  27   6166.11     60.96
  -3  -4   1  236531.6    919.98
  -3  -4   2  11672.72    123.89
  -3  -4   3   4405.35     20.74
  -3  -4   4     68.17     11.57
  -3  -4   5  51294.33    312.02
  -3  -4   6   6539.14     20.37
  -3  -4   7   1025.12     12.79
  -3  -4   8   6098.42     53.80
  -3  -4   9    170.93     12.59
  -3  -4  10  11626.44     31.93
  -3  -4  11  49838.00    305.52
  -3  -4  12  15635.00    124.56
  -3  -4  13   8132.38     61.91
  -3  -4  14  12545.84     49.65
  -3  -4  15   1034.59     18.60
  -3  -4  16    135.73     23.06
  -3  -4  17  23370.97    128.17
  -3  -4  18   1975.40     33.37
  -3  -4  19    364.61     30.44
  -3  -4  20   5711.75     51.28
  -3  -4  21   3109.76     54.23
  -3  -4  22    629.19     25.48
  -3  -4  23   4549.19     37.15
  -3  -4  24    650.55     27.61
  -3  -4  25   1980.40     38.12
  -3  -4  26      5.87     30.21
  -3  -4  27     29.87     26.24
  -3  -3   1   5090.62     22.81
  -3  -3   2  87745.21    429.51
  -3  -3   3   1134.11     10.39
  -3  -3   4   2859.49     23.79
  -3  -3   5   5697.25     27.30
  -3  -3   6   1237.09     18.49
  -3  -3   7   4595.73     24.40
  -3  -3   8   8882.43     32.47
  -3  -3   9    276.91     23.15
  -3  -3  10   6509.56     22.78
  -3  -3  11  44106.33    281.05
  -3  -3  12   5072.36     65.13
  -3  -3  13    110.49     16.55
  -3  -3  14  40390.90    259.86
  -3  -3  15  28967.56    389.58
  -3  -3  16    310.61     18.12
  -3  -3  17   7008.67     59.94
  -3  -3  18     96.87     23.32
  -3  -3  19    938.19     23.94
  -3  -3  20   1460.70     25.42
  -3  -3  21  10876.38     83.03
  -3  -3  22   1594.04     25.72
  -3  -3  23    259.54     23.77
  -3  -3  24     50.09     27.02
  -3  -3  25   7415.12    117.57
  -3  -3  26  11534.77     97.41
  -3  -3  27    265.17     26.71
  -3  -2   1  74895.61    272.42
  -3  -2   2  60192.48    223.43
  -3  -2   3   8340.08     37.45
  -3  -2   4  164107.0    692.01
  -3  -2   5   9225.06     81.52
  -3  -2   6   1451.09     13.38
  -3  -2   7  68569.02    580.83
  -3  -2   8  23227.72    115.42
  -3  -2   9   7796.14     71.33
  -3  -2  10  175659.8   1237.81
  -3  -2  11   1528.89     18.35
  -3  -2  12   1238.56     21.80
  -3  -2  13    298.54     15.55
  -3  -2  14   2178.80     26.64
  -3  -2  15    660.11     19.30
  -3  -2  16  27150.25    153.72
  -3  -2  17    464.71     26.42
  -3  -2  18    436.18     20.11
  -3  -2  19   2422.99     29.83
  -3  -2  20     25.31     20.92
  -3  -2  21   5508.36     53.12
  -3  -2  22   4286.76     45.95
  -3  -2  23    868.12     25.07
  -3  -2  24    339.29     26.59
  -3  -2  25   1603.49     31.11
  -3  -2  26     67.60     25.68
  -3  -2  27   1732.01     30.83
  -3  -1   1  82471.89    297.88
  -3  -1   2   8362.15     43.16
  -3  -1   3  72814.83    336.02
  -3  -1   4  25914.94    160.37
  -3  -1   5  38341.18    176.05
  -3  -1   6  33596.40    193.32
  -3  -1   7  35013.90    161.15
  -3  -1   8   9484.61     45.61
  -3  -1   9  50777.05    238.42
  -3  -1  10  85706.54    655.31
  -3  -1  11   3123.96     28.97
  -3  -1  12   7425.14     37.20
  -3  -1  13   8312.45     36.14
  -3  -1  14     85.88     27.03
  -3  -1  15  17050.62     95.02
  -3  -1  16    897.39     23.99
  -3  -1  17    109.81     21.45
  -3  -1  18   3232.31     29.84
  -3  -1  19    541.98     24.01
  -3  -1  20   6602.92     51.83
  -3  -1  21  10900.68     87.76
  -3  -1  22   1235.65     26.98
  -3  -1  23   4375.73     40.14
  -3  -1  24  13327.10    112.84
  -3  -1  25   6875.33     86.77
  -3  -1  26   5111.77     72.28
  -3  -1  27    471.85     31.53
  -3   0   1  13333.94     78.27
  -3   0   2  395516.1   1892.37
  -3   0   3  656661.0   2060.55
  -3   0   5  17972.88     90.02
  -3   0   6   3512.26     19.38
  -3   0   7  20324.31    103.19
  -3   0   8  12252.11     56.42
  -3   0   9  68655.37    463.57
  -3   0  10  21581.05    106.54
  -3   0  11   2175.01     16.77
  -3   0  12    194.19     14.19
  -3   0  13   7070.17     80.13
  -3   0  14    161.24     18.35
  -3   0  15  31095.43    171.67
  -3   0  16    363.59     18.27
  -3   0  17    408.48     22.71
  -3   0  18    376.65     20.18
  -3   0  19   6292.99     50.03
  -3   0  20  11051.79    104.70
  -3   0  21   6995.06     70.54
  -3   0  22   1754.49     27.94
  -3   0  23     34.39     27.38
  -3   0  24   3745.99     74.41
  -3   0  25    166.54     41.32
  -3   0  26   2554.61     92.29
  -3   1   1  47869.86    326.59
  -3   1   2  106215.3    509.39
  -3   1   3  36691.43    275.14
  -3   1   4  57242.75    266.81
  -3   1   5  37225.04    163.77
  -3   1   6  19258.99    143.06
  -3   1   7   5080.69     30.50
  -3   1   8   1821.98     30.58
  -3   1   9   9928.20     47.06
  -3   1  10  23929.63    129.83
  -3   1  11  14597.10     85.88
  -3   1  12    231.29     15.66
  -3   1  13   9039.26     84.49
  -3   1  14  13055.52    103.20
  -3   1  15  16705.93    152.05
  -3   1  16   8982.37     63.01
  -3   1  17  18622.10    161.72
  -3   1  18   1262.42     21.90
  -3   1  19  13313.83    140.31
  -3   1  20   3617.13     72.45
  -3   1  21   1880.16     68.00
  -3   1  22     17.26     29.40
  -3   1  23   1204.86     53.20
  -3   1  24  12921.82    109.75
  -3   1  25   5821.94    187.67
  -3   1  26    144.30     37.16
  -3   2   1  38171.84    198.37
  -3   2   2  36731.05    199.23
  -3   2   3  155160.3    686.31
  -3   2   4   1968.95     22.75
  -3   2   5     26.79      9.25
  -3   2   6  61344.26    312.54
  -3   2   7  13844.34     61.78
  -3   2   8  72348.34    433.95
  -3   2   9   4943.77     40.15
  -3   2  10  29799.40    247.04
  -3   2  11  16864.27    156.13
  -3   2  12  34182.93    167.98
  -3   2  13   6119.94     66.10
  -3   2  14   6846.58     43.35
  -3   2  15   4314.06     46.71
  -3   2  16    145.49     17.74
  -3   2  17    248.96     18.91
  -3   2  18   7264.50     91.57
  -3   2  19   7572.83     85.75
  -3   2  20   7805.09     62.13
  -3   2  21     46.20     55.56
  -3   2  22   1617.04     82.96
  -3   2  23    360.68     33.05
  -3   2  24    272.13     51.78
  -3   2  25   1939.03     46.51
  -3   3   1  29062.09    160.25
  -3   3   2    267.91      7.15
  -3   3   3  10489.26     91.30
  -3   3   4   9745.11     97.73
  -3   3   5   1705.39     17.75
  -3   3   6  50283.26    249.67
  -3   3   7   7216.54     68.50
  -3   3   8    183.83     10.91
  -3   3   9  10125.00     62.67
  -3   3  10  53354.17    361.37
  -3   3  11   7109.10     89.98
  -3   3  12  27847.08    143.51
  -3   3  13  16574.35    141.40
  -3   3  14   7786.26    116.63
  -3   3  15     82.78     19.06
  -3   3  16     22.77     20.06
  -3   3  17   5560.41    123.34
  -3   3  18   1252.89     37.27
  -3   3  19   5227.30    106.63
  -3   3  20   4304.43     55.17
  -3   3  21     48.38     34.33
  -3   3  22    859.44     53.08
  -3   3  23   5805.16     55.76
  -3   3  24  16354.19    113.84
  -3   3  25   1194.84     34.95
  -3   4   1     59.04      5.52
  -3   4   2  70432.55    576.50
  -3   4   3  27761.14    189.38
  -3   4   4  59740.66    749.88
  -3   4   5  143909.0   1217.60
  -3   4   6  38736.74    349.04
  -3   4   7  13124.53    120.56
  -3   4   8  36456.38    220.38
  -3   4   9    571.66     14.86
  -3   4  10     75.61     12.07
  -3   4  11   4881.98     56.26
  -3   4  12     18.81     13.32
  -3   4  13   5322.11     87.56
  -3   4  14   7235.94     95.84
  -3   4  15    503.18     17.43
  -3   4  16      7.72     18.33
  -3   4  17   4651.77    126.09
  -3   4  18   3664.96    102.29
  -3   4  19   5056.19     61.27
  -3   4  20   2847.81     77.52
  -3   4  21   5222.99    158.34
  -3   4  22     39.18     27.29
  -3   4  23    119.58     28.98
  -3   4  24   3417.12    129.11
  -3   5   1  24632.48    295.05
  -3   5   2   1090.50     16.02
  -3   5   3     59.71      5.34
  -3   5   4    287.84      8.29
  -3   5   5  60992.31    310.16
  -3   5   6  10348.75    149.68
  -3   5   7   1031.11     27.32
  -3   5   8  14271.49    199.51
  -3   5   9  16988.65    106.29
  -3   5  10   3825.23     75.60
  -3   5  11    617.41     18.51
  -3   5  12    216.18     16.15
  -3   5  13  10218.29    103.02
  -3   5  14   3090.44     65.73
  -3   5  15   2015.42     57.60
  -3   5  16   3148.30    102.22
  -3   5  17   6142.56    189.88
  -3   5  18    122.61     22.87
  -3   5  19  16367.98    136.73
  -3   5  20   1078.03     41.55
  -3   5  21    151.42     30.45
  -3   5  22   6295.06     75.49
  -3   5  23   6936.52     61.08
  -3   6   1  75124.39    403.49
  -3   6   2   3151.43     87.92
  -3   6   3   1379.90     75.82
  -3   6   4   5290.00     86.58
  -3   6   5   2369.33     49.73
  -3   6   6  33073.45    178.53
  -3   6   7  24537.32    143.66
  -3   6   8     20.01     10.44
  -3   6   9    872.05     21.65
  -3   6  10   3003.42     51.25
  -3   6  11    173.83     14.34
  -3   6  12     32.14     14.09
  -3   6  13  20254.28    145.97
  -3   6  14   3986.80     62.20
  -3   6  15   1624.33     36.01
  -3   6  16    447.33     35.09
  -3   6  17    132.68     21.30
  -3   6  18   4940.88     59.83
  -3   6  19   4475.37    104.17
  -3   6  20   4170.01     48.98
  -3   6  21     29.26     24.11
  -3   6  22    167.88     27.92
  -3   7   1    905.98     29.18
  -3   7   2   2147.92     89.10
  -3   7   3    962.18     18.53
  -3   7   4  11760.63    263.78
  -3   7   5    541.19     15.68
  -3   7   6    298.26     11.21
  -3   7   7   7581.73    148.67
  -3   7   8   3062.51     43.09
  -3   7   9  14477.56    238.96
  -3   7  10     13.29      9.56
  -3   7  11    956.21     23.65
  -3   7  12    207.28     17.31
  -3   7  13  16413.25     77.01
  -3   7  14   8128.28     78.21
  -3   7  15   3764.81    140.66
  -3   7  16   1472.94     43.03
  -3   7  17    811.78     31.58
  -3   7  18   1451.99     55.38
  -3   7  19   1949.60     76.06
  -3   7  20    420.54     41.95
  -3   7  21   1948.73     89.58
  -3   8   1   8167.38     52.55
  -3   8   2    248.81     11.62
  -3   8   3     61.83     18.68
  -3   8   4   2528.25    176.16
  -3   8   5   3760.70    133.34
  -3   8   6  50124.99    367.39
  -3   8   7   7411.97    125.60
  -3   8   8   5193.91     36.03
  -3   8   9     48.96      6.59
  -3   8  10   1961.08     50.96
  -3   8  11   1088.64     25.04
  -3   8  12   3242.64     63.29
  -3   8  13     13.58     12.46
  -3   8  14     52.98     13.91
  -3   8  15    480.74     17.38
  -3   8  16     76.60     16.64
  -3   8  17   4310.26    147.00
  -3   8  18   2271.17    111.44
  -3   9   1   7052.53     50.25
  -3   9   2   4352.69    207.74
  -3   9   3    425.93     33.73
  -3   9   4   5263.83    119.17
  -3   9   5    187.73     18.15
  -3   9   6   7395.99     69.91
  -3   9   7      0.00     19.10
  -3   9   8  17439.87     72.89
  -3   9   9     49.61     18.74
  -3   9  10      0.00      6.55
  -3   9  11   1310.14     53.98
  -3   9  12   2151.01     57.82
  -3   9  13     34.68     15.54
  -3   9  14    217.71     53.66
  -3   9  15   2172.04     50.45
  -3   9  16    829.24     45.41
  -3   9  17     70.16     42.28
  -3  10   1  13933.20    895.15
  -3  10   2   7780.68    537.86
  -3  10   4   3633.20    166.72
  -3  10   5  13320.16    267.05
  -3  10   6    581.27     23.84
  -3  10   7    687.22     41.77
  -3  10   8   2009.43     55.72
  -3  10   9    499.38     40.90
  -3  10  10    570.48     43.98
  -3  10  11    753.32     27.39
  -3  10  12    194.66     26.11
  -3  10  13    129.72     55.20
  -3  10  14     93.66     56.39
  -3  10  15   1717.56    171.75
  -3  11   1    562.53     18.79
  -3  11   2    188.68     25.14
  -3  11   3   5245.35    458.55
  -3  11   4    268.06     23.92
  -3  11   5   1438.44    151.47
  -3  11   6   1224.30     98.42
  -3  11   7   3225.04    183.76
  -3  11   8   1424.58    105.18
  -3  11   9     57.15     25.70
  -3  11  10   2026.58     92.12
  -3  11  11    331.26     48.54
  -3  11  12    424.45     51.09
  -3  11  13      0.00     58.99
  -3  12   1    255.81     14.71
  -3  12   2     31.32     23.20
  -3  12   3     31.27     24.06
  -3  12   4   5994.25    635.65
  -3  12   5   2603.52     56.34
  -3  12   6    762.19    102.89
  -3  12   7     35.30     29.89
  -3  12   8   4206.81     74.47
  -3  12   9   2987.30     70.93
  -3  13   9   3246.83    496.95
  -2 -14  10    493.98     47.48
  -2 -14  11   1522.88     79.59
  -2 -14  12   1199.92     48.55
  -2 -14  13   3311.61    135.70
  -2 -14  14   1686.44     99.62
  -2 -14  15    112.82     29.35
  -2 -13   6   2163.70     93.05
  -2 -13   7   1221.12     32.97
  -2 -13   8      8.21     26.42
  -2 -13   9   4976.50    180.44
  -2 -13  10   1660.75     50.79
  -2 -13  11   1446.80     58.20
  -2 -13  12     64.10     24.90
  -2 -13  13   5971.83     65.56
  -2 -13  14    160.13     39.57
  -2 -13  15      0.00     43.67
  -2 -13  17    213.45     57.45
  -2 -13  19   1279.10     57.89
  -2 -12   1   1669.17     45.46
  -2 -12   2     55.39     10.96
  -2 -12   3   3919.68     36.50
  -2 -12   4     38.59     14.88
  -2 -12   5   1595.68     35.98
  -2 -12   6  10776.95    131.70
  -2 -12   7   4330.65     99.00
  -2 -12   8   1640.56     51.76
  -2 -12   9      0.00     15.76
  -2 -12  10    154.13     16.76
  -2 -12  11   1167.18     49.72
  -2 -12  12     33.15     16.01
  -2 -12  13    153.00     17.82
  -2 -12  14   2048.21     42.49
  -2 -12  15   1321.88     90.47
  -2 -12  16     97.81     49.18
  -2 -12  17    213.93     48.36
  -2 -12  18     78.88     26.41
  -2 -12  19   5929.61     87.20
  -2 -12  20    115.68     51.25
  -2 -12  21    996.18     49.45
  -2 -11   1   2931.19     62.04
  -2 -11   2   2426.33     90.05
  -2 -11   3   9498.20     66.39
  -2 -11   4   1724.86     47.47
  -2 -11   5    102.99     12.89
  -2 -11   6     14.09     13.08
  -2 -11   7   1308.65     17.53
  -2 -11   8   6816.07    151.49
  -2 -11   9   1018.59     21.73
  -2 -11  10   3086.91     79.48
  -2 -11  11    384.10     19.35
  -2 -11  12   3466.04     55.62
  -2 -11  13   3205.52    163.39
  -2 -11  14    108.77     12.33
  -2 -11  15   4954.99     61.42
  -2 -11  16    150.61     14.39
  -2 -11  17     61.26     44.43
  -2 -11  18   2388.02     74.83
  -2 -11  19    346.06     37.84
  -2 -11  20   2855.65     69.80
  -2 -11  21   2290.14     45.38
  -2 -11  22   4294.84     55.58
  -2 -11  23    428.20     28.94
  -2 -10   1   1171.26     41.73
  -2 -10   2   8920.61    120.31
  -2 -10   3    278.46     12.21
  -2 -10   4     98.06      8.95
  -2 -10   5   1606.27     46.51
  -2 -10   6   1899.67     32.58
  -2 -10   7   2211.44     55.10
  -2 -10   8   1285.87     34.38
  -2 -10   9   1262.16     20.20
  -2 -10  10   3994.91     61.35
  -2 -10  11     80.76     13.93
  -2 -10  12    285.41     17.76
  -2 -10  13     81.28     21.78
  -2 -10  14  15253.19    219.51
  -2 -10  15   3576.58     94.48
  -2 -10  16   4717.87     90.87
  -2 -10  17   1003.95     39.31
  -2 -10  18   1689.58     27.35
  -2 -10  19   7043.59    120.40
  -2 -10  20     25.30     29.62
  -2 -10  21    262.29     47.11
  -2 -10  22    205.22     23.52
  -2 -10  23    123.87     21.89
  -2 -10  24    104.67     24.48
  -2  -9   1     28.66     10.13
  -2  -9   2   5673.71     73.34
  -2  -9   3   5976.59    109.04
  -2  -9   4   1217.05     21.66
  -2  -9   5    105.64      9.68
  -2  -9   6   1340.89     34.79
  -2  -9   7  18703.48    172.58
  -2  -9   8   3871.97     79.75
  -2  -9   9    164.55     11.55
  -2  -9  10  12065.08    115.35
  -2  -9  11     17.25     11.98
  -2  -9  12  16489.48    239.19
  -2  -9  13   1082.09     27.42
  -2  -9  14  12651.27    128.65
  -2  -9  15    462.24     15.53
  -2  -9  16    445.15     18.72
  -2  -9  17   5287.54    180.24
  -2  -9  18    147.83     30.16
  -2  -9  19    249.56     20.68
  -2  -9  20    208.68     23.50
  -2  -9  21    225.98     20.78
  -2  -9  22   4447.25    114.97
  -2  -9  23     52.25     24.74
  -2  -9  24   5007.50     51.68
  -2  -9  25     68.07     23.87
  -2  -8   1   1542.81     27.08
  -2  -8   2    164.84      8.96
  -2  -8   3    601.55     26.10
  -2  -8   4    913.83     12.38
  -2  -8   5  12097.86    108.17
  -2  -8   6    908.98     15.99
  -2  -8   7   3757.74     40.99
  -2  -8   8  28427.99    196.36
  -2  -8   9  23527.24    157.73
  -2  -8  10   1333.33     17.87
  -2  -8  11   1663.59     29.99
  -2  -8  12   4702.98     65.91
  -2  -8  13   1900.25     29.18
  -2  -8  14   2462.10     40.93
  -2  -8  15     43.35     18.50
  -2  -8  16    449.46     18.35
  -2  -8  17   2895.38     72.28
  -2  -8  18  14560.98    142.62
  -2  -8  19    726.29     30.50
  -2  -8  20    869.96     21.92
  -2  -8  21   1262.62     27.09
  -2  -8  22    865.72     23.55
  -2  -8  23    242.86     22.79
  -2  -8  24   1613.18     50.12
  -2  -8  25   2872.53     72.93
  -2  -8  26     27.61     24.54
  -2  -7   1  31922.05    232.89
  -2  -7   2     69.74      9.37
  -2  -7   3  35341.78    232.86
  -2  -7   4  15838.57    123.58
  -2  -7   5  22862.67    227.49
  -2  -7   6   8012.23     59.56
  -2  -7   7    615.11     11.42
  -2  -7   8   5457.01     52.99
  -2  -7   9  14532.00    114.75
  -2  -7  10     42.89     10.55
  -2  -7  11  25811.63    226.80
  -2  -7  12   2818.00     37.86
  -2  -7  13   8037.93     44.09
  -2  -7  14   3434.58     58.96
  -2  -7  15    932.85     19.51
  -2  -7  16   3501.70     64.41
  -2  -7  17     23.11     18.55
  -2  -7  18    916.49     26.37
  -2  -7  19   2718.39     24.80
  -2  -7  20    165.42     22.79
  -2  -7  21   2465.27     32.92
  -2  -7  22   4436.29     37.34
  -2  -7  23  16537.51    146.83
  -2  -7  24    277.32     25.85
  -2  -7  25     66.70     26.23
  -2  -7  26   1888.50     48.41
  -2  -6   1   1944.11     29.00
  -2  -6   2  19263.20     97.89
  -2  -6   3  24919.84    259.84
  -2  -6   4  43029.38    247.71
  -2  -6   5   5940.47     37.65
  -2  -6   6    205.57     13.77
  -2  -6   7   5233.93     36.56
  -2  -6   8    446.58     16.36
  -2  -6   9  16242.09    125.15
  -2  -6  10    229.17     17.61
  -2  -6  11   7257.19     84.43
  -2  -6  12    405.19     13.73
  -2  -6  13   6200.29     65.53
  -2  -6  14   1243.25     20.42
  -2  -6  15   1564.48     19.53
  -2  -6  16   1574.57     19.77
  -2  -6  17  48906.28    532.59
  -2  -6  18     17.83     18.62
  -2  -6  19    892.16     21.41
  -2  -6  20    462.56     21.24
  -2  -6  21    970.41     23.14
  -2  -6  22    826.65     23.65
  -2  -6  23    901.07     26.43
  -2  -6  24   1909.22     38.40
  -2  -6  25    213.81     24.76
  -2  -6  26    114.64     25.32
  -2  -6  27   1596.30     48.76
  -2  -5   1  43136.27    177.85
  -2  -5   2   7042.99     53.51
  -2  -5   3    124.01      7.86
  -2  -5   4  16942.40    128.72
  -2  -5   5  17393.46     97.02
  -2  -5   6   9504.81     49.19
  -2  -5   7  18877.11    116.16
  -2  -5   8  22102.68    152.37
  -2  -5   9     17.33     10.84
  -2  -5  10  51243.46    313.06
  -2  -5  11    562.39     13.28
  -2  -5  12     43.76     13.17
  -2  -5  13  34761.59    175.55
  -2  -5  14   5377.19     48.75
  -2  -5  15   6249.04     60.84
  -2  -5  16    877.93     44.75
  -2  -5  17   7762.19     70.06
  -2  -5  18   6905.35     56.06
  -2  -5  19     15.45     21.01
  -2  -5  20   7100.83     35.29
  -2  -5  21   1810.60     28.07
  -2  -5  22   3580.55     52.22
  -2  -5  23   6158.90     50.06
  -2  -5  24   2162.63     59.72
  -2  -5  25   1726.83     34.91
  -2  -5  26    404.68     36.65
  -2  -5  27   3805.32     86.87
  -2  -4   1     28.81      9.77
  -2  -4   2     35.80      6.45
  -2  -4   3   1512.09      9.15
  -2  -4   4    391.07     11.57
  -2  -4   5     63.21      8.80
  -2  -4   6   1201.16     12.95
  -2  -4   7  28993.43    148.22
  -2  -4   8  22669.64    128.86
  -2  -4   9  19660.44    179.88
  -2  -4  10  83955.61    512.42
  -2  -4  11  15583.88     72.03
  -2  -4  12  39732.80    226.33
  -2  -4  13   1058.62     19.65
  -2  -4  14   3713.46     22.70
  -2  -4  15   2999.30     21.43
  -2  -4  16  15552.01     84.14
  -2  -4  17  15882.71     97.12
  -2  -4  18    122.28     19.14
  -2  -4  19    130.39     21.92
  -2  -4  20   2143.64     37.54
  -2  -4  21    971.38     25.24
  -2  -4  22   2291.64     32.88
  -2  -4  23   2215.92     34.33
  -2  -4  24    175.60     63.87
  -2  -4  25    353.15     46.75
  -2  -4  26   5841.84    490.90
  -2  -4  27     51.41     34.83
  -2  -3   1  11432.23     88.39
  -2  -3   2    894.96      7.57
  -2  -3   3  103017.0    324.72
  -2  -3   4    590.70      8.11
  -2  -3   5  152104.3    398.78
  -2  -3   6  160802.7    885.37
  -2  -3   7    650.23     12.63
  -2  -3   8  27609.18    135.69
  -2  -3   9  18465.76    118.32
  -2  -3  10  11882.88     52.81
  -2  -3  11    621.11     15.12
  -2  -3  12  62264.29    435.45
  -2  -3  13   4598.60     47.06
  -2  -3  14   5170.30     40.29
  -2  -3  15    765.97     17.64
  -2  -3  16    444.76     19.53
  -2  -3  17     97.99     18.16
  -2  -3  18   2172.75     30.21
  -2  -3  19   8267.29     64.01
  -2  -3  20    870.60     25.19
  -2  -3  21    172.16     34.91
  -2  -3  22  10891.20     94.99
  -2  -3  25    706.48     69.16
  -2  -3  26  10327.99    133.20
  -2  -3  27     52.83     35.41
  -2  -2   1  58003.17    255.71
  -2  -2   2   4133.15     20.28
  -2  -2   3  11787.63     76.03
  -2  -2   4  66842.58    352.99
  -2  -2   5  128877.5    422.19
  -2  -2   6  218844.1    867.90
  -2  -2   7  74841.74    451.52
  -2  -2   8   9558.22     48.64
  -2  -2   9  17365.60     92.93
  -2  -2  10  16835.20     83.13
  -2  -2  11     91.67     12.75
  -2  -2  12   9719.72     40.56
  -2  -2  13   3867.18     20.63
  -2  -2  14   5588.38     27.25
  -2  -2  15   9929.82     52.54
  -2  -2  16  20237.46    104.33
  -2  -2  17   4700.45     27.74
  -2  -2  18   8513.51     57.12
  -2  -2  19  15589.27     84.95
  -2  -2  20   6405.48     46.86
  -2  -2  21    113.72     23.61
  -2  -2  25   3591.78     50.38
  -2  -2  26     75.03     35.13
  -2  -2  27    271.88     42.54
  -2  -1   1  74486.17    236.22
  -2  -1   2  15201.78    110.23
  -2  -1   3  206271.5   1217.25
  -2  -1   4  54190.34    319.95
  -2  -1   5  42590.08    297.41
  -2  -1   6  44240.90    271.87
  -2  -1   7  34332.70    164.34
  -2  -1   8   9570.23     43.18
  -2  -1   9  42305.52    192.30
  -2  -1  10     15.33     11.77
  -2  -1  11  62179.07    256.91
  -2  -1  12    847.84     15.04
  -2  -1  13   1288.28     16.80
  -2  -1  14  15085.54     67.50
  -2  -1  15   3695.49     30.23
  -2  -1  16   4594.79     35.71
  -2  -1  17    756.21     21.05
  -2  -1  18  22268.51    123.56
  -2  -1  19    256.78     20.43
  -2  -1  20   2340.58     27.14
  -2  -1  21  18462.51    222.29
  -2  -1  22      0.00     32.98
  -2  -1  23   3649.58     89.12
  -2  -1  24   1922.05     51.89
  -2  -1  25   1013.69     52.74
  -2  -1  26   4853.60     68.24
  -2   0   1  28877.71    110.15
  -2   0   2    780.66      7.08
  -2   0   3     20.60      6.52
  -2   0   4    196.79      7.35
  -2   0   5  11786.66     59.39
  -2   0   6    705.99     14.77
  -2   0   7  29348.74    146.01
  -2   0   8    328.53     10.46
  -2   0   9  84923.23    296.06
  -2   0  10    555.04     12.69
  -2   0  11    254.72     12.98
  -2   0  12  64210.17    290.24
  -2   0  13  40737.81    191.93
  -2   0  14    140.90     18.49
  -2   0  15  52044.41    417.40
  -2   0  16    499.11     21.13
  -2   0  17      0.00     18.07
  -2   0  18    773.81     20.62
  -2   0  19    343.49     24.63
  -2   0  20   4339.46     96.88
  -2   0  21    298.75     32.96
  -2   0  22   5092.46     66.32
  -2   0  23      0.00     39.05
  -2   0  24   2532.23     57.38
  -2   1   1  46101.18    169.54
  -2   1   2  361821.8   1604.44
  -2   1   3  41385.28    156.34
  -2   1   4  20121.94    119.88
  -2   1   5  11044.42     53.50
  -2   1   6  159171.4    584.94
  -2   1   7   8591.62     34.27
  -2   1   8  161832.2    445.43
  -2   1   9  11538.43     54.01
  -2   1  10  14196.75     63.76
  -2   1  11   9264.25     60.77
  -2   1  12   2290.72     18.49
  -2   1  13  23664.46    163.37
  -2   1  14   6807.80     57.08
  -2   1  15   9026.24    102.68
  -2   1  16   1134.26     22.00
  -2   1  17  10115.86     59.61
  -2   1  18   5462.11     59.56
  -2   1  19    393.66     30.69
  -2   1  20   4508.49     60.83
  -2   1  21   1908.36     53.30
  -2   1  22   1267.62     41.76
  -2   1  23   5044.70     96.44
  -2   2   1    164.66      4.17
  -2   2   2  56283.77    275.11
  -2   2   3  52141.79    291.24
  -2   2   4    152.66      6.26
  -2   2   5   1655.75     22.23
  -2   2   6   5934.32     35.11
  -2   2   7  88747.14    486.02
  -2   2   8  191723.9    975.86
  -2   2   9   9639.14     56.06
  -2   2  10   2856.95     29.48
  -2   2  11  13202.62     73.96
  -2   2  12    412.57     17.33
  -2   2  13  22251.15    267.18
  -2   2  14  12164.99    158.16
  -2   2  15   6147.03     69.29
  -2   2  16    433.65     26.13
  -2   2  17      8.69     22.48
  -2   2  18    945.52    105.75
  -2   2  19    909.48     46.51
  -2   2  20   7124.50     96.69
  -2   2  22    453.31     69.05
  -2   3   1  676433.5   4312.63
  -2   3   2   4326.77     60.02
  -2   3   3  20613.76    123.10
  -2   3   4  60282.10    259.75
  -2   3   5  22691.20    122.24
  -2   3   6  12783.38    117.52
  -2   3   7  60073.54    429.14
  -2   3   8      3.44      9.67
  -2   3   9   7049.40     58.13
  -2   3  10  25657.52    137.42
  -2   3  11   4741.30     48.94
  -2   3  12   9588.48     43.18
  -2   3  13    114.90     16.17
  -2   3  14   2578.54     37.08
  -2   3  15    136.12     25.05
  -2   3  16   2323.72     65.87
  -2   3  18   1025.56     60.57
  -2   3  21   1258.39     70.09
  -2   3  22  11731.90     89.22
  -2   3  23     55.33     31.92
  -2   3  24   4227.28    149.12
  -2   3  25    687.43     36.37
  -2   4   1  139080.6    312.24
  -2   4   2  94021.01   1044.40
  -2   4   3  10140.93    130.61
  -2   4   4   6925.90     74.31
  -2   4   5   4328.44     29.09
  -2   4   6   3295.60     34.73
  -2   4   7  12908.97     83.60
  -2   4   8  11513.26    165.27
  -2   4   9    805.43     12.98
  -2   4  10   3734.32     31.57
  -2   4  11  11924.74    109.23
  -2   4  12  16287.67    174.97
  -2   4  13  23516.47    156.88
  -2   4  14    257.35     26.60
  -2   4  15  17228.87    574.55
  -2   4  16   5414.94     76.95
  -2   4  17   6866.79    178.49
  -2   4  18   3483.00     95.05
  -2   4  19   1985.92     75.28
  -2   4  20   1237.10     35.96
  -2   4  21   1657.29    105.01
  -2   4  22    868.46     65.28
  -2   4  23   1370.56     39.91
  -2   4  24    255.01     33.33
  -2   5   1  57477.15    304.71
  -2   5   2     19.49     20.24
  -2   5   3  13085.35    527.60
  -2   5   4   3523.65     31.86
  -2   5   5  29904.55    229.37
  -2   5   6  27424.38    180.30
  -2   5   7   1088.48     21.51
  -2   5   8    109.29      9.04
  -2   5   9  47301.26    361.32
  -2   5  10  10221.51     57.01
  -2   5  11    316.85     13.80
  -2   5  12   4166.48     65.21
  -2   5  13    223.43     16.68
  -2   5  14     18.08     18.89
  -2   5  15     22.01     20.42
  -2   5  16  24834.31    386.44
  -2   5  17    951.88     39.61
  -2   5  18   1514.39     83.39
  -2   5  19   1912.73     80.39
  -2   5  20      0.00     27.36
  -2   5  21   1267.81     57.00
  -2   5  22   2455.70     85.55
  -2   5  23   1024.94     60.89
  -2   6   1    724.52     13.61
  -2   6   2   4000.01     73.51
  -2   6   3    478.78     10.34
  -2   6   4   6328.58    151.11
  -2   6   5    941.08     29.52
  -2   6   6    471.64      6.36
  -2   6   7   3970.43     52.92
  -2   6   8   7023.86     82.69
  -2   6   9   9007.93     98.56
  -2   6  10  42658.05    365.56
  -2   6  11  19092.03    360.79
  -2   6  12   8804.16    156.30
  -2   6  13   2641.04     59.10
  -2   6  14    872.44     21.61
  -2   6  15   1531.74     49.76
  -2   6  16     37.99     21.37
  -2   6  17     95.87     21.01
  -2   6  18   1952.31     51.29
  -2   6  19     23.86     25.57
  -2   6  20   2357.11    113.14
  -2   6  21     54.36     42.28
  -2   6  22   3008.59     57.01
  -2   7   1   8442.03    345.29
  -2   7   2  29775.28    306.70
  -2   7   3   8405.86     47.58
  -2   7   4  56795.34    532.95
  -2   7   5   3779.48     55.14
  -2   7   6  13867.28     66.67
  -2   7   7   2359.53     62.50
  -2   7   8  15004.26     50.48
  -2   7   9    115.62     11.60
  -2   7  10    991.02     18.13
  -2   7  11   4307.12     63.75
  -2   7  12      6.67     14.18
  -2   7  13   1022.30     42.78
  -2   7  14    567.91     20.48
  -2   7  15   8724.70    254.57
  -2   7  16    677.97     39.17
  -2   7  17   1587.44     73.44
  -2   7  18   2754.29     76.98
  -2   7  19    189.28     35.05
  -2   7  20     24.01     26.17
  -2   7  21   1318.78     52.20
  -2   8   1   2452.81     30.67
  -2   8   2   6305.32    354.23
  -2   8   3  19361.32    344.39
  -2   8   4  10277.49    576.10
  -2   8   5   2208.04     72.96
  -2   8   6   7995.63    241.86
  -2   8   7    294.79     31.22
  -2   8   8      7.00      9.42
  -2   8   9   3249.61     39.29
  -2   8  10    209.93     16.08
  -2   8  11  14260.16    216.41
  -2   8  12   2311.03     52.57
  -2   8  13     19.29     14.06
  -2   8  14   2226.08     62.21
  -2   8  15    624.71     19.93
  -2   8  16   2475.44     84.66
  -2   8  17    270.83     22.93
  -2   8  18   2659.06     69.90
  -2   8  19   4108.02    134.74
  -2   9   1   1864.66     29.33
  -2   9   2    535.01     25.92
  -2   9   3   4260.74    217.19
  -2   9   4  16477.00    125.55
  -2   9   5   5495.56    491.30
  -2   9   6   1223.86     29.55
  -2   9   7   4644.84    136.17
  -2   9   8   1313.75     40.56
  -2   9   9    646.46     42.74
  -2   9  10   3004.77     60.97
  -2   9  11    218.14     14.96
  -2   9  12   2720.49     51.45
  -2   9  13   1238.48     55.75
  -2   9  14   1838.42     51.60
  -2   9  15   1658.54     67.57
  -2  10   2   1376.77    129.94
  -2  10   3     29.40     19.20
  -2  10   4    992.50     93.63
  -2  10   5    487.35     17.32
  -2  10   6    157.96     14.87
  -2  10   7    539.75     27.36
  -2  10   8    462.40     33.05
  -2  10   9    239.99     44.40
  -2  10  10   1008.10     76.44
  -2  10  11  13854.76   1300.40
  -2  10  12   4020.76     68.86
  -2  10  13   5706.16     81.79
  -2  10  14     44.07     47.09
  -2  10  15    134.13     51.75
  -2  10  16    520.84     58.49
  -2  11   1   1707.12     29.85
  -2  11   2    551.51     43.44
  -2  11   3   6533.90    469.20
  -2  11   4  13656.83    846.90
  -2  11   5   3742.15     18.63
  -2  11   6     11.63     10.33
  -2  11   7   6148.02    398.97
  -2  11   8   1111.69     79.33
  -2  11   9   1022.67    142.75
  -2  11  10     96.33     27.84
  -2  11  11   1194.20    119.84
  -2  11  12    310.72     31.10
  -2  11  13    667.41     49.63
  -2  12   2    759.56     97.32
  -2  12   3    509.51     31.12
  -2  12   4   2198.68    118.64
  -2  12   5   1968.65     51.31
  -2  12   7    430.11     44.03
  -2  12   8   1475.73     57.39
  -2  13   9    626.30     56.54
  -1 -14  10   3008.46    220.82
  -1 -14  11    377.77     27.94
  -1 -14  12    416.09     29.79
  -1 -14  14    655.00     34.56
  -1 -14  15    310.43     28.76
  -1 -14  16   1580.89     72.81
  -1 -13   5     18.65     16.85
  -1 -13   6   2632.29     32.25
  -1 -13   7     61.33     15.79
  -1 -13   8      0.00     19.27
  -1 -13   9      7.74     32.92
  -1 -13  10   2378.80     41.28
  -1 -13  11    218.87     22.78
  -1 -13  12    860.13     26.68
  -1 -13  13     81.58     24.78
  -1 -13  14      0.00     33.44
  -1 -13  15   6354.96    212.01
  -1 -13  16    188.86     45.99
  -1 -13  17    224.45     48.58
  -1 -13  18   3530.17     57.55
  -1 -13  19    223.68     42.93
  -1 -12   1   1919.30     68.14
  -1 -12   2   1239.48     69.30
  -1 -12   3     32.76     13.98
  -1 -12   4    417.44     13.15
  -1 -12   5   7145.83     43.19
  -1 -12   6   2383.27     30.16
  -1 -12   7   1559.49     34.84
  -1 -12   8   2446.65     43.79
  -1 -12   9    630.21     21.31
  -1 -12  10     72.95     15.37
  -1 -12  11    190.90     14.43
  -1 -12  12   5102.34    174.38
  -1 -12  13    205.34     19.48
  -1 -12  14   1147.14     24.11
  -1 -12  15    176.93     23.77
  -1 -12  16   5210.53    395.96
  -1 -12  17   9381.79    200.76
  -1 -12  18     99.21     52.94
  -1 -12  19   2206.32     45.90
  -1 -12  20      6.31     28.20
  -1 -12  21    469.65     26.90
  -1 -12  22   4359.85    110.28
  -1 -11   1    854.66     37.19
  -1 -11   2    305.15     21.89
  -1 -11   3   3665.57     42.64
  -1 -11   4   3405.27     42.83
  -1 -11   6      1.20     14.73
  -1 -11   7     95.38     12.15
  -1 -11   8    246.56     12.74
  -1 -11   9     73.85     14.68
  -1 -11  10  10279.93    139.90
  -1 -11  11   9651.69    204.60
  -1 -11  12   3225.50     87.95
  -1 -11  13   1723.10     43.92
  -1 -11  14   2234.62     56.43
  -1 -11  15   7643.87    153.82
  -1 -11  16    117.22     20.58
  -1 -11  17   3521.27     69.07
  -1 -11  18     40.66     33.41
  -1 -11  19    349.24     24.54
  -1 -11  20     15.09     27.02
  -1 -11  21    117.41     25.75
  -1 -11  22   1323.99     36.36
  -1 -11  23   1360.39     78.75
  -1 -10   1   1439.56     57.49
  -1 -10   2    247.91     12.17
  -1 -10   4  13627.24    107.39
  -1 -10   5   1448.68     12.37
  -1 -10   6    974.88     17.60
  -1 -10   7  17847.95    226.31
  -1 -10   8     78.76     13.24
  -1 -10   9     28.84     14.13
  -1 -10  10   1305.52     20.88
  -1 -10  11  20107.18    277.40
  -1 -10  12      5.59      6.70
  -1 -10  13   5275.42     60.08
  -1 -10  14   1118.15     16.85
  -1 -10  15   1557.86     40.17
  -1 -10  16    442.29     22.56
  -1 -10  17   5490.74     73.51
  -1 -10  18     31.44     15.78
  -1 -10  19    424.60     23.56
  -1 -10  20     52.74     18.25
  -1 -10  21   9746.93    228.56
  -1 -10  22   4656.11     99.54
  -1 -10  23    303.64     25.04
  -1 -10  24    934.09     28.74
  -1  -9   1   5910.31     84.91
  -1  -9   2   3255.73     96.91
  -1  -9   3    932.33     12.77
  -1  -9   4  51624.19    295.91
  -1  -9   5   8452.92     76.09
  -1  -9   6   7441.15     73.75
  -1  -9   7   2555.74     22.42
  -1  -9   8   7414.88     59.61
  -1  -9   9   1658.87     20.68
  -1  -9  10     20.57      9.79
  -1  -9  11    833.09     24.97
  -1  -9  12    147.70      9.59
  -1  -9  13   4515.45     79.80
  -1  -9  14  19596.38    243.18
  -1  -9  15     20.75     13.34
  -1  -9  16   6320.02    105.61
  -1  -9  17     29.83     18.05
  -1  -9  18   1281.74     29.86
  -1  -9  19    280.60     18.57
  -1  -9  20   1071.84     21.57
  -1  -9  21   7646.87    102.91
  -1  -9  22    846.30     23.01
  -1  -9  23     21.87     21.68
  -1  -9  24    500.25     27.30
  -1  -9  25    505.91     30.05
  -1  -8   1  14512.63    132.61
  -1  -8   2    597.03     12.57
  -1  -8   3   6502.62     64.27
  -1  -8   4   7319.03     87.04
  -1  -8   5   4977.50     44.20
  -1  -8   6  32181.54    367.78
  -1  -8   7    184.18      5.81
  -1  -8   8   1199.09     14.20
  -1  -8   9     39.65      8.23
  -1  -8  10   6631.99     30.20
  -1  -8  11  11641.14    145.12
  -1  -8  12   1866.45     29.73
  -1  -8  13    405.79     14.80
  -1  -8  14    223.93     16.77
  -1  -8  15    832.81     20.84
  -1  -8  16   9402.34     87.32
  -1  -8  17   3603.98     51.81
  -1  -8  18   2258.08     42.67
  -1  -8  19   5504.01     59.06
  -1  -8  20  24014.27    241.76
  -1  -8  21   4130.54     56.54
  -1  -8  22   4768.96    111.90
  -1  -8  23     55.73     43.09
  -1  -8  24    558.50     30.68
  -1  -8  25   2247.21     61.07
  -1  -8  26     50.74     29.31
  -1  -7   1  15739.10    160.65
  -1  -7   2     16.75      6.04
  -1  -7   3  24415.29    177.17
  -1  -7   4   9822.49     90.64
  -1  -7   5   6439.75     54.79
  -1  -7   6   1002.62     14.79
  -1  -7   7   8912.06     53.86
  -1  -7   8   1040.78     13.56
  -1  -7   9   1449.16     23.67
  -1  -7  10    521.79     12.03
  -1  -7  11   2092.89     14.72
  -1  -7  12    653.24     13.79
  -1  -7  13  76465.33    421.92
  -1  -7  14   1600.89     19.88
  -1  -7  15    657.37     18.31
  -1  -7  16   7624.06     72.48
  -1  -7  17    182.60     17.18
  -1  -7  18    526.72     18.89
  -1  -7  19    914.00     23.17
  -1  -7  20   9447.60    127.39
  -1  -7  21   2603.84     88.62
  -1  -7  22    211.10     55.62
  -1  -7  23   2172.53     64.36
  -1  -7  24     11.69     36.83
  -1  -7  25   1267.87     42.91
  -1  -7  26     83.79     31.61
  -1  -7  27    697.99     34.50
  -1  -6   1    217.84      6.75
  -1  -6   2   2267.74     13.89
  -1  -6   3  36233.82    184.72
  -1  -6   4   5436.29     37.61
  -1  -6   5  31642.30    156.39
  -1  -6   6   1813.17     13.56
  -1  -6   7  10008.68     79.07
  -1  -6   8   5701.77     38.26
  -1  -6   9    649.84     15.46
  -1  -6  10  39592.69    340.01
  -1  -6  11   8554.79     51.46
  -1  -6  12   7587.27     75.69
  -1  -6  13   6536.20     64.82
  -1  -6  14  14633.71    115.73
  -1  -6  15  21984.02    180.17
  -1  -6  16   1771.00     34.85
  -1  -6  17    309.42     19.68
  -1  -6  18      8.13     20.15
  -1  -6  19   3218.64     34.40
  -1  -6  20  26012.46    176.34
  -1  -6  21   4421.14     45.95
  -1  -6  22     32.13     50.97
  -1  -6  23      0.00     63.75
  -1  -6  24   2959.71    132.11
  -1  -6  25   2099.90    160.79
  -1  -6  26    669.04     52.94
  -1  -6  27   2372.13     84.51
  -1  -5   1   4366.57     46.35
  -1  -5   2   7741.40     66.86
  -1  -5   3  88914.86    287.11
  -1  -5   4  17059.98     83.64
  -1  -5   5  15746.62     99.46
  -1  -5   6  126704.5    705.09
  -1  -5   7  19193.66    159.46
  -1  -5   8  50360.91    310.56
  -1  -5   9  20737.38    125.10
  -1  -5  10   4205.47     31.85
  -1  -5  11   6572.98     47.56
  -1  -5  12  38485.80    307.57
  -1  -5  13  12909.82     70.40
  -1  -5  14   7220.65     67.31
  -1  -5  15  11063.28    117.37
  -1  -5  16    545.69     20.01
  -1  -5  17   1771.55     27.31
  -1  -5  18   1321.24     23.21
  -1  -5  19   8974.45     44.38
  -1  -5  20   5845.32     56.43
  -1  -5  21   2358.51     51.10
  -1  -5  22   6814.62    112.97
  -1  -5  23    377.08     37.76
  -1  -5  24     55.95     63.15
  -1  -5  25     10.84     65.12
  -1  -4   1  18915.92    124.06
  -1  -4   2  243220.3   1068.86
  -1  -4   3    439.10      7.71
  -1  -4   4   3137.05     18.16
  -1  -4   5  34255.65    146.33
  -1  -4   6  16986.27    115.10
  -1  -4   7  18469.65    139.62
  -1  -4   8  19637.74    105.62
  -1  -4   9  92021.19    520.96
  -1  -4  10   7558.07     47.77
  -1  -4  11     25.76     11.82
  -1  -4  12    626.21     13.93
  -1  -4  13     90.86     13.92
  -1  -4  14   2042.33     31.16
  -1  -4  15   8461.35     65.24
  -1  -4  16   3149.69     37.23
  -1  -4  17   1987.71     21.34
  -1  -4  18    941.58     22.27
  -1  -4  19  19611.57    138.58
  -1  -4  20  31712.26    224.92
  -1  -4  21   4680.48     99.25
  -1  -4  22   3978.72     68.57
  -1  -4  23   8539.09    230.30
  -1  -3   1  105052.0    668.36
  -1  -3   2  707090.9   3175.65
  -1  -3   3  129648.0    586.82
  -1  -3   4  10126.93     49.59
  -1  -3   5  65334.20    650.44
  -1  -3   6  51299.42    301.95
  -1  -3   7    656.10      9.04
  -1  -3   8   2222.45     22.81
  -1  -3   9    423.95     10.74
  -1  -3  10  11561.81     38.94
  -1  -3  11  32069.54    164.55
  -1  -3  12  35459.52    196.37
  -1  -3  13    330.89     14.61
  -1  -3  14  49344.90    632.44
  -1  -3  15  11622.18     76.20
  -1  -3  16  14882.13     87.12
  -1  -3  17    156.26     24.31
  -1  -3  18    673.28     31.59
  -1  -3  19  22294.90    131.47
  -1  -3  20   2488.46     60.33
  -1  -2   1  272480.2   1885.06
  -1  -2   2  28589.63    214.60
  -1  -2   3     45.09      5.67
  -1  -2   4  154440.1    648.02
  -1  -2   5   6951.61     38.13
  -1  -2   6    208.31      7.99
  -1  -2   7   5788.67     39.71
  -1  -2   8  64694.28    273.86
  -1  -2   9  16579.74     78.31
  -1  -2  10  14478.89     79.97
  -1  -2  11  23911.58    114.91
  -1  -2  12   4328.71     19.87
  -1  -2  13   1669.48     23.47
  -1  -2  14     58.61     15.02
  -1  -2  15  36795.75    182.52
  -1  -2  16  17961.80     86.83
  -1  -2  17   1666.05     34.30
  -1  -2  20   1520.01     62.66
  -1  -1   1  214588.6   1192.35
  -1  -1   2  128502.2    474.87
  -1  -1   3  332767.7   1356.42
  -1  -1   4  44199.16    314.45
  -1  -1   5  365171.6   1210.57
  -1  -1   6   4916.29     15.97
  -1  -1   7   7386.10     46.45
  -1  -1   8  108238.2    436.27
  -1  -1   9  141420.1    590.99
  -1  -1  10    297.48     11.96
  -1  -1  11  152144.0    741.03
  -1  -1  12   7216.19     27.86
  -1  -1  13  18419.82     80.56
  -1  -1  14    560.28     16.13
  -1  -1  15    442.26     19.81
  -1  -1  16   3192.19     38.36
  -1  -1  17    326.57     27.55
  -1  -1  18  31128.01    283.34
  -1  -1  19   3517.51     69.12
  -1   0   1  79511.41    257.58
  -1   0   2  62927.88    152.48
  -1   0   3  544151.7   1986.64
  -1   0   4  17986.36    121.53
  -1   0   5  84612.81    335.15
  -1   0   6   9558.58     53.88
  -1   0   7  16337.09     86.42
  -1   0   8  24843.53    126.79
  -1   0   9  61465.54    238.02
  -1   0  10  62128.37    317.42
  -1   0  11  17301.83     85.18
  -1   0  12    775.39     14.63
  -1   0  13   5134.56     26.44
  -1   0  14   7832.80     38.53
  -1   0  15    279.23     28.75
  -1   0  16   4444.42     47.07
  -1   0  17   9587.34     86.14
  -1   0  18  24481.06    199.52
  -1   0  19   9352.62     78.02
  -1   1   1  39767.83    173.33
  -1   1   2   3504.13     25.05
  -1   1   3  383665.6   2003.73
  -1   1   4  1190125.   6842.54
  -1   1   5  52555.25    271.77
  -1   1   6   1776.89      9.97
  -1   1   7  21048.44    108.04
  -1   1   8   1755.76     16.39
  -1   1   9  63934.94    295.80
  -1   1  10  48703.84    248.27
  -1   1  11   1313.57     16.00
  -1   1  12  11601.09     46.44
  -1   1  13   9450.13     85.39
  -1   1  14     96.04     24.16
  -1   1  15   1967.67     28.72
  -1   1  16   3320.20     32.11
  -1   1  17  51898.62    580.61
  -1   1  18   1180.84     36.06
  -1   1  19    100.36     29.45
  -1   2   1   2159.21     21.34
  -1   2   2  112445.8    456.32
  -1   2   3   5939.87     41.89
  -1   2   4  52934.38    235.83
  -1   2   5  13669.41     71.21
  -1   2   6    243.10      7.03
  -1   2   7  73145.94    359.49
  -1   2   8  20018.41    112.00
  -1   2   9   6588.39     66.82
  -1   2  10     68.62     10.79
  -1   2  11    193.10     12.52
  -1   2  12   6982.35     51.05
  -1   2  13    369.41     26.47
  -1   2  14   7069.78     53.07
  -1   2  15   1972.93     33.00
  -1   2  16  21377.06    146.71
  -1   2  17   2126.65     51.49
  -1   2  18  38770.10    228.07
  -1   2  19   6189.26     58.69
  -1   2  20      3.29     54.92
  -1   3   1  22933.69    242.14
  -1   3   2  26551.35    130.64
  -1   3   3  93350.59    320.98
  -1   3   4  51351.05    180.67
  -1   3   5  14930.21     90.54
  -1   3   6   7048.04     59.90
  -1   3   7  16745.09    110.78
  -1   3   8  66225.86    363.50
  -1   3   9  67410.26    399.33
  -1   3  10   2654.19     17.89
  -1   3  11   4830.39     53.20
  -1   3  12  54272.68    280.84
  -1   3  13   8354.75     41.23
  -1   3  14   9933.19    124.82
  -1   3  15    368.46     22.52
  -1   3  16  18480.38    107.35
  -1   3  17  12880.51    279.74
  -1   3  18      3.42     38.40
  -1   3  19   4343.45     41.63
  -1   3  20   1039.61     46.66
  -1   3  21     45.13     29.02
  -1   3  22    943.71     35.24
  -1   3  23    215.38     44.14
  -1   3  24      0.00     33.11
  -1   3  25    175.16     35.11
  -1   4   1   3256.54     23.62
  -1   4   2  25227.41    139.07
  -1   4   3  19025.31     87.46
  -1   4   4   6165.03     47.41
  -1   4   5   4758.25     39.58
  -1   4   6  83728.40    624.17
  -1   4   7   2307.77     19.67
  -1   4   8   2506.23     19.07
  -1   4   9   2170.82     20.31
  -1   4  10    276.12     11.53
  -1   4  11  19775.55    314.44
  -1   4  12   4585.27     66.18
  -1   4  13  20942.11    311.89
  -1   4  14   4032.23     90.48
  -1   4  15   5958.85     54.55
  -1   4  16  10481.98    238.02
  -1   4  17   9198.29    106.00
  -1   4  18   1284.92     26.94
  -1   4  19   2472.07     87.09
  -1   4  20    269.71     34.10
  -1   4  21    796.74     31.83
  -1   4  22   1738.78     70.26
  -1   4  23    124.86     31.98
  -1   4  24    403.78     34.59
  -1   5   1    846.08      9.80
  -1   5   2   2870.34     13.22
  -1   5   3  17604.49    177.42
  -1   5   4   7627.91     66.01
  -1   5   5  28897.33    471.92
  -1   5   6  111193.3    794.53
  -1   5   7  83451.76    543.29
  -1   5   8  22775.65    202.81
  -1   5   9   4888.33     50.54
  -1   5  10   1293.76     17.51
  -1   5  11   5490.60     47.25
  -1   5  12   1534.42     25.79
  -1   5  13    732.16     21.29
  -1   5  14   1094.63     25.44
  -1   5  15   5661.31     89.72
  -1   5  16  21780.12    167.85
  -1   5  17    120.85     22.14
  -1   5  18   6064.08    151.05
  -1   5  19   2031.52     68.78
  -1   5  20    355.65     34.82
  -1   5  21      0.00     53.53
  -1   5  22   1447.60     36.20
  -1   5  23    315.67     32.41
  -1   6   1  52186.71    983.42
  -1   6   2    268.49      7.55
  -1   6   3    684.31     12.68
  -1   6   4     72.95     10.08
  -1   6   5  33435.48    192.81
  -1   6   6   2043.45     16.50
  -1   6   7   8779.20     75.99
  -1   6   8   6454.10     58.30
  -1   6   9    812.76     17.63
  -1   6  10   1951.13     30.44
  -1   6  11    402.53     13.89
  -1   6  12   2019.71     37.44
  -1   6  13    129.41     18.59
  -1   6  14   4065.18     64.07
  -1   6  15  10578.21     57.82
  -1   6  16   3538.33     92.06
  -1   6  17   1799.71     62.21
  -1   6  18     17.34     20.81
  -1   6  19   5996.10     85.74
  -1   6  20   1431.72     59.43
  -1   6  21   5825.55    175.55
  -1   6  22    614.12     37.76
  -1   7   1  14079.00    166.26
  -1   7   2  27483.25    292.42
  -1   7   3      7.58      9.97
  -1   7   4    219.17     10.72
  -1   7   5  10164.54    147.05
  -1   7   6    515.65      7.24
  -1   7   7  44842.92    182.59
  -1   7   8   4252.79     50.22
  -1   7   9   2613.60     36.98
  -1   7  10    566.75     11.87
  -1   7  11    984.92     22.19
  -1   7  12   5692.24     90.16
  -1   7  13   1432.18     26.34
  -1   7  14    539.42     18.90
  -1   7  15  28081.72    239.02
  -1   7  16     27.36     20.20
  -1   7  17   1851.53     59.45
  -1   7  18     18.00     22.30
  -1   7  19     81.18     23.92
  -1   7  20     55.04     26.95
  -1   7  21   1136.60     41.98
  -1   8   1   3112.32     51.60
  -1   8   2   2435.39     78.58
  -1   8   3   1657.83     36.86
  -1   8   4   4956.70     70.04
  -1   8   5   7639.64    171.50
  -1   8   6   4649.74    127.30
  -1   8   7   2997.94     66.68
  -1   8   8   1032.20     14.29
  -1   8   9     18.01      9.20
  -1   8  10   2183.65     50.40
  -1   8  11    435.07     16.84
  -1   8  12     26.15     16.30
  -1   8  13     56.14     14.71
  -1   8  14  16709.59     80.40
  -1   8  15     34.91     17.10
  -1   8  16   4210.10     57.61
  -1   8  17    100.97     27.46
  -1   8  18    830.74     37.87
  -1   8  19    131.85     26.33
  -1   9   1    649.41     22.36
  -1   9   2    933.56     19.93
  -1   9   3    203.59      9.80
  -1   9   4   1739.26     40.46
  -1   9   5    126.15     12.47
  -1   9   6   9045.73    225.16
  -1   9   7  29340.06    242.45
  -1   9   8  16271.24     87.85
  -1   9   9   1653.35     74.80
  -1   9  10   3706.32    140.68
  -1   9  11   1082.04     36.22
  -1   9  12    196.46     18.90
  -1   9  13    401.19     20.35
  -1   9  14   6223.71     53.54
  -1   9  15   2360.26    140.22
  -1   9  16   1197.76     47.33
  -1   9  17    348.47     81.59
  -1  10   1  11115.94    390.00
  -1  10   3      3.09     20.95
  -1  10   4   8770.03    159.03
  -1  10   5   1640.91     64.77
  -1  10   7    471.57     48.69
  -1  10   8    323.98     33.37
  -1  10   9   3334.79    232.63
  -1  10  10     49.30     25.88
  -1  10  11    711.14     44.71
  -1  10  12    195.53     31.27
  -1  10  13   3275.76    423.11
  -1  10  14   2149.21    230.57
  -1  10  15    460.80     39.91
  -1  10  16     95.07     44.01
  -1  11   1   2471.61     33.77
  -1  11   2   9357.15    419.48
  -1  11   3   1217.50     25.87
  -1  11   4   4166.36     57.27
  -1  11   5   6304.14    438.28
  -1  11   6   9763.79    230.54
  -1  11   7    219.80     18.07
  -1  11   8   1390.84     77.83
  -1  11   9    106.18     27.38
  -1  11  10   2210.18     57.83
  -1  11  11    783.59     36.85
  -1  11  12    614.55     39.07
  -1  11  13   3194.71    165.65
  -1  11  14    968.49     69.21
  -1  12   1    170.74     13.59
  -1  12   2    613.60     27.92
  -1  12   3   2649.38     46.91
  -1  12   4    735.46     31.92
  -1  12   5     85.33     36.72
  -1  12   6    223.71     41.45
  -1  12   7     63.28     42.13
  -1  12   8    565.58     49.41
  -1  12   9     47.98     47.31
  -1  12  10    486.61     55.39
  -1  12  11    222.24     55.20
  -1  13   8    290.56     49.58
  -1  13   9    187.96     53.71
   0 -14  11   1583.35     87.88
   0 -14  12    227.63     23.13
   0 -14  13      0.00     23.60
   0 -14  14   1163.45     53.40
   0 -14  15   4226.93     57.18
   0 -14  16    825.72     35.94
   0 -14  17      9.99     29.57
   0 -13   6      0.00     14.92
   0 -13   7     70.00     18.02
   0 -13   8     52.79     15.37
   0 -13   9   3583.71    145.59
   0 -13  10      8.55     25.14
   0 -13  11    113.58     20.91
   0 -13  12    727.51     37.87
   0 -13  13  12853.59     76.10
   0 -13  14    362.82     33.53
   0 -13  15   3756.19    153.26
   0 -13  16     20.04     36.49
   0 -13  17    143.60     29.91
   0 -13  18    718.91     34.46
   0 -13  19      0.00     32.03
   0 -13  20   1085.79     62.72
   0 -12   4   7081.26    179.72
   0 -12   5  13831.62    183.22
   0 -12   6  19218.24     67.05
   0 -12   7  13646.17     61.05
   0 -12   8     51.08     23.79
   0 -12   9   3242.46     84.49
   0 -12  10     77.73     15.43
   0 -12  11   1146.20     26.39
   0 -12  12    789.45     16.10
   0 -12  13   2026.48     47.96
   0 -12  14   6065.73    114.32
   0 -12  15   2195.95     58.51
   0 -12  16    487.92     31.11
   0 -12  17   1735.84     49.19
   0 -12  18   1289.92     44.41
   0 -12  19     78.00     22.80
   0 -12  20    325.82     26.56
   0 -12  21     48.54     25.34
   0 -12  22   2687.75     55.74
   0 -11   1     13.63     10.85
   0 -11   3   1239.43     15.37
   0 -11   4   3510.24     29.40
   0 -11   5    417.95     12.33
   0 -11   6   2217.81     30.70
   0 -11   7   4793.79     36.87
   0 -11   8  16843.71    253.76
   0 -11   9    792.19     20.40
   0 -11  10    377.50     11.38
   0 -11  11    230.86     12.87
   0 -11  12   3474.55     41.62
   0 -11  13   7313.04     94.47
   0 -11  14    224.19     17.61
   0 -11  15   1649.43     59.98
   0 -11  16     10.04     13.60
   0 -11  17   2804.38     63.84
   0 -11  18    262.54     23.10
   0 -11  19    262.99     24.07
   0 -11  20   5742.98    421.52
   0 -11  21   1285.24     61.90
   0 -11  22   2120.75     46.98
   0 -11  23    486.88     37.73
   0 -10   1  23173.67    165.69
   0 -10   2   9530.22     36.92
   0 -10   4  50838.62    370.38
   0 -10   5  17513.99     78.00
   0 -10   6   1016.23     24.02
   0 -10   7   6819.34     36.24
   0 -10   8    661.66     23.99
   0 -10   9    827.39     15.05
   0 -10  10   4731.42     64.34
   0 -10  11   1741.97     20.08
   0 -10  12   3402.79     48.49
   0 -10  13   5323.38     83.66
   0 -10  14   5566.88     68.31
   0 -10  15   2964.05     49.39
   0 -10  16   6086.72    115.75
   0 -10  17    101.88     16.73
   0 -10  18   2110.59     58.34
   0 -10  19    288.29     28.65
   0 -10  20    270.21     24.33
   0 -10  21    930.72     30.01
   0 -10  22  14725.94     87.72
   0 -10  23   2408.07     80.68
   0 -10  24    748.15     40.65
   0 -10  25    125.06     26.80
   0  -9   2   8269.02     43.20
   0  -9   3   9663.26     39.92
   0  -9   4      0.00      9.72
   0  -9   5     15.51     11.33
   0  -9   6     11.10     10.66
   0  -9   7   1743.23     23.58
   0  -9   8   4820.28     47.81
   0  -9   9     37.33     14.50
   0  -9  10   1173.59     25.76
   0  -9  11    566.24     17.59
   0  -9  12  15936.12    189.14
   0  -9  13   6168.39     72.91
   0  -9  14    734.37     13.30
   0  -9  15  10192.67    114.97
   0  -9  16  18756.93    211.07
   0  -9  17    304.71     19.61
   0  -9  18   4043.08    116.84
   0  -9  19   2173.28    162.65
   0  -9  20   1037.22     43.03
   0  -9  21     98.52     62.90
   0  -9  22    201.67     37.60
   0  -9  23     52.66     37.39
   0  -9  24    224.51     71.06
   0  -9  25     18.17     42.32
   0  -8   1   3469.49     18.83
   0  -8   2  21304.43    128.07
   0  -8   3  65962.24    292.77
   0  -8   4  35398.03    306.00
   0  -8   5   1283.10     11.18
   0  -8   6  13945.38     47.05
   0  -8   7   7241.11     40.86
   0  -8   8   1726.48     14.12
   0  -8   9  37830.05    451.92
   0  -8  10  12671.18    162.48
   0  -8  11    250.25     16.71
   0  -8  12     23.61     10.16
   0  -8  13  22505.75    225.57
   0  -8  14   4190.51     73.14
   0  -8  15   7937.17    110.37
   0  -8  16     30.96     16.79
   0  -8  17   4906.28     52.51
   0  -8  18    103.14     21.68
   0  -8  19    290.61     25.91
   0  -8  20   4687.58     53.43
   0  -8  21  11561.80    108.82
   0  -7   1   1656.60      7.54
   0  -7   2   3180.80     51.66
   0  -7   3     12.23      3.83
   0  -7   4   3982.03     26.53
   0  -7   5   7980.65     37.94
   0  -7   6    513.23     10.56
   0  -7   7   5947.13     49.66
   0  -7   8  12294.89     70.55
   0  -7   9  30214.40    271.05
   0  -7  10   9760.29     92.29
   0  -7  11  53440.31    407.63
   0  -7  12   3972.66     49.79
   0  -7  13   3095.26     43.79
   0  -7  14    514.18     15.45
   0  -7  15    802.88     30.81
   0  -7  16   9214.45     74.16
   0  -7  17    838.60     18.31
   0  -7  18   3877.02     59.23
   0  -7  19   4789.83     35.63
   0  -7  20    221.73     26.19
   0  -7  21     67.65     47.26
   0  -6   1   2797.73     29.41
   0  -6   2  304920.0   1602.01
   0  -6   3   8204.04     41.93
   0  -6   4  79265.37    315.48
   0  -6   5  78183.99    541.08
   0  -6   6    330.04      8.39
   0  -6   7   3856.91     14.55
   0  -6   8  20260.62     99.53
   0  -6   9     25.53      9.14
   0  -6  10   8801.90     59.24
   0  -6  11   1420.36     17.54
   0  -6  12  41923.68    230.17
   0  -6  13   4454.55     39.79
   0  -6  14   3579.39     60.21
   0  -6  15   1439.27     32.91
   0  -6  16   2929.37     58.21
   0  -6  17    364.49     29.07
   0  -6  18   3459.10     66.12
   0  -6  19  11299.20     99.08
   0  -6  21   2613.10     64.96
   0  -6  22   2042.38     63.63
   0  -5   1     13.31      4.99
   0  -5   2   1285.89     17.21
   0  -5   3  44456.80    307.64
   0  -5   4  67256.32    402.68
   0  -5   5  24492.88    133.36
   0  -5   6  35996.08    147.14
   0  -5   7   4216.23     33.46
   0  -5   8   3183.95     19.02
   0  -5   9   3518.82     17.69
   0  -5  10  10830.89     70.53
   0  -5  11  33276.60    199.99
   0  -5  12   9505.55     51.18
   0  -5  13    255.01     13.62
   0  -5  14    137.32     15.87
   0  -5  15   6653.53     92.35
   0  -5  16  20048.23    280.72
   0  -5  17   1793.16     29.64
   0  -5  18  34331.20    394.22
   0  -5  19   4265.78     72.43
   0  -5  20    591.16     59.43
   0  -4   1  397424.0   1850.98
   0  -4   2  330270.6   3568.13
   0  -4   3  18543.11    130.04
   0  -4   4  13924.43     80.61
   0  -4   5  19539.24     91.89
   0  -4   6  19119.79     90.18
   0  -4   7  15333.57    105.43
   0  -4   8  14339.27     79.25
   0  -4   9  10082.75     62.20
   0  -4  10  35386.99    259.13
   0  -4  11  110105.6    734.30
   0  -4  12     93.90     12.65
   0  -4  13   1401.11     17.01
   0  -4  14  16256.91    123.99
   0  -4  15     24.36     21.25
   0  -4  16   1332.15     29.33
   0  -4  17  10280.66    147.44
   0  -4  18  18192.17    277.06
   0  -4  19   7751.93     42.15
   0  -4  20  12152.71    268.89
   0  -3   1  11682.56     65.21
   0  -3   2   8783.09     51.71
   0  -3   3   9868.04     50.62
   0  -3   4    649.60      6.19
   0  -3   5  14372.50     83.51
   0  -3   6   6473.73     19.33
   0  -3   7  10231.26     50.56
   0  -3   8  38657.04    158.66
   0  -3   9  10752.52     48.89
   0  -3  10   9668.91     38.71
   0  -3  11  122395.0    401.35
   0  -3  12  34501.36    151.12
   0  -3  13  19388.73    108.73
   0  -3  14  24479.70    347.66
   0  -3  15   8900.78     74.54
   0  -3  16   4439.08     45.48
   0  -3  17   6210.48     86.82
   0  -3  18   3238.47     42.15
   0  -3  21    577.15     61.99
   0  -2   2  56815.65    224.52
   0  -2   3  56883.06    262.44
   0  -2   4  18740.91     81.89
   0  -2   5  406606.9   1492.58
   0  -2   6  24324.84    127.91
   0  -2   7  240310.8    511.84
   0  -2   8  79359.83    300.31
   0  -2   9  20703.58     92.77
   0  -2  10  38084.87    169.88
   0  -2  11  21670.97     91.20
   0  -2  12     22.44     12.15
   0  -2  13  20411.68    123.29
   0  -2  14   1505.28     19.12
   0  -2  15   5701.88     64.17
   0  -2  16   5301.08     34.58
   0  -2  17   4040.74     38.86
   0  -1   1  18963.16     86.47
   0  -1   2  23087.81     72.59
   0  -1   3  21501.31    132.16
   0  -1   4  77202.77    261.23
   0  -1   5  33458.71    177.80
   0  -1   6  214432.4   1004.62
   0  -1   7  178629.7    845.03
   0  -1   8    228.74     10.36
   0  -1   9  47971.44    222.15
   0  -1  10  62366.40    251.68
   0  -1  11   1795.34     15.48
   0  -1  12   2006.19     15.73
   0  -1  13   1261.23     15.53
   0  -1  14  15215.30     56.45
   0  -1  15  16176.07     60.27
   0  -1  16   2265.64     25.50
   0  -1  17   3467.63     45.96
   0  -1  18    937.74     69.46
   0  -1  19   9620.53    100.39
   0  -1  20  14031.45     83.80
   0  -1  21   8823.14    128.45
   0  -1  22    205.07     42.91
   0  -1  24    121.68     74.45
   0  -1  25    388.52     54.46
   0  -1  26    419.42     55.73
   0  -1  27     45.84     45.42
   0   0   1    803.82      8.73
!   0   0   2   3025.57     19.32
   0   0   3   9356.20     53.30
   0   0   4  85745.34    226.12
   0   0   5  127747.3    458.08
   0   0   6  51548.44    180.45
   0   0   7   7265.31     62.69
   0   0   8  33087.21    190.40
   0   0   9   1489.21     15.42
   0   0  10  71449.69    284.50
   0   0  11    155.14     12.72
   0   0  12  33717.16    185.48
   0   0  13   9204.47     55.16
   0   0  14  15540.82     88.74
   0   0  15    473.62     18.98
   0   0  16    436.64     24.03
   0   0  17  30024.73    253.55
   0   0  18  17229.32    157.16
   0   0  19   4199.75     82.56
   0   0  20     44.40     39.03
   0   0  25    987.35     38.03
   0   0  26    117.18     44.89
   0   0  27   3597.88     50.09
   0   1   0  59156.60    251.92
   0   1   1  97172.57    428.28
   0   1   2  91042.07    379.55
   0   1   3   1143.97      6.37
   0   1   4   8979.53     45.08
   0   1   5  21070.10    122.24
   0   1   6   9875.11     46.24
   0   1   7  15065.60     75.39
   0   1   8  39514.61    181.37
   0   1   9  26509.02    122.12
   0   1  10  31873.65    153.40
   0   1  11   2079.78     21.75
   0   1  12  13724.69    226.41
   0   1  13   1742.81     32.52
   0   1  14  84364.38    332.85
   0   1  15   2360.75     30.77
   0   1  16  15669.02    123.18
   0   1  17    111.00     17.68
   0   1  18   1106.56     20.55
   0   1  19    337.04     23.61
   0   1  20     74.68     29.34
   0   1  21   2185.88     74.03
   0   1  22    241.40     59.53
   0   1  23    328.97     45.31
   0   1  24   1350.34     83.73
   0   1  25    382.62     35.85
   0   1  26    280.66     33.91
   0   2   0  912113.0   1186.08
   0   2   1  140982.0    759.36
   0   2   2    704.10      7.71
   0   2   3    330.84      7.07
   0   2   4  195822.0    751.70
   0   2   5  66766.02    316.57
   0   2   6  41895.23    160.23
   0   2   7   3505.49     20.21
   0   2   8  48461.92    253.85
   0   2   9  156017.8    925.24
   0   2  10   1914.55     15.87
   0   2  11   8945.71     51.75
   0   2  12     78.21     15.85
   0   2  13   2298.11     28.62
   0   2  14   1941.52     19.45
   0   2  15   3119.10     27.20
   0   2  16  32138.56    175.25
   0   2  17  11263.18     74.27
   0   2  18     17.16     21.99
   0   2  19   2331.45     29.82
   0   2  20    555.43     28.68
   0   2  21    280.07     41.11
   0   2  22   5380.22    100.05
   0   2  23   1827.24     74.54
   0   2  24     11.06     49.16
   0   2  25    102.79     35.84
   0   2  26   1818.25     39.18
   0   3   0  31276.47    319.80
   0   3   1  38309.03    142.73
   0   3   2   4115.42     19.35
   0   3   3  32768.23    159.19
   0   3   4    231.87      8.16
   0   3   5      0.00      6.39
   0   3   6    631.09      8.08
   0   3   7  91203.08    493.44
   0   3   8   1240.73     14.41
   0   3   9  114363.0    516.72
   0   3  10  12737.78     97.06
   0   3  11    493.58     14.19
   0   3  12   2233.49     20.59
   0   3  13  18093.98    125.39
   0   3  14  12530.36     97.87
   0   3  15    305.88     16.44
   0   3  16   1171.12     27.03
   0   3  17    236.21     20.89
   0   3  18    392.54     22.97
   0   3  19    272.82     22.98
   0   3  20     61.67     32.59
   0   3  21   2807.65     60.02
   0   3  22   7257.75     57.11
   0   3  23   4856.04    125.52
   0   3  24      0.00     27.68
   0   3  25     41.37     28.67
   0   4   0  16001.81     79.07
   0   4   1  190507.3    916.09
   0   4   2  131985.8    876.42
   0   4   3  266941.2    513.80
   0   4   4   5112.01     51.71
   0   4   5    188.26      8.33
   0   4   6   7407.48     85.26
   0   4   7   2609.01     29.08
   0   4   8  33389.68    154.28
   0   4   9   5214.97     32.05
   0   4  10   4543.93     42.06
   0   4  11   3696.36     19.39
   0   4  12    741.98     16.25
   0   4  13   4628.72     64.01
   0   4  14   4096.62     36.66
   0   4  15  25071.93    249.46
   0   4  16   7634.74     86.88
   0   4  17   2094.00     49.93
   0   4  18   5079.40     45.67
   0   4  19     45.36     25.34
   0   4  20     33.68     25.40
   0   4  21   7458.20     57.19
   0   4  22    112.59     26.16
   0   4  23   1537.08     59.12
   0   4  24   1238.98     54.50
   0   5   0   4874.18     56.57
   0   5   1   6480.99     85.49
   0   5   2  42129.39    540.44
   0   5   3  17172.43    152.17
   0   5   4  14841.07    144.84
   0   5   5  11888.87    198.48
   0   5   6  11443.23    160.61
   0   5   7  12272.08    126.62
   0   5   8  22101.93    193.87
   0   5   9   2083.94     25.79
   0   5  10   2990.70     17.51
   0   5  11   2853.16     18.36
   0   5  12   4297.09     23.92
   0   5  13  15291.97    101.76
   0   5  14   4841.29     43.95
   0   5  15   3578.40     47.45
   0   5  16   7790.11     94.00
   0   5  17   8916.36     81.49
   0   5  18   2905.85     55.49
   0   5  19    646.98     26.21
   0   5  20    400.40     27.10
   0   5  21    828.96     29.97
   0   5  22     14.14     28.01
   0   5  23   1349.81     55.84
   0   6   0  19578.75    182.75
   0   6   1   1382.56     18.14
   0   6   2  10777.50    110.37
   0   6   3  45843.36    414.12
   0   6   4    568.47     10.15
   0   6   5  13758.45    163.83
   0   6   6    306.61      9.78
   0   6   7  10125.49     88.52
   0   6   8   2261.25     23.38
   0   6   9   1927.52     18.48
   0   6  10  23385.41    120.08
   0   6  11   8600.77     58.12
   0   6  12   7719.57     28.01
   0   6  13   1853.85     19.35
   0   6  14   8723.76     91.31
   0   6  15   9164.90     83.32
   0   6  16   3027.16     31.41
   0   6  17   5036.11     48.43
   0   6  18    124.59     27.39
   0   6  19    427.49     26.52
   0   6  20   1402.91     38.58
   0   6  21   1820.78     60.89
   0   6  22     52.71     25.86
   0   7   0   1369.71     38.71
   0   7   1   1946.47     44.13
   0   7   2    390.65     12.21
   0   7   3   1914.84     44.30
   0   7   4   3825.03     37.14
   0   7   5   1652.48     17.79
   0   7   6  16454.42    234.68
   0   7   7  10025.76    124.43
   0   7   8    968.26     15.45
   0   7   9   1764.14     13.93
   0   7  10  19130.69     95.08
   0   7  11   1622.98     15.90
   0   7  12  25883.39    179.45
   0   7  13   1162.76     27.15
   0   7  14     62.98     18.74
   0   7  15     81.55     16.31
   0   7  16      0.00     18.29
   0   7  17    457.15     20.83
   0   7  18    123.75     20.64
   0   7  19    215.13     39.51
   0   7  20     37.80     23.68
   0   7  21    168.04     25.47
   0   8   0   2198.71     39.13
   0   8   1   1083.86     57.87
   0   8   2   9997.39    126.76
   0   8   3  15540.50    142.05
   0   8   4  53545.59    387.20
   0   8   5  10504.76     37.71
   0   8   6     84.30      6.91
   0   8   7   6453.71     75.10
   0   8   8    117.73     18.00
   0   8   9   4902.34     61.23
   0   8  10    145.01     14.98
   0   8  11    451.05     14.35
   0   8  12   1957.24     31.37
   0   8  13   1009.35     39.80
   0   8  14  11630.62    104.98
   0   8  15    872.31     27.37
   0   8  16   1400.91     35.31
   0   8  17      0.00     18.35
   0   8  18    294.49     21.15
   0   8  19    180.41     20.74
   0   9   0    141.07     17.47
   0   9   1     62.35      3.42
   0   9   2    774.47     21.06
   0   9   3   3546.49     69.45
   0   9   4    551.02     16.61
   0   9   5  22290.33    473.23
   0   9   6    639.12     31.18
   0   9   7   6799.79     51.46
   0   9   8     18.62      8.72
   0   9   9   1668.43     44.34
   0   9  10   1155.01     50.12
   0   9  11   2947.11     69.47
   0   9  12   5022.95     56.56
   0   9  13     38.20     13.97
   0   9  14    149.58     17.65
   0   9  15     68.84     16.43
   0   9  16      0.00     29.34
   0   9  17   1111.10     62.12
   0  10   0   2407.45     29.76
   0  10   1  11231.71    253.45
   0  10   2   4812.14    187.04
   0  10   3   7261.79     55.72
   0  10   4    941.07     35.68
   0  10   5   5238.23     99.14
   0  10   6    999.47     39.17
   0  10   7     17.57     16.67
   0  10   8    259.78     24.98
   0  10   9    245.30     10.87
   0  10  10    251.50     22.87
   0  10  11     30.34     23.62
   0  10  12    781.00     83.49
   0  10  13  14850.22     87.26
   0  10  14    222.66     28.26
   0  10  15    302.24     49.04
   0  10  16     43.65     29.72
   0  11   0    617.01     20.80
   0  11   1    278.02     16.74
   0  11   2     42.70     18.15
   0  11   3    258.22     58.11
   0  11   4   2995.90    112.71
   0  11   5   2529.64     71.24
   0  11   6   2222.36     84.41
   0  11   7     25.38     25.49
   0  11   8    182.94     37.70
   0  11   9    952.21     54.25
   0  11  10   2786.55    107.13
   0  11  11    409.69     30.51
   0  11  12   3409.15     54.23
   0  11  13   3976.42     59.74
   0  11  14   1454.09    131.42
   0  12   0    612.69     19.14
   0  12   1   3849.56    196.30
   0  12   2    947.02     43.00
   0  12   3   2363.53     47.74
   0  12   4    746.13     28.01
   0  12   5   6241.93    490.64
   0  12   6   3218.77    356.80
   0  12   7   1622.52    150.01
   0  12   8   1896.96    188.75
   0  12   9     31.75     50.03
   0  12  10    101.82     37.31
   0  12  11    293.55     40.48
   0  13   8   2250.19    202.22
   1 -14  12    890.67     24.63
   1 -14  13    880.89     53.57
   1 -14  14     28.80     24.56
   1 -14  15   1125.90     60.21
   1 -14  16     49.05     30.72
   1 -14  17     48.71     32.59
   1 -14  18     28.56     30.27
   1 -13   6   2635.14    229.99
   1 -13   7   1217.12     33.80
   1 -13   8    802.97     34.39
   1 -13   9    387.09     18.16
   1 -13  10   3734.75    105.13
   1 -13  11    260.15     20.48
   1 -13  12     26.15     21.32
   1 -13  13    868.19     26.49
   1 -13  14    331.45     29.97
   1 -13  15   3062.81    154.37
   1 -13  16    428.49     29.02
   1 -13  17    451.96     30.07
   1 -13  18    192.97     38.71
   1 -13  19    446.30     36.75
   1 -13  20   1254.70     90.05
   1 -12   0   2417.05     24.13
   1 -12   5    414.09      8.65
   1 -12   6    125.82     10.32
   1 -12   7   1963.42     29.97
   1 -12   8   3472.76     60.45
   1 -12   9   1931.83     68.15
   1 -12  10    106.79     28.43
   1 -12  11    152.37     38.79
   1 -12  12   1964.41     40.39
   1 -12  13   1292.03     36.70
   1 -12  14   2218.92     46.26
   1 -12  15   1265.95     38.77
   1 -12  16   1927.38     51.48
   1 -12  17   1648.87     60.53
   1 -12  18   2939.36     97.41
   1 -12  19     48.90     22.83
   1 -12  20   1823.08     75.48
   1 -12  21     46.10     24.92
   1 -12  22    283.50     26.80
   1 -11   0   2135.17     54.56
   1 -11   4   9206.81     30.98
   1 -11   5   6450.70     62.51
   1 -11   6   2554.11     34.29
   1 -11   7    274.72     18.68
   1 -11   8     20.85     17.56
   1 -11   9   2049.65     39.92
   1 -11  10    388.18     14.58
   1 -11  11      5.89     10.89
   1 -11  12   3258.91     85.14
   1 -11  13   2212.25     40.68
   1 -11  14   1899.61     39.96
   1 -11  15   1762.29     66.66
   1 -11  16     27.90      9.96
   1 -11  17   1380.10     49.38
   1 -11  18   7204.15     65.71
   1 -11  19   6063.25     75.04
   1 -11  21     88.05     60.26
   1 -10   0     94.94     15.06
   1 -10   1   1541.53     17.32
   1 -10   4  10405.80     47.60
   1 -10   5   1207.82     13.23
   1 -10   6   3056.50     26.53
   1 -10   7   1809.96     26.58
   1 -10   8   7338.50    159.79
   1 -10   9    818.72     10.94
   1 -10  10   3599.55     54.66
   1 -10  11   2378.76     39.51
   1 -10  12  22069.22    276.71
   1 -10  13  12732.06    126.26
   1 -10  14    220.86     12.06
   1 -10  15     28.67     13.15
   1 -10  16    137.27     20.93
   1 -10  17     22.60     22.55
   1 -10  18    978.70     49.48
   1 -10  19   1652.25     45.90
   1 -10  20      0.00     25.68
   1 -10  21     33.19     28.28
   1 -10  22     88.26     30.88
   1 -10  23    540.76     81.25
   1 -10  24   1382.23    234.11
   1 -10  25    338.37     53.41
   1  -9   0    187.16     10.90
   1  -9   1    414.81      8.72
   1  -9   2    433.53      9.43
   1  -9   3  11088.17     97.50
   1  -9   4  29328.09    235.00
   1  -9   5  12475.58    107.03
   1  -9   6   1665.49     21.04
   1  -9   7   3065.63     64.88
   1  -9   8     40.98     10.06
   1  -9   9   6230.79     80.70
   1  -9  10    106.47     11.93
   1  -9  11  10054.06     41.59
   1  -9  12   7508.08    112.67
   1  -9  13    248.06      9.98
   1  -9  14   8858.68    132.01
   1  -9  15    638.02     14.23
   1  -9  16      0.00     14.57
   1  -9  17   1859.34     53.39
   1  -9  18     37.27     19.59
   1  -9  19   3061.99    100.28
   1  -9  20    495.71     62.26
   1  -9  21    299.94     64.03
   1  -9  24    309.01     55.13
   1  -9  25    147.66     53.86
   1  -9  26   3902.67     85.91
   1  -8   0   5644.40     89.51
   1  -8   1     12.84      6.64
   1  -8   2    187.65     11.71
   1  -8   3  19248.05    110.76
   1  -8   4   7114.14     44.97
   1  -8   5  49439.27    412.27
   1  -8   6   8631.74    107.60
   1  -8   7  47654.07    894.07
   1  -8   8     41.69     14.30
   1  -8   9     37.16     11.52
   1  -8  10   1341.15     21.42
   1  -8  11   4274.98     39.74
   1  -8  12      9.08      9.41
   1  -8  13   9064.06     80.48
   1  -8  14     27.17     15.64
   1  -8  15   2052.86     61.60
   1  -8  16    496.20     18.37
   1  -8  17    556.06     23.44
   1  -8  18   8886.59     65.82
   1  -8  19   1315.35     80.14
   1  -8  20   1298.44     37.27
   1  -8  21   2426.35    237.97
   1  -8  22   3732.36     76.59
   1  -8  23    685.88     60.11
   1  -8  24      0.00     58.84
   1  -8  25    137.43     61.68
   1  -8  26      0.00     64.98
   1  -7   0  17218.78    147.25
   1  -7   1  29075.81    524.25
   1  -7   2  38857.81    233.80
   1  -7   3  28571.55    224.33
   1  -7   4   1643.67     40.23
   1  -7   5    760.74     20.54
   1  -7   6   1050.12     13.15
   1  -7   7   1321.15     11.39
   1  -7   8  24139.08    184.89
   1  -7   9    191.83      8.54
   1  -7  10   4991.74     55.13
   1  -7  11    539.84     13.95
   1  -7  12   5724.71     58.05
   1  -7  13   7643.19     89.38
   1  -7  14    863.25     16.17
   1  -7  15    696.15     18.15
   1  -7  16    244.57     17.20
   1  -7  17    366.13     20.03
   1  -7  18   1091.63     33.74
   1  -7  19   3618.03    293.36
   1  -7  20  11496.90    809.05
   1  -7  21  17328.92    264.45
   1  -7  22    799.64     54.57
   1  -7  23    140.91     53.24
   1  -7  24    731.73     60.40
   1  -6   0  18480.01    302.60
   1  -6   1  19233.40    196.13
   1  -6   2  92721.65    306.62
   1  -6   3   5157.33     23.28
   1  -6   4  20577.36    141.57
   1  -6   5   7795.68     86.80
   1  -6   6   6556.49     56.45
   1  -6   7  21929.89    239.23
   1  -6   8    508.61     16.98
   1  -6   9   9891.18     80.29
   1  -6  10   1803.11     17.79
   1  -6  11    194.56     10.73
   1  -6  12    365.17     18.99
   1  -6  13  22987.64    171.15
   1  -6  14  31950.84    271.57
   1  -6  15  12675.30    152.48
   1  -6  16   4702.77    159.12
   1  -6  17   4898.76     66.19
   1  -6  18   1168.72     52.35
   1  -6  19    200.19     49.76
   1  -6  20    263.16     51.51
   1  -6  21   2289.32     79.52
   1  -6  22    772.08     42.10
   1  -6  23    319.56     83.78
   1  -6  24    172.49     43.51
   1  -6  25    142.07     44.43
   1  -5   0   5044.24     36.75
   1  -5   1  15851.27    131.85
   1  -5   2  44702.50    399.27
   1  -5   3  10308.53    183.00
   1  -5   4  26867.84    220.47
   1  -5   5     14.99      6.35
   1  -5   6  12809.29     80.39
   1  -5   7  84167.43    350.52
   1  -5   8   4131.41     19.80
   1  -5   9    100.41      9.22
   1  -5  10   8832.49     48.45
   1  -5  11  18474.62     66.19
   1  -5  12  11921.36     60.74
   1  -5  13   6214.99     21.89
   1  -5  14  10459.97    122.29
   1  -5  15   2585.72     42.72
   1  -5  16   8031.39     70.43
   1  -5  17   5589.20    125.05
   1  -5  18    509.29     28.46
   1  -5  19   1467.21     60.03
   1  -5  20   1852.41     65.96
   1  -5  21  14030.90    113.10
   1  -5  22      0.00     53.12
   1  -5  23   1698.96     66.94
   1  -5  24    109.46     43.57
   1  -5  25    529.11     47.10
   1  -5  26    548.18     49.02
   1  -5  27   1998.67     82.83
   1  -4   1  74286.89    227.22
   1  -4   2  54958.06    375.77
   1  -4   3   4448.39     23.39
   1  -4   4  83736.26    496.88
   1  -4   5   6013.58     22.30
   1  -4   6   6565.80     35.40
   1  -4   7  131856.4    405.56
   1  -4   8  153443.3    361.44
   1  -4   9  16709.09     71.85
   1  -4  10  30024.41    140.33
   1  -4  11  10476.46     23.98
   1  -4  12   5686.55     24.55
   1  -4  13   3544.44     22.49
   1  -4  14    277.43     15.00
   1  -4  15    800.29     17.08
   1  -4  16   7461.51     61.01
   1  -4  17   7718.04     55.39
   1  -4  18   1844.36     23.96
   1  -4  19    212.62     20.40
   1  -4  20   4602.98     81.97
   1  -4  21      6.57     33.93
   1  -4  22   3465.78     56.06
   1  -4  23   2619.95     73.14
   1  -4  24   1359.62     67.88
   1  -4  25     71.06     62.28
   1  -4  26   3593.98    349.44
   1  -4  27   1529.75     58.30
   1  -3   0  127006.8   2714.50
   1  -3   2  317661.4   1360.96
   1  -3   3  264598.9   1965.90
   1  -3   4  25822.50    104.85
   1  -3   5   3833.52     19.74
   1  -3   6  68226.36    290.96
   1  -3   7   4860.29     23.20
   1  -3   8     54.84      8.26
   1  -3   9  40785.74    172.96
   1  -3  10  43740.19    187.73
   1  -3  11   3121.55     16.17
   1  -3  12     42.20     12.13
   1  -3  13    345.73     15.70
   1  -3  14   1243.08     22.55
   1  -3  15   2500.91     37.37
   1  -3  16   2681.18     56.61
   1  -3  17    196.33     16.96
   1  -3  18     26.72     19.11
   1  -3  19    220.29     20.35
   1  -3  20  10411.49    102.46
   1  -3  21   8918.11     92.41
   1  -3  22  14856.75    174.86
   1  -3  23   2340.56     74.25
   1  -3  24   3666.13     81.57
   1  -3  25      0.00     64.41
   1  -3  26      0.00     39.23
   1  -3  27   1330.08     39.42
   1  -2   0  279379.7   1888.93
   1  -2   1   1767.60     10.79
   1  -2   2  299336.5   1671.09
   1  -2   3  834006.9   3871.83
   1  -2   4  26257.39    126.16
   1  -2   5  95281.16    376.48
   1  -2   6  109750.9    423.79
   1  -2   7  15261.51     76.18
   1  -2   8  40541.55    192.07
   1  -2   9    211.72      9.89
   1  -2  10    614.55     11.56
   1  -2  11   1606.90     14.16
   1  -2  12    414.11     13.97
   1  -2  13   1899.20     21.13
   1  -2  14    502.06     15.32
   1  -2  15   1990.68     20.05
   1  -2  16  55480.83    332.54
   1  -2  17  13833.90     64.63
   1  -2  18    543.00     26.79
   1  -2  19   1080.27     22.49
   1  -2  20   2363.27     42.46
   1  -2  21    592.22     30.27
   1  -2  22    643.04     31.73
   1  -2  23    598.39     32.82
   1  -2  24    177.36     64.96
   1  -2  25   1209.20     42.47
   1  -2  26   4839.25     63.13
   1  -2  27    120.07     64.68
   1  -1   0  126311.2    337.45
!   1  -1   1  126340.6    266.33
   1  -1   2  23562.50     79.16
   1  -1   3  12602.33     61.00
   1  -1   4  19657.02     88.65
   1  -1   5  12829.31     62.75
   1  -1   6  122019.5    295.52
   1  -1   7   4719.11     16.30
   1  -1   8  58207.84    219.39
   1  -1   9  55772.42    214.77
   1  -1  10     11.77     10.75
   1  -1  11   7598.41     42.20
   1  -1  12   5429.66     20.62
   1  -1  13   7666.05     30.20
   1  -1  14   4949.00     23.03
   1  -1  15   9509.68     76.47
   1  -1  16   4458.31     27.38
   1  -1  17   6393.85     31.36
   1  -1  18   3720.95     54.45
   1  -1  19  21139.35    259.01
   1  -1  20   5608.43     80.06
   1  -1  21   2534.04     37.88
   1  -1  22   1735.16     32.38
   1  -1  23    116.04     23.86
   1  -1  24   1679.90     34.75
   1  -1  25      0.00     28.52
   1  -1  26   2583.82     48.25
   1  -1  27   2353.21     49.91
   1   0   0  264568.0   1629.40
   1   0   1  29468.76    155.04
   1   0   2  115689.0    428.25
   1   0   3  152690.0    568.88
   1   0   4  13973.05     69.30
   1   0   5  108099.9    490.26
   1   0   6  17572.80     83.04
   1   0   7  89545.73    329.60
   1   0   8  26947.25    130.58
   1   0   9  65371.87    287.88
   1   0  10  47799.23    290.82
   1   0  11  49121.07    249.52
   1   0  12  24997.06     93.30
   1   0  13   2490.36     24.25
   1   0  14    183.11     15.01
   1   0  15  19310.34     80.19
   1   0  16    250.08     17.01
   1   0  17   3613.08     27.35
   1   0  18   1946.77     29.32
   1   0  19   6647.07     91.43
   1   0  20      0.00     27.83
   1   0  21     40.49     24.12
   1   0  22    420.75     24.20
   1   0  23    377.70     23.33
   1   0  24     22.15     33.17
   1   0  25   8272.09     85.69
   1   0  26      0.00     32.09
   1   1   0  10858.08     58.88
!   1   1   1   2015.90      9.93
   1   1   2  11461.47     72.77
   1   1   3  65514.64    226.13
   1   1   4  109886.8    284.61
   1   1   5  358849.9   1583.93
   1   1   6  21134.68    100.76
   1   1   7  22081.30     99.15
   1   1   8  16370.06    111.30
   1   1   9   3172.58     17.67
   1   1  10  11409.44     83.86
   1   1  11  18654.42    171.17
   1   1  12  21268.37     82.76
   1   1  13     57.30     13.97
   1   1  14     51.05     15.17
   1   1  15    323.53     16.46
   1   1  16     53.56     16.85
   1   1  17      0.00     18.78
   1   1  18   8029.59     66.44
   1   1  19   8790.60     89.43
   1   1  20    136.80     22.01
   1   1  21   3950.95     53.49
   1   1  22    152.57     22.27
   1   1  23    277.03     23.12
   1   1  24   5841.91     88.81
   1   1  25   9728.73     80.00
   1   1  26    416.33     28.51
   1   2   0   4133.71     21.88
   1   2   1  25851.34    182.36
   1   2   2  18018.73     87.99
   1   2   3  196861.8    590.95
   1   2   4  16728.49     81.71
   1   2   5  248475.4   1319.37
   1   2   6  184687.1    852.13
   1   2   7   2233.83     12.18
   1   2   8   7957.21     56.40
   1   2   9     66.16     10.57
   1   2  10     32.10     11.39
   1   2  11    190.15     12.61
   1   2  12    691.79     14.69
   1   2  13    236.68     14.64
   1   2  14   5354.15     31.85
   1   2  15   4504.29     25.32
   1   2  16    953.90     24.24
   1   2  17   1935.70     23.25
   1   2  18  27633.41    257.85
   1   2  19   2855.22     43.67
   1   2  20    491.65     21.58
   1   2  21     28.64     21.33
   1   2  22     31.91     22.23
   1   2  23    167.72     24.89
   1   2  24   5512.72     48.59
   1   2  25     95.98     27.29
   1   3   0  34844.00    141.45
   1   3   1   3830.55     23.15
   1   3   2   1114.07      8.89
   1   3   3   8346.86     56.27
   1   3   4  70048.31    339.61
   1   3   5     28.29      8.37
   1   3   6   4010.30     27.95
   1   3   7    686.66     10.40
   1   3   8  35634.73    187.45
   1   3   9    547.68     12.60
   1   3  10   5581.73     43.90
   1   3  11   8070.56     69.31
   1   3  12     57.06     13.55
   1   3  13    859.37     16.18
   1   3  14   2504.45     20.15
   1   3  15    988.49     19.73
   1   3  16    279.60     18.89
   1   3  17  13593.52    146.41
   1   3  18    821.21     20.95
   1   3  19   6434.20     80.74
   1   3  20  11585.27    104.60
   1   3  21    137.37     21.95
   1   3  22    138.70     22.72
   1   3  23   1241.67     27.87
   1   3  24    757.41     26.24
   1   3  25   5249.93     84.26
   1   4   0  19966.42     94.49
   1   4   1  64701.81    227.54
   1   4   2  14705.74    105.79
   1   4   3  11674.12     94.62
   1   4   4  23104.63    148.82
   1   4   5   7400.67     82.52
   1   4   6  24343.38    159.92
   1   4   7   3589.20     43.21
   1   4   8   6715.58     47.88
   1   4   9   1513.84     13.72
   1   4  10    597.69     15.91
   1   4  11   8210.05     57.86
   1   4  12  23830.07    114.87
   1   4  13   4038.63     36.05
   1   4  14  20903.68    116.55
   1   4  15   2889.93     28.44
   1   4  16    470.40     18.60
   1   4  17  10126.95    108.56
   1   4  18    613.80     20.82
   1   4  19    795.41     21.92
   1   4  20     53.29     20.97
   1   4  21    395.18     22.85
   1   4  22   1095.70     25.42
   1   4  23   1807.09     55.79
   1   4  24    433.55     25.63
   1   5   0    228.98      6.71
   1   5   1   1969.72     11.17
   1   5   2   1871.04     16.28
   1   5   3   5391.47     39.19
   1   5   4    494.55      9.97
   1   5   5   1310.04     11.91
   1   5   6  17175.42    139.27
   1   5   7  60067.22    391.78
   1   5   8    192.46     10.43
   1   5   9    824.10     20.61
   1   5  10   1588.37     16.06
   1   5  11      2.76     13.64
   1   5  12   3378.17     25.01
   1   5  13   6817.90     51.27
   1   5  14   5425.30     34.27
   1   5  15    365.51     19.17
   1   5  16   2128.05     34.40
   1   5  17   6490.10     76.74
   1   5  18    839.16     21.62
   1   5  19   1199.20     23.36
   1   5  20   1029.99     23.96
   1   5  21      0.00     21.94
   1   5  22    404.74     27.77
   1   5  23     26.97     24.00
   1   6   0  12242.70     98.67
   1   6   1   4953.59     40.73
   1   6   2  15579.91    165.92
   1   6   3   6013.84     60.36
   1   6   4   4167.88     33.01
   1   6   5    180.18     11.18
   1   6   6  16140.56    194.15
   1   6   7  53115.99    448.14
   1   6   8  15856.36    114.38
   1   6   9   1035.41     14.16
   1   6  10    627.05     13.49
   1   6  11   2160.99     17.73
   1   6  12   1789.00     22.26
   1   6  13    946.10     20.92
   1   6  14    300.29     16.67
   1   6  15    862.14     19.41
   1   6  16   2495.61     41.59
   1   6  17   3821.47     65.62
   1   6  18    376.99     20.73
   1   6  19    994.15     23.52
   1   6  20   3612.87     34.03
   1   6  21   3237.44     42.74
   1   7   0  42185.67    318.01
   1   7   1  30333.34    192.61
   1   7   2   2708.63     43.85
   1   7   3   4558.67     43.96
   1   7   4     56.57      7.31
   1   7   5   4336.77     44.88
   1   7   6  19244.00    200.13
   1   7   7   1707.11     25.77
   1   7   8     99.00     13.94
   1   7   9    650.40     23.37
   1   7  10   3494.65     26.99
   1   7  11     13.42     19.42
   1   7  12    537.38     20.97
   1   7  13    968.76     20.07
   1   7  14     40.36     16.09
   1   7  15    637.46     23.83
   1   7  16   6465.19     84.90
   1   7  17    676.74     23.23
   1   7  18    682.63     25.08
   1   7  19     16.11     21.62
   1   7  20   1954.87     52.76
   1   8   0   1258.77     14.61
   1   8   1  36599.20    521.69
   1   8   2    883.75     12.12
   1   8   3   1887.27     30.18
   1   8   4   6385.74     40.37
   1   8   5    671.28     11.25
   1   8   6   6633.22     72.27
   1   8   7    310.95     12.75
   1   8   8   2612.88     27.26
   1   8   9   1296.25     15.97
   1   8  10     56.36     12.32
   1   8  11   3189.06     45.08
   1   8  12   1133.12     23.01
   1   8  13   1051.50     19.24
   1   8  14   2221.96     23.55
   1   8  15   1181.08     27.93
   1   8  16   9906.48    131.55
   1   8  17    671.47     21.14
   1   8  18    573.53     31.97
   1   8  19    972.37     60.87
   1   9   0    379.43     11.43
   1   9   1   2225.25     44.38
   1   9   2     44.47      7.94
   1   9   3      8.10      8.08
   1   9   4      0.00      7.64
   1   9   5   1788.79     13.78
   1   9   6   4167.54     51.68
   1   9   7    270.14     13.15
   1   9   8   4397.53     53.47
   1   9   9   5683.64    135.70
   1   9  10    267.69     13.85
   1   9  11     65.01     13.24
   1   9  12    545.46     18.68
   1   9  13      0.00     14.79
   1   9  14    115.40     16.46
   1   9  15   8123.64    123.96
   1   9  16     41.01     41.65
   1   9  17    115.91     31.29
   1  10   0   5956.79    175.58
   1  10   1   2115.22     43.38
   1  10   2      6.32      7.12
   1  10   3   1697.09     20.87
   1  10   4    325.79     10.94
   1  10   5   1742.05     46.30
   1  10   6    177.32     11.30
   1  10   7     52.99      9.78
   1  10   8   2994.91     47.61
   1  10   9   7238.93     64.26
   1  10  10   9116.76    179.83
   1  10  11      0.00     27.78
   1  10  12     50.20     26.30
   1  10  13    117.11     27.91
   1  10  14     36.45     28.68
   1  10  15   1201.95     66.45
   1  11   0    937.12     21.74
   1  11   1   2590.23     17.03
   1  11   2   5725.20    120.12
   1  11   3   4179.66    132.50
   1  11   4    312.72     16.74
   1  11   5   4483.10    131.57
   1  11   6    319.85     18.08
   1  11   7   2500.48     45.99
   1  11   8   1620.81     33.12
   1  11   9     35.10     50.10
   1  11  10     43.71     27.00
   1  11  11     28.05     24.29
   1  11  12    908.02     82.61
   1  11  13    145.87     27.86
   1  12   0    758.88     25.80
   1  12   1   1161.04     34.21
   1  12   2   5643.14    355.99
   1  12   3   1410.01     93.62
   1  12   4    594.64     41.21
   1  12   5   2844.31    263.97
   1  12   6    434.01     37.77
   1  12   7    207.53     36.05
   1  12   8    374.94     36.38
   1  12   9    283.38     52.03
   1  12  10   1441.35     95.79
   2 -14  12    973.66     69.12
   2 -14  13    153.80     25.24
   2 -14  14   3657.56    183.47
   2 -14  15   1846.43    131.50
   2 -14  16    362.01     34.02
   2 -14  17    212.26     29.62
   2 -14  18     50.51     29.78
   2 -13   8     16.66     15.46
   2 -13   9    521.47     16.35
   2 -13  10    209.07     17.58
   2 -13  11    762.16     21.88
   2 -13  12   6539.29     54.21
   2 -13  13    884.27     35.10
   2 -13  14      0.00     37.93
   2 -13  15   3691.08     73.26
   2 -13  16    625.66     46.93
   2 -13  17     24.83     28.69
   2 -13  18    148.61     30.42
   2 -13  19    228.79     32.23
   2 -13  20      0.00     32.73
   2 -12   0     80.43     10.77
   2 -12   5      6.74      7.74
   2 -12   6     46.63      9.46
   2 -12   7    494.86     40.28
   2 -12   8   3182.36     68.85
   2 -12   9     75.44     20.52
   2 -12  10     64.48     17.60
   2 -12  11   2638.96     81.26
   2 -12  12   2366.14     50.46
   2 -12  13    265.60     14.02
   2 -12  14  18704.62    106.33
   2 -12  15   4188.41    123.21
   2 -12  16     92.46     21.41
   2 -12  17   1005.48     46.17
   2 -12  18    858.31     27.10
   2 -12  19    431.88     41.46
   2 -12  20     10.95     27.89
   2 -12  21    252.44     29.90
   2 -12  22    169.38     41.23
   2 -11   0    287.34     37.88
   2 -11   5    494.90      8.59
   2 -11   7  10691.91    209.53
   2 -11   8  15086.37    327.95
   2 -11   9   6383.19    132.83
   2 -11  10   3985.78    113.86
   2 -11  11   5297.68    100.80
   2 -11  12    553.44     14.63
   2 -11  13   1761.38     23.24
   2 -11  14   3076.88     71.38
   2 -11  15    210.30     18.27
   2 -11  16     16.50     13.52
   2 -11  17      0.00     15.41
   2 -11  18    115.28     19.22
   2 -11  19    783.98     41.63
   2 -10   0   3687.23     31.98
   2 -10   1   5821.12    160.68
   2 -10   5    429.80     21.06
   2 -10   6    245.73     11.51
   2 -10   8   1673.44     30.18
   2 -10   9   3505.75     65.54
   2 -10  10  12636.96    164.78
   2 -10  11    867.43     21.40
   2 -10  12   5750.99    105.63
   2 -10  13  12093.38    135.56
   2 -10  14    933.81     14.34
   2 -10  15   3958.53    109.23
   2 -10  16    160.35     13.43
   2 -10  17    921.96     29.87
   2 -10  18   3082.93     70.34
   2 -10  19    109.53     22.41
   2 -10  20    103.44     23.92
   2 -10  21   1680.87    151.29
   2 -10  22   2350.94    388.77
   2 -10  23   5955.50    687.48
   2 -10  24   1242.01    212.19
   2 -10  25    308.82     88.26
   2  -9   0   1978.20    123.32
   2  -9   3  13590.52    211.45
   2  -9   4   1417.21     16.09
   2  -9   5  10190.35     60.41
   2  -9   6   4707.49     33.43
   2  -9   7   2230.98     34.67
   2  -9   8    256.09     15.57
   2  -9   9     59.21     12.42
   2  -9  10  10912.60    153.55
   2  -9  11   5915.62    149.26
   2  -9  12   6738.60     93.00
   2  -9  13   4837.28    140.28
   2  -9  14    820.35     17.60
   2  -9  15   1007.44     36.29
   2  -9  16   1717.96     57.52
   2  -9  17   2614.97     69.24
   2  -9  18   3804.14     58.68
   2  -9  19    457.85     20.36
   2  -9  20     93.71     21.70
   2  -9  21   2341.61    145.75
   2  -9  22   3001.33    148.85
   2  -9  23   5516.47     61.67
   2  -9  24   6115.21    162.38
   2  -9  25   1382.70    157.05
   2  -8   0   3153.99    108.35
   2  -8   1     54.55      7.74
   2  -8   2    569.52      9.15
   2  -8   3   8890.55    110.85
   2  -8   4   6622.05    105.71
   2  -8   5   4504.28     72.94
   2  -8   6   9015.18    161.91
   2  -8   7   2069.31     29.43
   2  -8   8      0.00      9.21
   2  -8   9   5116.08     71.05
   2  -8  10   4245.68     60.15
   2  -8  11  13210.77    123.06
   2  -8  12  11913.29    145.73
   2  -8  13   6454.36    103.45
   2  -8  14    976.13     21.60
   2  -8  15  12165.30    138.05
   2  -8  16   4411.02     60.25
   2  -8  17  24261.60    190.26
   2  -8  18    641.52     21.85
   2  -8  19    434.13     21.02
   2  -8  20     38.32     20.95
   2  -8  21     90.36     25.77
   2  -8  22    366.28     28.64
   2  -8  23    378.76     39.94
   2  -8  24   1664.28     60.16
   2  -8  25    469.25     37.50
   2  -8  26     18.78     31.57
   2  -7   0  46084.00    424.97
   2  -7   1   1328.26     17.28
   2  -7   2    500.03     10.69
   2  -7   3   8367.54    174.80
   2  -7   4   8276.05     29.25
   2  -7   5   2294.08     41.71
   2  -7   6     46.43      6.89
   2  -7   7   2663.10     26.92
   2  -7   8   1796.73     11.39
   2  -7   9    264.45      7.44
   2  -7  10  67076.13    231.38
   2  -7  11  33644.56    134.85
   2  -7  12   1349.22     13.26
   2  -7  13    357.08     12.25
   2  -7  14    187.98     12.86
   2  -7  15     55.18     14.38
   2  -7  16   1315.61     23.49
   2  -7  17   4127.79     48.94
   2  -7  18    246.83     18.09
   2  -7  19    441.26     41.50
   2  -7  20    170.93     25.85
   2  -7  21   9960.27    301.88
   2  -7  22   5974.16     61.08
   2  -7  23   2914.90     52.50
   2  -7  24   4536.04     60.05
   2  -7  25   2059.23    119.20
   2  -7  26   1692.71     59.85
   2  -7  27   3435.64     82.02
   2  -6   0  11670.36    412.30
   2  -6   1    600.74     12.39
   2  -6   2  13005.29    134.45
   2  -6   3  18291.20    143.13
   2  -6   4  13821.83    146.91
   2  -6   5   3384.05     16.43
   2  -6   6  28551.07    138.01
   2  -6   7    876.70      9.89
   2  -6   8   8521.68     47.75
   2  -6   9      0.48      7.89
   2  -6  10  69747.04    249.54
   2  -6  11    394.24     11.09
   2  -6  12  45411.60    274.78
   2  -6  13   6764.94     28.10
   2  -6  14   5383.57     27.61
   2  -6  15    294.97     17.50
   2  -6  16   4407.89     45.02
   2  -6  17   7225.22     69.80
   2  -6  18    517.92     19.15
   2  -6  19     15.83     18.99
   2  -6  20    706.89     24.84
   2  -6  21    103.61     22.27
   2  -6  22     27.22     38.53
   2  -6  23    234.78     34.36
   2  -6  24   7559.01     70.78
   2  -6  25   2726.75    114.86
   2  -6  26   2062.53     67.44
   2  -6  27    300.38     35.38
   2  -5   0  47402.85    354.15
   2  -5   1   4865.73     52.30
   2  -5   2    302.36      9.65
   2  -5   3  161572.7    687.39
   2  -5   4  49436.48    358.41
   2  -5   5  55941.38    238.00
   2  -5   6  53879.83    190.53
   2  -5   7   2498.38     13.22
   2  -5   8   2719.70     18.84
   2  -5   9  44183.60    178.09
   2  -5  10   2814.19     14.50
   2  -5  11  24123.16    113.78
   2  -5  12    449.86     13.75
   2  -5  13   4380.01     22.14
   2  -5  14   2317.12     17.95
   2  -5  15    233.68     16.80
   2  -5  16   4302.26     26.23
   2  -5  17     60.08     18.66
   2  -5  18   3068.67     41.54
   2  -5  19    651.61     24.11
   2  -5  20  17316.85    325.26
   2  -5  21   7474.92     93.13
   2  -5  22   1100.05     33.66
   2  -5  23   4717.97    103.65
   2  -5  24   7951.43     50.95
   2  -5  25     82.07     33.12
   2  -5  26  11577.32     60.79
   2  -5  27    430.64     42.90
   2  -4   0  16967.00    146.14
   2  -4   1   7250.02     58.64
   2  -4   2  20355.86    120.84
   2  -4   3  10075.86     52.49
   2  -4   4   1023.74     11.61
   2  -4   5  163182.4    419.11
   2  -4   6  21443.52     95.60
   2  -4   7    621.96     10.06
   2  -4   8  12527.18     40.28
   2  -4   9  37300.74    161.71
   2  -4  10  28691.79    124.68
   2  -4  11  26131.70    116.77
   2  -4  12     88.26     12.14
   2  -4  13   7144.76     30.08
   2  -4  14   5259.59     34.24
   2  -4  15   1637.73     17.94
   2  -4  16   6615.91     36.72
   2  -4  17   5991.57     63.83
   2  -4  18  15204.73    126.83
   2  -4  19  15516.93    202.30
   2  -4  20   2509.71     41.04
   2  -4  21   1581.59     24.74
   2  -4  22    106.50     22.44
   2  -4  23   1891.34     33.35
   2  -4  24     93.72     22.56
   2  -4  25     20.88     26.80
   2  -4  26    122.45     25.59
   2  -4  27   1650.37     29.92
   2  -3   0  135426.6    772.09
   2  -3   1  45795.17    178.11
   2  -3   2  172198.6    657.93
   2  -3   3   1633.88     13.74
   2  -3   4   6120.04     33.23
   2  -3   5    738.48     13.12
   2  -3   6   4487.59     14.76
   2  -3   7   4910.41     18.57
   2  -3   8  24070.99    112.27
   2  -3   9   2956.74     24.98
   2  -3  10  23613.58    111.95
   2  -3  11  32911.01    144.69
   2  -3  12  57055.30    252.55
   2  -3  13  28034.82    117.02
   2  -3  14   1816.69     18.93
   2  -3  15    535.31     16.20
   2  -3  16   2230.15     20.15
   2  -3  17   1267.71     19.45
   2  -3  18    650.81     19.31
   2  -3  19  21173.72    193.51
   2  -3  20   8879.72    132.08
   2  -3  21    542.09     21.47
   2  -3  22  12830.97    154.58
   2  -3  23   4460.09     84.11
   2  -3  24   2347.78     54.75
   2  -3  25   7270.02    116.99
   2  -3  26    537.28     36.21
   2  -3  27   3927.61     43.71
   2  -2   0   6729.20     47.14
   2  -2   1   2481.34     18.47
   2  -2   2  44577.25    143.08
   2  -2   3  71380.47    310.05
   2  -2   4  191003.9    377.59
   2  -2   5   1681.63     22.77
   2  -2   6   1549.24     10.45
   2  -2   7  36754.87    156.65
   2  -2   8  10972.82     38.13
   2  -2   9  83607.08    442.90
   2  -2  10  42204.09    180.36
   2  -2  11   4758.29     32.46
   2  -2  12   3879.40     20.44
   2  -2  13  57554.55    236.72
   2  -2  14   4788.33     41.10
   2  -2  15  26198.13    101.54
   2  -2  16   1808.56     31.36
   2  -2  17   2531.14     23.34
   2  -2  18    186.18     18.65
   2  -2  19   2391.22     31.48
   2  -2  20    352.95     22.17
   2  -2  21     67.84     20.73
   2  -2  22    301.07     22.14
   2  -2  23   1176.62     31.80
   2  -2  24     40.96     23.04
   2  -2  25    550.20     25.14
   2  -2  26    267.60     29.10
   2  -2  27  10785.35     81.23
   2  -1   0  35062.94    115.33
   2  -1   1  441276.2   1516.75
   2  -1   2  111314.5    276.06
   2  -1   3  68774.23    203.91
   2  -1   4  28507.24    120.33
   2  -1   5  70109.05    280.36
   2  -1   6  237648.8    849.14
   2  -1   7  29179.34    132.86
   2  -1   8  96083.11    354.00
   2  -1   9  68152.13    331.38
   2  -1  10  23755.91    115.47
   2  -1  11  21812.71     98.09
   2  -1  12   1196.27     15.29
   2  -1  13   2952.48     18.93
   2  -1  14   1043.44     16.73
   2  -1  15   9309.56     57.23
   2  -1  16    432.50     17.53
   2  -1  17    171.73     17.99
   2  -1  18  12403.88     91.38
   2  -1  19  13741.82    114.38
   2  -1  20   3971.77     41.86
   2  -1  21  14895.84    169.79
   2  -1  22   3746.88     49.70
   2  -1  23   4130.60     62.04
   2  -1  24   7960.60     90.00
   2  -1  25    776.36     25.67
   2  -1  26    574.80     28.30
   2  -1  27   9795.41    114.89
   2   0   0  224830.5    973.21
   2   0   1  329085.7   1144.07
   2   0   2  159605.7    358.42
   2   0   3  172325.2    637.16
   2   0   4   2518.87     10.15
   2   0   5   8643.31     39.77
   2   0   6  80516.02    253.69
   2   0   7   2360.71     15.93
   2   0   8  197771.0    488.09
   2   0   9  11989.39     84.15
   2   0  10   6795.63     27.19
   2   0  11   2142.09     16.49
   2   0  12  12844.65     53.03
   2   0  13   3453.96     21.51
   2   0  14   6228.58     32.89
   2   0  15   6718.75     31.68
   2   0  16    291.79     19.58
   2   0  17    905.15     22.99
   2   0  18   1259.02     21.36
   2   0  19   2476.80     33.76
   2   0  20   7419.30     96.69
   2   0  21   5656.35     74.26
   2   0  22   8048.45     77.44
   2   0  23    353.78     26.77
   2   0  24     45.01     27.51
   2   0  25     27.26     25.43
   2   0  26   3455.69     71.87
   2   1   0  15457.66     91.42
   2   1   1  1042105.   5147.40
   2   1   2  344106.7   1405.97
   2   1   3     28.60      7.84
   2   1   4   6075.38     17.84
   2   1   5  37903.01    157.16
   2   1   6  17502.49     81.12
   2   1   7   5612.90     28.47
   2   1   8  14052.52     71.37
   2   1   9  25212.55    137.38
   2   1  10    654.23     13.04
   2   1  11   6283.48     35.32
   2   1  12   3700.87     25.39
   2   1  13   2511.94     18.94
   2   1  14  38429.99    329.05
   2   1  15   8815.37     35.74
   2   1  16   2136.66     25.55
   2   1  17   4725.98     52.42
   2   1  18  18891.48    184.18
   2   1  19   6831.57     87.17
   2   1  20  11550.84    120.35
   2   1  21   2847.40     38.34
   2   1  22   7928.33    106.30
   2   1  23   3358.56     43.23
   2   1  24   5524.85     75.47
   2   1  25   1765.29     28.73
   2   1  26   5443.36     79.99
   2   2   0  61428.86    196.41
   2   2   1  19245.08     96.97
   2   2   2  53586.43    223.92
   2   2   3  72870.70    252.55
   2   2   4  16276.36    117.68
   2   2   5   1771.74     10.77
   2   2   6   5251.42     21.21
   2   2   7  88917.15    288.81
   2   2   8  24790.25    147.45
   2   2   9  13940.18     73.13
   2   2  10   3924.84     28.87
   2   2  11   3960.36     30.46
   2   2  12   3447.84     39.35
   2   2  13  18435.16     71.16
   2   2  14    512.07     17.80
   2   2  15  14226.23     73.67
   2   2  16  16703.45    190.13
   2   2  17   6142.79     53.02
   2   2  18    266.38     22.27
   2   2  19    927.88     22.22
   2   2  20      0.00     20.96
   2   2  21     24.40     29.18
   2   2  22   1276.97     29.28
   2   2  23    240.94     25.34
   2   2  24    178.67     24.47
   2   2  25    767.39     31.16
   2   3   0  169025.9    760.65
   2   3   1    130.51      7.47
   2   3   2  47241.29    199.99
   2   3   3   4738.68     41.31
   2   3   4   1151.94     21.79
   2   3   5  44601.47    178.45
   2   3   6   7165.15     33.69
   2   3   7  43682.48    256.34
   2   3   8    899.58     14.16
   2   3   9  34792.96    248.65
   2   3  10  43611.73    187.59
   2   3  11   8634.32     55.37
   2   3  12    909.76     23.46
   2   3  13  18101.68     92.17
   2   3  14    246.22     20.30
   2   3  15    411.13     19.00
   2   3  16   3465.77     46.27
   2   3  17  23686.45    207.23
   2   3  18   3274.80     39.73
   2   3  19   1359.91     33.73
   2   3  20   6632.77    110.94
   2   3  21   4572.49     64.61
   2   3  22   3376.22     78.93
   2   3  23   6880.04    103.66
   2   3  24    911.76     31.08
   2   4   0    606.49      9.55
   2   4   1   3488.91     12.39
   2   4   2  92943.41    553.80
   2   4   3  28437.23    135.40
   2   4   4   1046.78     11.84
   2   4   5   6982.71     80.37
   2   4   6  45609.27    268.34
   2   4   7  12977.65     53.39
   2   4   8  38412.30    155.52
   2   4   9  16171.77     95.35
   2   4  10   2459.51     19.47
   2   4  11  18090.93     41.50
   2   4  12   2634.22     24.55
   2   4  13   3346.47     29.06
   2   4  14   1085.08     19.75
   2   4  15    676.73     19.89
   2   4  16    205.63     19.97
   2   4  17   2004.60     36.20
   2   4  18    226.49     20.34
   2   4  19    351.04     22.72
   2   4  20      4.87     21.50
   2   4  21     45.93     23.55
   2   4  22   2192.36     59.49
   2   4  23   4607.33     74.60
   2   5   0   1945.75     18.95
   2   5   1     13.49      7.13
   2   5   2  38516.48    225.41
   2   5   3  51626.06    264.06
   2   5   4  116635.8    496.91
   2   5   5    147.57      9.79
   2   5   6   8722.23     81.40
   2   5   7   4955.64     40.11
   2   5   8   4647.24     35.40
   2   5   9   3695.56     28.63
   2   5  10    413.29     14.71
   2   5  11   1776.64     21.29
   2   5  12   3813.55     29.04
   2   5  13   3282.37     25.19
   2   5  14   2447.50     25.69
   2   5  15    186.49     17.89
   2   5  16  30132.07    172.89
   2   5  17    812.08     22.53
   2   5  18    179.04     20.44
   2   5  19   6352.60     70.08
   2   5  20   3658.42     62.56
   2   5  21   2019.11     27.59
   2   5  22   8481.29    129.94
   2   6   0   1682.65     21.97
   2   6   1  38659.68    228.48
   2   6   2   7797.69     79.07
   2   6   3    567.11      9.51
   2   6   4   9667.46     81.36
   2   6   5   5225.39     63.46
   2   6   6  36653.63    297.68
   2   6   7   6971.48     51.57
   2   6   8     16.67     11.53
   2   6   9    300.21     13.14
   2   6  10   4187.23     36.78
   2   6  11   3740.59     22.54
   2   6  12   3626.90     31.80
   2   6  13    464.61     19.21
   2   6  14    370.15     23.59
   2   6  15    194.48     19.48
   2   6  16   1045.89     26.46
   2   6  17   4833.75     72.04
   2   6  18   5835.72    100.72
   2   6  19   1553.34     29.51
   2   6  20    144.85     23.92
   2   6  21    445.29     25.76
   2   7   0   4326.65     47.06
   2   7   1   3378.13     45.44
   2   7   2   2096.10     17.68
   2   7   3  11573.42     88.81
   2   7   4  15903.75    201.65
   2   7   5   9672.03     78.48
   2   7   6   9576.50     93.00
   2   7   7    438.82     12.25
   2   7   8    696.19     14.77
   2   7   9    112.87     13.58
   2   7  10   3075.87     37.03
   2   7  11   2707.12     38.88
   2   7  12  14508.71    132.81
   2   7  13   4344.63     37.88
   2   7  14     39.73     21.78
   2   7  15  18044.01    195.26
   2   7  16   3054.62     38.50
   2   7  17     46.93     21.10
   2   7  18   3033.56     65.41
   2   7  19   1331.15     31.85
   2   7  20   3656.60     56.94
   2   8   0   4333.60     35.14
   2   8   1   1424.75     23.01
   2   8   2   1658.54     31.70
   2   8   3   3274.80     33.16
   2   8   4    506.03     10.76
   2   8   5  31124.79    262.26
   2   8   6   2994.76     16.82
   2   8   7    506.66     16.16
   2   8   8      6.49     13.26
   2   8   9   5137.63     58.04
   2   8  10      0.00     19.70
   2   8  11  12032.34    122.64
   2   8  12   1126.77     20.90
   2   8  13   1204.96     28.05
   2   8  14    810.42     58.02
   2   8  15     12.78     19.25
   2   8  16    252.07     19.86
   2   8  17    131.91     21.90
   2   8  18     93.66     20.96
   2   9   0   1909.09     45.03
   2   9   1     50.15     11.11
   2   9   2   4334.30     74.17
   2   9   3   3831.29     47.45
   2   9   4   1741.16     28.27
   2   9   5  40073.48    472.79
   2   9   6   3714.35     28.63
   2   9   7   1055.95     17.33
   2   9   8    380.91     13.58
   2   9   9    648.84     18.21
   2   9  10     23.17     14.69
   2   9  11   1948.57     37.27
   2   9  12     46.01     17.82
   2   9  13    853.11     40.75
   2   9  14   4958.27     79.18
   2   9  15   7491.69     84.37
   2   9  16      9.86     19.31
   2  10   0   9042.43    124.96
   2  10   1   2133.93     81.28
   2  10   2   2043.42     29.65
   2  10   3     11.19     12.42
   2  10   4  18169.03     61.81
   2  10   5   1420.00     19.85
   2  10   6   2365.15     20.18
   2  10   7    963.63     17.29
   2  10   8     24.74     12.61
   2  10   9   2024.17     23.88
   2  10  10   1701.46     47.52
   2  10  11    253.38     15.62
   2  10  12      0.00     26.73
   2  10  13     59.18     28.57
   2  10  14     41.00     30.13
   2  11   0   6149.16    119.96
   2  11   1    447.20     20.11
   2  11   2   8164.19    170.42
   2  11   3    168.53     15.09
   2  11   4  10025.99    102.15
   2  11   5    904.36     15.39
   2  11   6    847.86     15.48
   2  11   7    188.81     21.09
   2  11   8    277.75     22.90
   2  11   9    294.26     24.49
   2  11  10    286.67     26.08
   2  11  11    124.01     37.94
   2  11  12     10.97     27.98
   2  12   0     38.23     10.06
   2  12   1    603.39     24.52
   2  12   2    600.60     27.04
   2  12   3   1687.95     35.88
   2  12   4   4508.85     91.91
   2  12   5    640.82     34.62
   2  12   6    327.58     34.53
   2  12   7     32.71     51.31
   2  12   8   1354.73     53.37
   2  12   9    783.77     94.97
   2  12  10    135.37     50.69
   3 -14  13    277.61     23.21
   3 -14  14   3338.54    155.15
   3 -14  16     79.85     27.60
   3 -14  17   4691.27     60.91
   3 -13   8      9.94     14.71
   3 -13   9    441.37     32.43
   3 -13  10  11119.60     60.02
   3 -13  11   2362.33     83.26
   3 -13  12   4289.90    138.68
   3 -13  13     15.85     27.35
   3 -13  14    127.48     24.56
   3 -13  15     84.96     26.35
   3 -13  16     15.98     27.13
   3 -13  17    422.48     30.16
   3 -13  18      0.00     49.60
   3 -13  19    265.73     32.46
   3 -13  20    943.11     84.60
   3 -12   0    421.29     19.66
   3 -12   6    480.78     13.90
   3 -12   7     43.26     10.22
   3 -12   8    749.77     29.97
   3 -12   9   1051.65     25.46
   3 -12  10     43.15     17.50
   3 -12  11   4162.16    182.14
   3 -12  12    509.79     26.78
   3 -12  13   2586.50     81.58
   3 -12  14   3759.91    125.49
   3 -12  15   1170.37     29.95
   3 -12  16   4428.05     41.49
   3 -12  17    210.78     23.56
   3 -12  18    504.02     39.03
   3 -12  19    537.34     34.30
   3 -12  20    362.67     30.44
   3 -12  21   3549.75    184.16
   3 -12  22     14.55     30.34
   3 -11   0   1000.66     53.58
   3 -11   1     84.31     10.41
   3 -11   5   8685.80     43.21
   3 -11   6   4629.84     89.22
   3 -11   7    964.43     29.12
   3 -11   8    259.11     15.01
   3 -11   9   4915.62     39.03
   3 -11  10   1562.46     27.84
   3 -11  11     14.34     16.70
   3 -11  12   2023.87     41.58
   3 -11  13    166.22     15.43
   3 -11  14    195.53     17.01
   3 -11  15    429.95     24.82
   3 -11  16     10.84     14.46
   3 -11  17   2678.11     57.91
   3 -11  18   1533.80     62.94
   3 -11  19   8065.80    155.25
   3 -11  20    355.81     33.32
   3 -11  21     85.07     32.43
   3 -11  22     39.22     33.86
   3 -11  23    360.60     36.45
   3 -10   0    247.51     18.64
   3 -10   1   8924.98     42.84
   3 -10   2   1050.88     12.91
   3 -10   4   2785.26     24.31
   3 -10   5  11353.95     37.64
   3 -10   6     36.28     16.58
   3 -10   7   4879.61    104.33
   3 -10   8     14.49      7.71
   3 -10   9   1338.66     37.84
   3 -10  10   6691.42    129.55
   3 -10  11    563.00     20.72
   3 -10  12   1292.91     70.32
   3 -10  13  14823.24    195.87
   3 -10  14   2688.78     53.33
   3 -10  15   5373.13    116.66
   3 -10  16   1085.44     36.77
   3 -10  17   2280.29     76.38
   3 -10  18     53.85     21.52
   3 -10  19   1325.84     28.67
   3 -10  20  13908.72     87.93
   3 -10  21     71.98     25.79
   3 -10  22   1844.25     47.89
   3 -10  23    608.45     25.21
   3 -10  24    209.43     22.85
   3  -9   0   1651.55     46.64
   3  -9   1   5226.99     34.84
   3  -9   2    807.87     37.00
   3  -9   3    126.47      7.20
   3  -9   4   1446.18     14.85
   3  -9   5     34.13      9.48
   3  -9   6    206.60     19.25
   3  -9   7    303.42      9.91
   3  -9   8   2860.10     31.77
   3  -9   9   7924.29    134.20
   3  -9  10   1271.28     14.72
   3  -9  11    998.77     14.36
   3  -9  12  11741.31    194.22
   3  -9  13  14998.31    195.59
   3  -9  14   8594.77    170.94
   3  -9  15    901.01     21.37
   3  -9  16    905.48     22.67
   3  -9  17     62.89     16.98
   3  -9  18   1935.77     47.74
   3  -9  19   2172.24     72.72
   3  -9  20     76.49     23.18
   3  -9  21    149.15     24.47
   3  -9  22     42.84     25.15
   3  -9  23    178.00     24.45
   3  -9  24    480.03     28.86
   3  -9  25   1994.71     44.61
   3  -8   0   6164.93    327.13
   3  -8   1   2200.88    128.76
   3  -8   2    814.74     13.02
   3  -8   3     27.82      8.79
   3  -8   4  15344.60    196.88
   3  -8   5  12516.08     65.61
   3  -8   6  43685.10    179.24
   3  -8   7   7543.12     39.95
   3  -8   8   9536.18     76.83
   3  -8   9   4487.02     33.41
   3  -8  10    371.77     10.39
   3  -8  11   3451.39     19.00
   3  -8  12  25189.24    113.48
   3  -8  13   2920.99     31.57
   3  -8  14   2931.53     48.53
   3  -8  15   8695.98     66.66
   3  -8  16    185.60     18.02
   3  -8  17   2981.55     76.81
   3  -8  18    167.34     16.80
   3  -8  19   8632.99     98.62
   3  -8  20   2098.61     34.03
   3  -8  21   3057.14     61.18
   3  -8  22   2451.60     57.03
   3  -8  23    614.50     26.39
   3  -8  24    636.27     27.42
   3  -8  25     20.42     26.56
   3  -8  26   4821.28     82.82
   3  -7   0   9679.15    286.65
   3  -7   1    255.42      8.51
   3  -7   2   6719.15    106.52
   3  -7   3    295.28      5.66
   3  -7   4     19.07      5.16
   3  -7   5   4498.42     19.29
   3  -7   6  28283.75    212.37
   3  -7   7   7801.80     19.33
   3  -7   8  54369.02    316.25
   3  -7   9    401.23     10.32
   3  -7  10    484.49     10.23
   3  -7  11   2233.64     22.77
   3  -7  12    691.30     13.81
   3  -7  13    130.68     12.29
   3  -7  14   2154.08     26.88
   3  -7  15   1705.90     18.98
   3  -7  16   1811.09     21.49
   3  -7  17    436.85     18.60
   3  -7  18   2765.39     57.55
   3  -7  19   2745.33     37.74
   3  -7  20   6807.45     75.22
   3  -7  21   2229.47     33.53
   3  -7  22   2868.04     44.87
   3  -7  23   1343.07     40.56
   3  -7  24   1639.19     47.49
   3  -7  25      8.59     24.33
   3  -7  26    178.19     25.64
   3  -6   0  22372.72    335.74
   3  -6   1  30674.39    482.78
   3  -6   2  26438.66    157.46
   3  -6   3  54141.49    496.76
   3  -6   4  16553.09     81.82
   3  -6   5  37000.48    283.37
   3  -6   6    160.86      7.37
   3  -6   7    793.24      9.64
   3  -6   8   7819.97     42.05
   3  -6   9  11550.87     66.57
   3  -6  10  19162.52     73.43
   3  -6  11  21132.30     64.24
   3  -6  12     10.31     12.67
   3  -6  13   4509.48     25.03
   3  -6  14  17925.81     87.85
   3  -6  15      1.30     14.50
   3  -6  16   9257.28     65.98
   3  -6  17    324.12     17.05
   3  -6  18   9012.33     93.67
   3  -6  19   2857.23     36.70
   3  -6  20      0.00     18.87
   3  -6  21  17424.44    190.02
   3  -6  22   5193.32     83.51
   3  -6  23     35.58     21.33
   3  -6  24    475.72     23.00
   3  -6  25   1599.59     26.48
   3  -6  26   2312.62     37.67
   3  -6  27     36.49     28.05
   3  -5   0   1810.23     17.97
   3  -5   1  71468.30    374.48
   3  -5   2  13099.23    119.27
   3  -5   3  25931.95    218.50
   3  -5   4   2070.53     11.88
   3  -5   5   7791.83     42.11
   3  -5   6   1648.25     11.52
   3  -5   7  20171.51     94.43
   3  -5   8   8798.88     33.56
   3  -5   9     19.67      9.47
   3  -5  10    110.51     10.57
   3  -5  11    438.50     12.17
   3  -5  12     55.24     13.57
   3  -5  13   1194.19     15.54
   3  -5  14  11296.37     78.25
   3  -5  15  34991.65    170.67
   3  -5  16   4167.82     26.00
   3  -5  17  11582.64    101.38
   3  -5  18   2179.15     25.39
   3  -5  19   1830.63     22.25
   3  -5  20    217.05     19.72
   3  -5  21    110.66     21.95
   3  -5  22     36.81     20.76
   3  -5  23   1742.74     58.93
   3  -5  24   1558.37     40.02
   3  -5  25     37.15     23.09
   3  -5  26     90.32     23.96
   3  -5  27    783.87     57.07
   3  -4   0    533.04      7.95
   3  -4   1    348.20      5.64
   3  -4   2  31340.65    385.14
   3  -4   3  36971.18    290.91
   3  -4   4  10433.25     52.90
   3  -4   5  35461.39    154.64
   3  -4   6     99.29      8.06
   3  -4   7     32.11      8.38
   3  -4   8  99489.85    327.85
   3  -4   9  76861.04    273.86
   3  -4  10  10511.59     30.60
   3  -4  11   8005.06     35.81
   3  -4  12   8517.69     35.99
   3  -4  13  23737.44     80.28
   3  -4  14     68.88     14.55
   3  -4  15  22164.25    127.75
   3  -4  16     48.78     16.29
   3  -4  17   1133.55     23.73
   3  -4  18  17991.97    111.74
   3  -4  19    994.36     22.74
   3  -4  20   9270.77    116.30
   3  -4  21     55.95     21.77
   3  -4  22   1998.61     38.58
   3  -4  23      0.00     21.77
   3  -4  24   1178.29     34.25
   3  -4  25   5394.88     65.56
   3  -4  26    456.49     25.26
   3  -4  27   2988.33     77.45
   3  -3   0  49092.05    224.68
   3  -3   1    252.57      5.92
   3  -3   2  21767.00    148.17
   3  -3   3    985.95     18.47
   3  -3   4   4237.55     21.50
   3  -3   5  18378.37    122.91
   3  -3   6  25158.43    118.92
   3  -3   7    404.22      9.51
   3  -3   8  48173.59    216.23
   3  -3   9  57305.91    229.07
   3  -3  10  44676.88    194.82
   3  -3  11  14674.53     41.44
   3  -3  12    832.04     15.61
   3  -3  13   2388.47     22.33
   3  -3  14   7078.18     44.95
   3  -3  15   3383.82     26.55
   3  -3  16    902.27     23.23
   3  -3  17   7711.01     81.23
   3  -3  18     26.43     19.89
   3  -3  19   3838.44     28.14
   3  -3  20     80.46     20.22
   3  -3  21   1056.20     23.07
   3  -3  22    240.36     23.37
   3  -3  23  10354.65     78.03
   3  -3  24    897.80     25.16
   3  -3  25    117.52     23.95
   3  -3  26   1054.63     41.58
   3  -3  27   4736.23     76.87
   3  -2   0   4739.68     18.56
   3  -2   1  200415.8    929.63
   3  -2   2  10366.30     55.97
   3  -2   3  112215.8    291.29
   3  -2   4  320395.3    996.96
   3  -2   5  19060.25     99.50
   3  -2   6    293.78      8.96
   3  -2   7  103846.8    353.50
   3  -2   8  29078.23    130.01
   3  -2   9  44924.87    197.49
   3  -2  10  17151.55     75.03
   3  -2  11  19653.53     96.78
   3  -2  12   6033.73     23.17
   3  -2  13   7481.82     27.87
   3  -2  14  10001.24     28.95
   3  -2  15   2853.81     22.56
   3  -2  16    605.75     21.45
   3  -2  17  25117.33    112.24
   3  -2  18    341.73     20.76
   3  -2  19   7865.94     97.67
   3  -2  20    183.72     20.58
   3  -2  21    535.08     22.28
   3  -2  22   2656.43     26.90
   3  -2  23   1393.87     29.53
   3  -2  24  18352.02     83.83
   3  -2  25     66.62     24.09
   3  -2  26    592.90     27.02
   3  -1   0   3900.19     16.36
   3  -1   1  97261.86    248.03
   3  -1   2  51470.90    190.31
   3  -1   3  52558.36    198.00
   3  -1   4  208511.2    476.84
   3  -1   5   1809.68     16.30
   3  -1   6  41736.25    206.44
   3  -1   7   9361.00     39.00
   3  -1   8   7184.72     20.37
   3  -1   9    808.41     12.72
   3  -1  10    211.35     12.40
   3  -1  11    494.70     13.73
   3  -1  12    768.09     15.22
   3  -1  13    243.16     17.52
   3  -1  14   5552.60     39.54
   3  -1  15   8758.82     59.24
   3  -1  16    404.63     21.05
   3  -1  17  20135.38    105.35
   3  -1  18  22256.11    184.68
   3  -1  19    339.41     31.45
   3  -1  20    116.02     20.89
   3  -1  21      5.59     21.38
   3  -1  22   4403.44     58.92
   3  -1  23    474.03     25.42
   3  -1  24     27.90     23.57
   3  -1  25   1007.50     28.43
   3  -1  26   2525.55     57.51
   3   0   0  81448.04    293.81
   3   0   1  18802.31     92.50
   3   0   2   9539.23     53.28
   3   0   3  59777.39    324.72
   3   0   4   9240.59     55.57
   3   0   5    165.68      8.85
   3   0   6  33318.04    156.50
   3   0   7   4322.38     16.35
   3   0   8  88456.94    302.64
   3   0   9  46457.08    199.65
   3   0  10  45931.77    267.59
   3   0  11    381.42     13.95
   3   0  12  24017.15    122.38
   3   0  13   5060.61     31.91
   3   0  14   6791.06     33.24
   3   0  15    224.83     23.50
   3   0  16  35036.90    127.60
   3   0  17    903.98     28.59
   3   0  18    963.26     24.50
   3   0  19   6877.29     56.37
   3   0  20   4537.29     48.93
   3   0  21    144.70     21.98
   3   0  22     20.71     22.44
   3   0  23   5688.65     79.93
   3   0  24   4206.37     80.64
   3   0  25   1414.36     31.03
   3   0  26   1876.20     43.60
   3   1   0    650.74     12.94
   3   1   1  11751.15     69.58
   3   1   2    178.63      7.87
   3   1   3  52786.72    208.94
   3   1   4   8699.63     65.39
   3   1   5  29915.49    151.84
   3   1   6   5581.86     21.57
   3   1   7     58.20     10.65
   3   1   8    155.27     11.58
   3   1   9   3081.06     22.60
   3   1  10  18665.37    130.33
   3   1  11  23606.24    156.32
   3   1  12  23808.44    119.87
   3   1  13  25689.55    159.55
   3   1  14   2054.06     25.84
   3   1  15   1413.08     22.63
   3   1  16   5918.17     31.82
   3   1  17   1901.87     31.42
   3   1  18   4920.41     52.23
   3   1  19    898.56     27.85
   3   1  20    461.15     23.67
   3   1  21    639.79     23.32
   3   1  22   2545.03     33.75
   3   1  23    219.33     25.57
   3   1  24   3052.97     51.04
   3   1  25    240.78     25.56
   3   2   0  53289.18    208.28
   3   2   1    658.52     12.53
   3   2   2  16524.88     83.39
   3   2   3   1045.08     10.11
   3   2   4  57727.14    292.13
   3   2   5   9950.17     60.81
   3   2   6  83313.19    282.38
   3   2   7  96718.58    319.48
   3   2   8  47061.63    228.51
   3   2   9  19244.86    142.22
   3   2  10    576.81     14.30
   3   2  11  12288.09     45.13
   3   2  12   3995.42     34.86
   3   2  13  19146.51     87.27
   3   2  14    888.41     37.56
   3   2  15   9602.10     53.15
   3   2  16   3288.06     42.44
   3   2  17   3674.74     61.92
   3   2  18   4100.12     47.79
   3   2  19   1883.02     59.14
   3   2  20    207.94     25.38
   3   2  21      0.00     25.92
   3   2  22   3636.11     53.94
   3   2  23   3403.23     43.32
   3   2  24    238.47     28.17
   3   3   0  31030.01    174.55
   3   3   1    290.79     11.21
   3   3   2  28236.02    140.12
   3   3   3    884.69     13.55
   3   3   4  80741.58    326.67
   3   3   5   7422.06     59.38
   3   3   6  36681.33    180.16
   3   3   7  27721.85    138.01
   3   3   8   2635.70     31.39
   3   3   9   1031.89     14.62
   3   3  10    598.03     14.66
   3   3  11    628.41     15.52
   3   3  12    525.28     18.45
   3   3  13  10447.40    116.63
   3   3  14   1952.23     23.72
   3   3  15   2098.90     35.58
   3   3  16     22.23     22.61
   3   3  17   2237.19     27.44
   3   3  18   2952.69     48.52
   3   3  19   9668.63    105.68
   3   3  20   1594.63     28.94
   3   3  21   6107.21     53.95
   3   3  22    336.24     24.17
   3   3  23   1510.26     34.47
   3   3  24    693.21     31.73
   3   4   0  52680.30    238.56
   3   4   1   5926.54     50.20
   3   4   2   2427.70     17.87
   3   4   3  14113.28     76.50
   3   4   4    595.58     14.76
   3   4   5  22636.99    222.86
   3   4   6  17383.49    119.35
   3   4   7  44599.35    195.40
   3   4   8     39.64     15.33
   3   4   9  14425.91     70.75
   3   4  10    723.12     15.26
   3   4  11   4014.09     32.37
   3   4  12  26366.08     92.48
   3   4  13   1817.83     29.04
   3   4  14   2117.24     23.16
   3   4  15   6850.16     81.01
   3   4  16   1211.32     27.00
   3   4  17   6834.19     72.77
   3   4  18   3201.24     62.23
   3   4  19    395.95     25.36
   3   4  20   1438.52     31.65
   3   4  21     60.17     25.06
   3   4  22   8305.05    110.74
   3   4  23      0.00     25.97
   3   5   0   5146.04     67.50
   3   5   1    419.57     10.60
   3   5   2  28106.47    195.03
   3   5   3   9832.16     66.80
   3   5   4   6155.08     40.19
   3   5   5   3360.65     33.39
   3   5   6   2186.26     20.59
   3   5   7    424.82     13.01
   3   5   8   1001.10     14.77
   3   5   9    115.60     13.72
   3   5  10    191.51     17.71
   3   5  11   1409.94     71.23
   3   5  12     10.53     17.94
   3   5  13  25210.11    135.72
   3   5  14   2475.65     28.83
   3   5  15   4571.04     83.51
   3   5  16   4576.33     55.32
   3   5  17   1744.12     27.20
   3   5  18   2390.13     55.88
   3   5  19    186.12     27.02
   3   5  20    551.51     37.85
   3   5  21   1942.43     35.09
   3   5  22    266.91     28.45
   3   6   0   3816.92     48.74
   3   6   1    802.06     14.66
   3   6   2   3122.13     29.67
   3   6   3  10390.56     73.78
   3   6   4   5820.07     46.66
   3   6   5   6208.12     52.32
   3   6   6   8884.50     66.38
   3   6   7  21491.39    180.60
   3   6   8  33313.36    229.78
   3   6   9    170.41     15.07
   3   6  10   2139.90     28.33
   3   6  11  22842.07    111.73
   3   6  12    137.05     21.98
   3   6  13   1056.36     48.02
   3   6  14   7858.60     88.57
   3   6  15   1558.44     45.28
   3   6  16   1136.29     28.88
   3   6  17     76.23     32.46
   3   6  18    620.22     25.92
   3   6  19      7.85     26.74
   3   6  20    334.49     29.26
   3   7   0    500.35     14.91
   3   7   1  18769.54    185.59
   3   7   2   4651.92     49.85
   3   7   3   7980.12     77.26
   3   7   4   3860.04     31.53
   3   7   5   4481.00     35.23
   3   7   6   1623.60     19.07
   3   7   7   5389.60     38.41
   3   7   8  12611.09    127.91
   3   7   9   4063.88     34.99
   3   7  10   1042.22     22.76
   3   7  11   1052.00     19.53
   3   7  12   7020.83    113.28
   3   7  13   1010.04     24.92
   3   7  14      0.00     22.19
   3   7  15     72.88     23.46
   3   7  16   2352.77     65.32
   3   7  17    247.42     39.93
   3   7  18    864.18     36.66
   3   7  19    401.94     36.99
   3   8   0   6252.31     57.67
   3   8   1  12028.73    159.06
   3   8   2  41706.33    377.57
   3   8   3      0.00     12.95
   3   8   4    132.15     11.89
   3   8   5   6731.49     73.31
   3   8   6  13259.56    104.09
   3   8   7   7285.46     59.34
   3   8   8   1511.59     18.48
   3   8   9    301.25     18.14
   3   8  10   7980.00     67.54
   3   8  11   3642.95     85.63
   3   8  12   3860.27     37.48
   3   8  13   3085.10     52.39
   3   8  14    472.63     24.09
   3   8  15    144.69     23.70
   3   8  16    537.49     28.79
   3   8  17    580.13     30.38
   3   9   0  15895.68    257.57
   3   9   1    482.39     11.97
   3   9   2  16248.39    152.52
   3   9   3     14.35     13.62
   3   9   4    314.48     13.38
   3   9   5   1687.45     17.28
   3   9   6     10.70     12.93
   3   9   7    777.13     18.56
   3   9   8     98.04     14.45
   3   9   9     55.82     15.69
   3   9  10      9.31     22.80
   3   9  11   3354.55     36.97
   3   9  12   1609.75     24.73
   3   9  13    240.35     20.71
   3   9  14   1907.99     53.77
   3   9  15    227.70     26.18
   3   9  16   2474.45     42.69
   3  10   0   2161.58     32.30
   3  10   1   6397.63     94.76
   3  10   2   6402.08     82.99
   3  10   3   1213.30     23.05
   3  10   4   3302.09     74.05
   3  10   5   4051.24     21.32
   3  10   6    140.89     14.35
   3  10   7   1652.77     27.27
   3  10   8   1486.37     18.79
   3  10   9    150.81     15.67
   3  10  10  10827.22     64.28
   3  10  11   2944.63     52.81
   3  10  12   2475.55     42.21
   3  10  13    384.37     38.96
   3  10  14     34.87     30.79
   3  11   0   5682.31     50.18
   3  11   1   3676.15     97.95
   3  11   2    554.70     14.14
   3  11   3    123.18     15.46
   3  11   4   1083.96     29.75
   3  11   5     51.67     12.83
   3  11   6    648.11     16.32
   3  11   7     37.92     22.46
   3  11   8   1247.61     41.69
   3  11   9   2079.39     47.06
   3  11  10    306.26     39.08
   3  11  11   6307.41    159.40
   3  12   0    901.74     22.44
   3  12   1   3258.41     28.03
   3  12   2    860.77     40.71
   3  12   3  10586.74    265.30
   3  12   4    171.86     32.20
   3  12   5   1745.69     43.35
   3  12   6   1410.77     44.58
   3  12   7    960.67     43.08
   3  12   8      0.00     38.94
   4 -14  13   1411.55     93.86
   4 -14  14    529.73     41.90
   4 -14  15     21.47     25.94
   4 -14  16    533.55     46.40
   4 -14  17   1756.55     72.06
   4 -13   9     48.60     14.54
   4 -13  10     35.42     16.79
   4 -13  11   4286.40    181.09
   4 -13  12   4375.41     54.76
   4 -13  13     62.87     29.42
   4 -13  14    100.79     24.59
   4 -13  15    812.27     53.29
   4 -13  16     37.09     27.37
   4 -13  17    806.52     32.14
   4 -13  18      0.00     30.03
   4 -13  19    678.78     41.37
   4 -13  20   2179.13    146.57
   4 -12   0    620.23     22.30
   4 -12   1   4992.56     32.99
   4 -12   8   1760.68     64.22
   4 -12   9     29.95     20.38
   4 -12  10   1337.05     36.88
   4 -12  11   1815.68     78.48
   4 -12  12   1297.99     52.04
   4 -12  13   5784.66     55.57
   4 -12  14   2440.49     58.26
   4 -12  15    503.98     27.11
   4 -12  16   8115.43    186.80
   4 -12  17    188.76     21.44
   4 -12  18     65.21     23.85
   4 -12  19    411.31     30.30
   4 -12  20   7822.86     86.19
   4 -12  21   2895.28     64.99
   4 -11   0   1826.05     30.61
   4 -11   1   1558.15     25.25
   4 -11   2    576.87     14.64
   4 -11   5   3978.75     32.13
   4 -11   6    966.12     20.74
   4 -11   7   1090.72     42.14
   4 -11   8     44.80     14.61
   4 -11   9    610.94     22.56
   4 -11  10   9347.41    223.16
   4 -11  11   6565.41     49.68
   4 -11  12     43.19     14.19
   4 -11  13    121.00     16.15
   4 -11  14    214.76     12.41
   4 -11  15   6344.55     71.51
   4 -11  16   8162.51     95.18
   4 -11  17    742.14     19.49
   4 -11  18     66.73     15.53
   4 -11  19    292.10     20.72
   4 -11  20    965.64     31.67
   4 -11  21    244.89     26.39
   4 -11  22     49.01     26.60
   4 -11  23   1043.12     48.42
   4 -10   0   1303.69     29.02
   4 -10   1   2370.48     31.33
   4 -10   2  12461.36    827.45
   4 -10   3   1504.02     19.12
   4 -10   4     23.88      9.03
   4 -10   5   1141.30     17.15
   4 -10   6   1362.38     38.43
   4 -10   7    483.75     15.01
   4 -10   8  14153.25    215.19
   4 -10   9   4094.58     26.84
   4 -10  10  19616.71    226.52
   4 -10  11   4314.74     42.98
   4 -10  12   6152.28     80.37
   4 -10  13     80.49     11.99
   4 -10  14    575.00     13.46
   4 -10  15   3294.03     78.40
   4 -10  16   2354.78     58.20
   4 -10  17     30.16     14.54
   4 -10  18   2181.43     65.89
   4 -10  19   5340.92    109.78
   4 -10  20   8728.27    113.39
   4 -10  21   1432.37     58.31
   4 -10  22   3211.59     87.95
   4 -10  23      0.00     21.70
   4 -10  24    617.69     26.63
   4  -9   0   5712.17    434.76
   4  -9   1    840.65     22.99
   4  -9   2  22229.07    165.21
   4  -9   3  14691.24    198.75
   4  -9   4   1330.75     26.47
   4  -9   5   5132.19     43.57
   4  -9   6   1114.45     12.71
   4  -9   7     10.33      5.48
   4  -9   8   4548.58     57.31
   4  -9   9  20559.77    106.88
   4  -9  10   4431.05     46.73
   4  -9  11   7143.12     49.88
   4  -9  12   1482.45     32.74
   4  -9  13   1003.55     14.61
   4  -9  14   1627.76     25.80
   4  -9  15   1971.99     28.04
   4  -9  16   1280.88     30.42
   4  -9  17   1318.78     26.63
   4  -9  18     14.63     16.25
   4  -9  19   2611.30     81.78
   4  -9  20    536.12     24.52
   4  -9  21    937.71     33.07
   4  -9  22    204.76     20.12
   4  -9  23   2360.08     94.42
   4  -9  24   2489.91     52.42
   4  -9  25   3512.79    100.12
   4  -8   0   2598.37     93.01
   4  -8   1   5797.54    289.83
   4  -8   2  41054.49    187.51
   4  -8   3  21774.32    146.82
   4  -8   4   7240.59    109.62
   4  -8   5  16704.05    105.88
   4  -8   6    102.05      6.56
   4  -8   7   6228.48     51.94
   4  -8   8    363.15      8.62
   4  -8   9   5088.94     55.92
   4  -8  10    746.42     12.35
   4  -8  11  14336.48     73.61
   4  -8  12   1959.25     18.29
   4  -8  13   4988.55     42.11
   4  -8  14   3431.62     30.66
   4  -8  15   1031.38     18.75
   4  -8  16   7069.93     79.84
   4  -8  17  11783.30    174.80
   4  -8  18   2211.49     47.40
   4  -8  19  19306.29     72.11
   4  -8  20   3088.36     81.48
   4  -8  21   2623.01     65.16
   4  -8  22    152.16     20.28
   4  -8  23    918.98     23.27
   4  -8  24     36.38     21.64
   4  -8  25   1446.15     40.72
   4  -7   0   2070.39     38.32
   4  -7   1  32166.57    207.71
   4  -7   2   4644.54     68.88
   4  -7   3   7823.62     63.67
   4  -7   4  11380.92    114.33
   4  -7   5    127.79      7.97
   4  -7   6   8488.21     56.12
   4  -7   7    455.54      9.79
   4  -7   8   8946.15     87.88
   4  -7   9  17633.80    144.59
   4  -7  10  13636.29     94.00
   4  -7  11   1757.09     14.92
   4  -7  12   2378.09     18.86
   4  -7  13   1553.04     22.94
   4  -7  14   1984.56     20.39
   4  -7  15    762.84     16.39
   4  -7  16    929.72     19.31
   4  -7  17   9537.25     95.73
   4  -7  18  17641.15    181.14
   4  -7  19    210.95     20.16
   4  -7  20     16.23     18.90
   4  -7  21    349.09     20.55
   4  -7  22    152.96     20.71
   4  -7  23     20.72     24.92
   4  -7  24    234.56     24.67
   4  -7  25    500.17     38.74
   4  -7  26   2932.12     71.38
   4  -6   0  36410.90    361.08
   4  -6   1  31835.27    241.78
   4  -6   2   1386.86     18.97
   4  -6   3   1620.57     15.63
   4  -6   4   1869.34     16.89
   4  -6   5   1996.57     19.66
   4  -6   6   2759.52     19.82
   4  -6   7   7579.49     48.49
   4  -6   8   5298.69     50.84
   4  -6   9    126.35     11.39
   4  -6  10    111.33     11.14
   4  -6  11  55835.64    222.58
   4  -6  12  34374.55    173.98
   4  -6  13    303.87     14.79
   4  -6  14   3940.02     28.62
   4  -6  15   6918.93     72.93
   4  -6  16   3553.48     35.61
   4  -6  17   9913.81     60.19
   4  -6  18  23133.69    177.48
   4  -6  19   6359.61     87.26
   4  -6  20     86.12     25.57
   4  -6  21   3775.86     72.27
   4  -6  22    130.60     27.97
   4  -6  23    322.25     26.68
   4  -6  24   2387.07     48.36
   4  -6  25    565.97     26.32
   4  -6  26     75.89     23.72
   4  -5   0  15351.62    178.65
   4  -5   1  10987.37    134.15
   4  -5   2  30991.32    200.80
   4  -5   3  33188.56    202.05
   4  -5   4  11927.04     66.43
   4  -5   5  54753.42    228.50
   4  -5   6    212.80     11.09
   4  -5   7   1568.62     16.19
   4  -5   8  31298.07    158.22
   4  -5   9  34628.16    149.91
   4  -5  10   6417.24     21.06
   4  -5  11  15588.68     74.88
   4  -5  12   1072.48     17.47
   4  -5  13   1866.42     18.68
   4  -5  14  14187.11     73.73
   4  -5  15    268.79     17.58
   4  -5  16   2972.27     22.11
   4  -5  17   3693.94     43.04
   4  -5  18   4263.25     40.92
   4  -5  19   1187.13     25.43
   4  -5  20    403.01     24.26
   4  -5  21     24.36     23.85
   4  -5  22     14.87     24.87
   4  -5  23   1385.02     58.59
   4  -5  24    268.33     25.11
   4  -5  25     64.02     23.34
   4  -5  26  12172.57    242.27
   4  -4   0  51655.56    435.72
   4  -4   1   2030.22     22.04
   4  -4   2   4806.50     43.46
   4  -4   3  20367.30    106.61
   4  -4   4  21547.44    112.11
   4  -4   5  50142.80    191.85
   4  -4   6  115133.5    777.84
   4  -4   7   3612.55     38.07
   4  -4   8   7768.25     34.98
   4  -4   9   1108.45     14.06
   4  -4  10  37242.23    162.57
   4  -4  11   3406.12     19.70
   4  -4  12  16019.36     57.16
   4  -4  13   1399.64     16.92
   4  -4  14   4264.87     27.35
   4  -4  15    555.83     20.36
   4  -4  16  18465.85    124.68
   4  -4  17  34560.37    269.86
   4  -4  18   4383.00     90.09
   4  -4  19   4040.58     66.45
   4  -4  20  11421.16    150.16
   4  -4  21     46.15     22.28
   4  -4  22    458.44     22.50
   4  -4  23   3976.01     60.46
   4  -4  24    443.46     27.82
   4  -4  25     99.44     23.95
   4  -4  26     49.21     24.46
   4  -3   0  184771.7   1431.77
   4  -3   1  87685.30    339.90
   4  -3   2  53795.16    364.48
   4  -3   3  13725.43     69.11
   4  -3   4  67162.09    229.97
   4  -3   5   2863.94     13.34
   4  -3   6   1462.85     13.57
   4  -3   7  88478.44    316.47
   4  -3   8  14781.96     51.54
   4  -3   9   3091.56     16.55
   4  -3  10   1540.56     15.06
   4  -3  11   1692.25     16.13
   4  -3  12    339.80     14.51
   4  -3  13  15190.25    102.63
   4  -3  14     20.85     17.96
   4  -3  15   2593.95     27.05
   4  -3  16   1462.86     27.38
   4  -3  17   2611.55     31.36
   4  -3  18   1674.34     28.70
   4  -3  19  14239.46    131.40
   4  -3  20   7910.81    111.09
   4  -3  21   2971.28     37.38
   4  -3  22      1.59     25.32
   4  -3  23    286.27     25.17
   4  -3  24    411.63     26.82
   4  -3  25   5168.26     91.33
   4  -3  26    977.07     27.08
   4  -2   0  181214.7   1185.41
   4  -2   1  128776.8    485.08
   4  -2   2    703.10     13.98
   4  -2   3     36.58      8.85
   4  -2   4   9630.89     38.57
   4  -2   5  22137.92    102.61
   4  -2   6  19642.77    151.51
   4  -2   7    380.04     11.34
   4  -2   8   1031.10     14.67
   4  -2   9  17829.58    121.55
   4  -2  10    985.26     14.39
   4  -2  11   9657.24     28.26
   4  -2  12  29343.19    112.01
   4  -2  13   7144.27     30.18
   4  -2  14  29114.78    104.95
   4  -2  15  31096.19    161.05
   4  -2  16  35755.66    175.85
   4  -2  17  10359.26     54.99
   4  -2  18   4180.06     30.75
   4  -2  19   5511.52     52.65
   4  -2  20    519.13     25.46
   4  -2  21    874.33     24.93
   4  -2  22   1314.62     26.75
   4  -2  23    913.81     37.84
   4  -2  24    801.95     33.54
   4  -2  25    420.96     27.48
   4  -2  26   4907.30     78.81
   4  -1   0   9038.65     52.44
   4  -1   1  91598.84    290.17
   4  -1   2   1452.68     11.18
   4  -1   3   1254.82     11.51
   4  -1   4  73576.32    255.18
   4  -1   5   3905.20     18.98
   4  -1   6  131616.6    404.78
   4  -1   7   3321.79     40.65
   4  -1   8  27744.50    119.66
   4  -1   9     33.14     14.29
   4  -1  10   3373.86     19.73
   4  -1  11   3501.92     29.79
   4  -1  12  33823.91    202.57
   4  -1  13   3465.49     33.67
   4  -1  14   1487.70     20.42
   4  -1  15   4963.91     32.18
   4  -1  16  14862.97     64.64
   4  -1  17     14.02     21.89
   4  -1  18   3879.25     55.10
   4  -1  19    220.55     29.06
   4  -1  20    548.54     25.83
   4  -1  21   2223.45     26.80
   4  -1  22    214.08     23.04
   4  -1  23    516.23     28.40
   4  -1  24   3288.33     60.73
   4  -1  25   1143.76     29.97
   4  -1  26    925.06     31.93
   4   0   0  17585.79    119.41
   4   0   1  13437.79     83.91
   4   0   2     50.36      8.92
   4   0   3   1906.70     12.29
   4   0   4   4754.52     27.38
   4   0   5   9144.77     67.59
   4   0   6  58331.95    251.65
   4   0   7  71509.19    305.65
   4   0   8   9485.14     28.69
   4   0   9  41494.50    182.07
   4   0  10  21014.12    126.31
   4   0  11  19637.84    103.10
   4   0  12    321.60     16.73
   4   0  13   8011.54     46.72
   4   0  14   3007.56     37.09
   4   0  15  49291.73    318.21
   4   0  16  22858.97    144.59
   4   0  17    637.09     25.64
   4   0  18    251.99     23.45
   4   0  19   1411.08     28.80
   4   0  20   2721.56     33.05
   4   0  21      5.24     22.28
   4   0  22   4444.53     60.73
   4   0  23   1533.71     49.17
   4   0  24     61.47     28.12
   4   0  25   5433.05     66.58
   4   1   0   1112.48     12.90
   4   1   1  133100.7    693.67
   4   1   2  57190.31    237.68
   4   1   3  125601.2    764.70
   4   1   4  12316.14     47.06
   4   1   5  105757.1    527.99
   4   1   6   5177.06     28.31
   4   1   7  33275.61    144.87
   4   1   8   1235.94     15.64
   4   1   9  19763.13    103.48
   4   1  10   1108.83     15.94
   4   1  11   4119.39     24.66
   4   1  12   3599.62     26.59
   4   1  13    994.66     19.25
   4   1  14    978.77     23.92
   4   1  15   5318.10     93.05
   4   1  16    642.39     44.63
   4   1  17   2830.50     46.06
   4   1  18     32.18     28.07
   4   1  19    268.89     26.85
   4   1  20     87.75     23.56
   4   1  21   8299.51     73.55
   4   1  22   6696.77     97.83
   4   1  23      6.86     27.56
   4   1  24   3929.23     58.78
   4   2   0   2800.97     24.64
   4   2   1  67626.06    249.05
   4   2   2  47564.16    215.28
   4   2   3  33702.77    174.36
   4   2   4  56497.28    237.38
   4   2   5  20188.21     90.30
   4   2   6   8328.66     64.50
   4   2   7   2814.66     24.03
   4   2   8   4826.52     22.99
   4   2   9    644.75     14.79
   4   2  10  18157.16    108.86
   4   2  11   2123.86     18.90
   4   2  12   1127.09     22.42
   4   2  13    362.25     18.75
   4   2  14  16313.20     63.12
   4   2  15  68758.45    510.18
   4   2  16   1716.44     32.72
   4   2  17   1191.32     25.66
   4   2  18   1643.42     33.33
   4   2  19   2846.89     53.44
   4   2  20     26.59     23.41
   4   2  21   3583.36     54.96
   4   2  22    716.25     29.04
   4   2  23     68.38     30.52
   4   2  24   1737.18     50.52
   4   3   0  51712.27    291.33
   4   3   1  10222.98     82.83
   4   3   2  29495.53    149.56
   4   3   3  13802.24     67.86
   4   3   4  16083.89    103.96
   4   3   5  52321.39    231.35
   4   3   6   2055.97     16.81
   4   3   7   1266.64     15.06
   4   3   8  15251.54    102.83
   4   3   9   1646.79     17.17
   4   3  10    408.46     16.65
   4   3  11   7359.33     30.76
   4   3  12    206.66     17.80
   4   3  13   4247.06     28.43
   4   3  14  10123.74     38.09
   4   3  15   1191.48     26.26
   4   3  16    855.02     32.94
   4   3  17   5850.33     50.11
   4   3  18   4380.13    115.86
   4   3  19    218.65     30.45
   4   3  20   2260.72     31.53
   4   3  21    328.36     25.74
   4   3  22   2396.76     90.59
   4   3  23    567.89     35.87
   4   4   0   6635.40     41.02
   4   4   1    616.73     14.89
   4   4   2   1300.81     13.80
   4   4   3   9310.38     42.06
   4   4   4  29202.16    155.66
   4   4   5    111.38     12.31
   4   4   6   6784.04     54.16
   4   4   7   6963.62     47.07
   4   4   8   7970.88     37.77
   4   4   9    853.73     20.05
   4   4  10  36302.88    174.21
   4   4  11   3588.43     40.48
   4   4  12   1838.71     22.67
   4   4  13  10554.41     46.56
   4   4  14  49663.77    306.72
   4   4  15    884.19     28.63
   4   4  16    202.27     32.01
   4   4  17     37.92     25.08
   4   4  18   1194.67     29.67
   4   4  19   1824.13     36.19
   4   4  20    321.28     37.04
   4   4  21      0.00     29.24
   4   4  22      5.54     33.04
   4   5   0    624.42     12.85
   4   5   1   5216.80     51.24
   4   5   2   2307.09     18.25
   4   5   3   2455.93     20.87
   4   5   4  84163.95    408.31
   4   5   5     21.97     13.75
   4   5   6    902.64     23.58
   4   5   7  16581.21     80.72
   4   5   8   2066.10     24.95
   4   5   9    221.57     21.41
   4   5  10  13505.51     92.33
   4   5  11   2184.62     31.52
   4   5  12     32.98     17.74
   4   5  13     58.00     19.35
   4   5  14   1326.45     29.97
   4   5  15    564.92     32.04
   4   5  16    750.16     26.86
   4   5  17    528.77     29.90
   4   5  18    194.68     29.56
   4   5  19   1669.71     36.64
   4   5  20      0.00     31.33
   4   5  21   1052.53     36.90
   4   6   0      6.67     11.42
   4   6   1   3879.50     29.56
   4   6   2  20526.39    141.63
   4   6   3    598.90     13.52
   4   6   4  28281.75    300.40
   4   6   5  33467.00    307.24
   4   6   6      4.31     13.54
   4   6   7    142.64     17.97
   4   6   8    326.60     15.42
   4   6   9   8267.06     82.87
   4   6  10   1369.02     26.61
   4   6  11    146.68     22.67
   4   6  12   2344.28     41.71
   4   6  13  26736.20    347.97
   4   6  14   7343.37    111.90
   4   6  15    493.18     22.68
   4   6  16    699.62     29.98
   4   6  17    599.46     43.13
   4   6  18   7042.55    237.30
   4   6  19     39.24     43.24
   4   6  20     50.14     35.73
   4   7   0    111.59     12.88
   4   7   1   1410.58     23.61
   4   7   2   4607.59     43.03
   4   7   3  38474.29    276.61
   4   7   4   2644.79     33.79
   4   7   5    450.72     14.42
   4   7   6   3622.52     22.23
   4   7   7   2746.30     26.95
   4   7   8   3294.31     21.75
   4   7   9   2329.41     31.02
   4   7  10     49.21     21.14
   4   7  11     37.90     19.17
   4   7  12    133.71     20.80
   4   7  13   1157.14     70.15
   4   7  14     70.93     23.90
   4   7  15   1821.77     57.84
   4   7  16   1923.85     69.33
   4   7  17    472.03     31.05
   4   7  18    283.83     33.04
   4   8   0   1022.23     26.56
   4   8   1    385.49     14.23
   4   8   2   9535.28    114.69
   4   8   3   6669.90     62.07
   4   8   4   3141.41     39.84
   4   8   5   5395.76     48.86
   4   8   6    755.32     16.17
   4   8   7    206.80     15.45
   4   8   8   2509.76     21.39
   4   8   9   1358.06     20.54
   4   8  10   1464.57     23.33
   4   8  11   9157.97    107.99
   4   8  12   2082.73     35.10
   4   8  13  18362.93    187.25
   4   8  14    959.70     53.40
   4   8  15    453.44     29.41
   4   8  16    456.96     51.67
   4   9   0    894.44     17.41
   4   9   1    625.60     14.70
   4   9   2   5023.63     61.25
   4   9   3   8070.28     89.03
   4   9   4    888.16     17.38
   4   9   5     20.41     14.32
   4   9   6   9898.91     64.58
   4   9   7   3635.53     37.48
   4   9   8   2101.96     28.64
   4   9   9    368.71     17.67
   4   9  10    588.62     20.61
   4   9  11   1499.48     34.34
   4   9  12   2532.60     63.21
   4   9  13    942.02     31.14
   4   9  14      0.00     22.36
   4   9  15      0.00     23.27
   4  10   0    286.42     14.86
   4  10   1   4500.04     58.49
   4  10   2   6721.57     48.49
   4  10   3   2102.81     30.70
   4  10   4    377.35     17.63
   4  10   5   3199.05     25.04
   4  10   6   7517.87     72.55
   4  10   7   1077.89     22.47
   4  10   8   5307.39     76.32
   4  10   9    271.51     17.97
   4  10  10   1900.96     32.89
   4  10  11   2865.60     51.43
   4  10  12   6034.25     95.99
   4  11   0   2113.92     39.46
   4  11   1    207.00     14.21
   4  11   2   7260.88     92.61
   4  11   3   1564.91     18.68
   4  11   4    460.22     24.51
   4  11   5   6643.54     59.91
   4  11   6    885.50     31.45
   4  11   7   1133.40     35.42
   4  11   8    132.39     26.48
   4  11   9    217.07     28.18
   4  11  10      9.71     33.31
   4  12   0   9295.67    133.02
   4  12   1    218.70     17.38
   4  12   2    620.36     27.12
   4  12   3   2780.00     47.07
   4  12   4    224.49     51.88
   4  12   5    698.87     40.53
   4  12   6    138.42     37.75
   4  12   7    350.89     79.30
   5 -14  14    474.58     40.37
   5 -14  15    308.62     28.71
   5 -14  16   2437.89     50.27
   5 -13   9    559.38     32.65
   5 -13  10   7762.42     60.92
   5 -13  11     72.02     19.86
   5 -13  12   3066.42    141.91
   5 -13  13   1912.60     97.84
   5 -13  14    312.98     26.20
   5 -13  15   1010.69     39.34
   5 -13  16    564.08     54.30
   5 -13  17     24.73     29.25
   5 -13  18    376.40     32.39
   5 -13  19    133.89     56.15
   5 -12   0    137.73     16.43
   5 -12   1   2043.93    171.60
   5 -12   2   2610.37     28.55
   5 -12   3   1730.08     17.41
   5 -12   5    788.52     17.10
   5 -12   6   1876.06     35.83
   5 -12   7   2280.40     53.83
   5 -12   8     92.61     14.82
   5 -12   9      0.00     21.50
   5 -12  10     69.40     10.80
   5 -12  11  13006.39    230.42
   5 -12  12   1256.90     30.29
   5 -12  13   6072.02     41.90
   5 -12  14     42.11     24.62
   5 -12  15   1056.13     43.29
   5 -12  16   1811.95     54.90
   5 -12  17   2578.10     90.49
   5 -12  18    121.67     23.08
   5 -12  19   1753.56     66.00
   5 -12  20     51.55     25.28
   5 -12  21     79.47     26.43
   5 -11   0     20.11     16.79
   5 -11   1   2089.03    185.67
   5 -11   2   8544.78     52.30
   5 -11   4   1663.72     59.93
   5 -11   5  21011.90    196.29
   5 -11   6   2725.91     37.48
   5 -11   7   8075.52    178.25
   5 -11   8   1128.03     58.17
   5 -11   9   5922.42     32.74
   5 -11  10   2462.82     73.61
   5 -11  11   1983.46     47.40
   5 -11  12    718.22     21.41
   5 -11  13    236.53     23.35
   5 -11  14     17.38     13.18
   5 -11  15    146.09     12.57
   5 -11  16   1258.86     40.21
   5 -11  17    194.20     15.25
   5 -11  18    177.90     18.35
   5 -11  19   4426.49    116.03
   5 -11  20   1680.89     39.20
   5 -11  21     26.10     25.98
   5 -11  22    989.61     64.06
   5 -10   0    663.21     28.77
   5 -10   1   9674.22    895.33
   5 -10   2   6689.22    576.62
   5 -10   3    696.72     11.52
   5 -10   4   7340.57     79.09
   5 -10   5   9731.75    120.32
   5 -10   6     25.00      6.80
   5 -10   7   4307.24     68.53
   5 -10   8   3313.01     46.02
   5 -10   9    978.35     18.60
   5 -10  10   7005.83    119.11
   5 -10  11   1148.52     19.12
   5 -10  12    947.87     24.10
   5 -10  13   3248.11     66.82
   5 -10  14    977.80     22.79
   5 -10  15   5025.28     71.78
   5 -10  16   3168.60     79.31
   5 -10  17     22.08     15.34
   5 -10  18     34.41     21.00
   5 -10  19   6547.04     69.41
   5 -10  20   1937.61     62.08
   5 -10  21   3415.79    102.83
   5 -10  22    389.09     24.54
   5 -10  23   2591.27     77.82
   5  -9   0  24752.67    182.51
   5  -9   1   2092.85     41.71
   5  -9   2  21125.12    159.56
   5  -9   3   2017.85     21.74
   5  -9   4  16128.60     90.56
   5  -9   5   1005.81     56.20
   5  -9   6    812.82     18.71
   5  -9   7   7224.64     29.82
   5  -9   8   1923.76     50.93
   5  -9   9  17039.26     99.51
   5  -9  10   1519.36     19.73
   5  -9  11    962.71     19.46
   5  -9  12    515.66     13.15
   5  -9  13   2385.06     37.65
   5  -9  14   3189.91     42.62
   5  -9  15   4110.47     57.36
   5  -9  16    710.90     27.32
   5  -9  17    620.16     24.06
   5  -9  18   7202.50     44.12
   5  -9  19   1981.95     37.70
   5  -9  20   1147.92     41.80
   5  -9  21   5231.29    108.24
   5  -9  22     19.92     21.56
   5  -9  23     74.04     23.21
   5  -9  24    656.97     27.14
   5  -8   0  21142.23    167.05
   5  -8   1   3949.01     30.26
   5  -8   2  15207.65    149.00
   5  -8   3   1767.87     38.52
   5  -8   4   1241.72     15.99
   5  -8   5   5399.23     32.80
   5  -8   6   3510.01     27.11
   5  -8   7   2485.31     21.35
   5  -8   8    663.00     12.28
   5  -8   9   7620.43     59.84
   5  -8  10   3534.29     42.12
   5  -8  11   4633.75     73.72
   5  -8  12     46.90     12.67
   5  -8  13   7041.98     72.30
   5  -8  14  33379.47    258.47
   5  -8  15    212.95     18.99
   5  -8  16   3274.73     53.97
   5  -8  17    247.38     20.60
   5  -8  18   2994.30     63.70
   5  -8  19     76.36     19.78
   5  -8  20    266.80     22.92
   5  -8  21    280.88     23.94
   5  -8  22   3286.72    102.91
   5  -8  23   1463.11     60.27
   5  -8  24    111.75     23.78
   5  -8  25     21.92     22.64
   5  -7   0  26415.86    406.50
   5  -7   1  18577.99    210.06
   5  -7   2   5163.48     74.05
   5  -7   3   6832.49     68.76
   5  -7   4   8295.80     67.69
   5  -7   5   3581.42     25.59
   5  -7   6     57.19      9.68
   5  -7   7  16463.00     93.41
   5  -7   8  76781.90    296.34
   5  -7   9    267.55     11.50
   5  -7  10    110.28     11.84
   5  -7  11    497.61     15.02
   5  -7  12   1331.10     18.63
   5  -7  13   1732.31     21.24
   5  -7  14   4135.94     46.06
   5  -7  15    678.73     17.11
   5  -7  16    238.54     18.14
   5  -7  17   1031.04     22.86
   5  -7  18  12221.56    165.50
   5  -7  19    774.04     24.27
   5  -7  20   4394.69    102.08
   5  -7  21    119.51     23.80
   5  -7  22     12.14     25.20
   5  -7  23    671.81     24.99
   5  -7  24   1186.09     32.25
   5  -7  25     79.63     23.14
   5  -6   0   2099.06     12.63
   5  -6   1  51682.99    331.89
   5  -6   2    405.24     11.33
   5  -6   3     57.54     14.73
   5  -6   4   8490.57     46.60
   5  -6   5  15711.82     85.84
   5  -6   6  14431.72    102.49
   5  -6   7  12326.33     67.76
   5  -6   8    355.65     16.88
   5  -6   9  35438.39    153.41
   5  -6  10     22.31     12.21
   5  -6  11   6793.03     48.74
   5  -6  12   2557.73     22.16
   5  -6  13  13606.40     65.93
   5  -6  14  14769.31     83.71
   5  -6  15    458.51     18.16
   5  -6  16     31.43     18.01
   5  -6  17   1737.73     25.34
   5  -6  18   1464.07     28.17
   5  -6  19    911.37     36.60
   5  -6  20    416.55     32.09
   5  -6  21    113.86     25.09
   5  -6  22  14210.06    130.91
   5  -6  23   1677.82     60.31
   5  -6  24    187.05     29.66
   5  -6  25    727.62     27.86
   5  -5   0  112881.1   1169.24
   5  -5   1  11183.48     98.07
   5  -5   2  18316.49    167.86
   5  -5   3  67448.69    720.74
   5  -5   4      8.62     10.37
   5  -5   5   2186.64     20.45
   5  -5   6  19466.70    100.38
   5  -5   7  46885.68    213.11
   5  -5   8  21007.09     94.67
   5  -5   9    891.27     14.80
   5  -5  10    215.80     13.05
   5  -5  11   2052.84     18.32
   5  -5  12    293.99     15.72
   5  -5  13   3090.35     22.38
   5  -5  14    239.82     18.23
   5  -5  15   4923.90     25.30
   5  -5  16    282.57     23.15
   5  -5  17  20549.34    213.05
   5  -5  18   2940.29     52.15
   5  -5  19   6742.66     76.16
   5  -5  20     53.21     30.12
   5  -5  21    788.47     32.17
   5  -5  22    159.14     26.26
   5  -5  23   7609.86    144.09
   5  -5  24    298.66     31.11
   5  -5  25     30.10     31.60
   5  -5  26    393.41     37.15
   5  -4   0  94079.91    970.36
   5  -4   1    722.82     12.36
   5  -4   2  10283.85     94.06
   5  -4   3  49061.35    299.46
   5  -4   4    864.65     12.64
   5  -4   5    191.18     10.75
   5  -4   6    155.56     10.64
   5  -4   7   3630.96     22.54
   5  -4   8  22012.66     95.81
   5  -4   9   2137.40     22.68
   5  -4  10   6625.03     44.10
   5  -4  11   4128.04     21.87
   5  -4  12   7954.68     53.53
   5  -4  13  16651.28     91.31
   5  -4  14  13922.51     73.92
   5  -4  15   9639.49     57.67
   5  -4  16   5616.31     34.96
   5  -4  17  16780.43     74.39
   5  -4  18     21.99     22.51
   5  -4  19     76.76     23.52
   5  -4  20    114.81     26.84
   5  -4  21   7186.28    158.46
   5  -4  22    421.77     27.06
   5  -4  23    391.57     27.74
   5  -4  24    950.14     41.70
   5  -4  25    133.21     35.74
   5  -4  26    361.58     48.61
   5  -3   0    861.71     22.54
   5  -3   1    500.77     16.57
   5  -3   2  15676.16    132.26
   5  -3   3  12906.73    104.33
   5  -3   4   2614.69     27.03
   5  -3   5  12336.96     59.51
   5  -3   6  11342.03     60.98
   5  -3   7  44351.50    198.06
   5  -3   8   9316.02     45.75
   5  -3   9  32331.54    225.08
   5  -3  10  41055.64    189.73
   5  -3  11   7411.48     41.87
   5  -3  12   2124.18     18.72
   5  -3  13    360.10     19.24
   5  -3  14   6846.55     29.04
   5  -3  15    350.77     18.00
   5  -3  16  21677.90    106.22
   5  -3  17   3450.26     29.11
   5  -3  18    926.88     27.44
   5  -3  19   5376.82     77.41
   5  -3  20    569.12     28.41
   5  -3  21    231.40     36.99
   5  -3  22   4669.62     56.41
   5  -3  23    128.78     27.46
   5  -3  24    210.36     28.42
   5  -3  25    277.67     40.73
   5  -2   0  60062.60    319.34
   5  -2   1   3091.56     24.77
   5  -2   2  51698.77    246.69
   5  -2   3    191.24     12.41
   5  -2   4   7989.59     39.37
   5  -2   5   4392.38     31.15
   5  -2   6   2850.69     18.37
   5  -2   7  35886.37    176.57
   5  -2   8    509.84     13.55
   5  -2   9  42811.29    197.51
   5  -2  10   2925.21     33.93
   5  -2  11   4050.51     26.97
   5  -2  12  52823.78    220.40
   5  -2  13   6446.03     36.96
   5  -2  14    716.05     19.96
   5  -2  15     37.90     17.69
   5  -2  16   2058.22     25.40
   5  -2  17   5049.65     55.62
   5  -2  18     94.32     33.05
   5  -2  19    217.86     35.01
   5  -2  20   3393.89     73.50
   5  -2  21   1699.20     66.89
   5  -2  22    160.88     38.11
   5  -2  23    714.73     32.37
   5  -2  24   5150.32     49.52
   5  -2  25   2425.80     94.38
   5  -1   0    792.39     20.89
   5  -1   1  17747.93    112.78
   5  -1   2   1899.00     13.53
   5  -1   3  110472.5    365.16
   5  -1   4  21370.89    115.38
   5  -1   5  18782.94     90.13
   5  -1   6  97194.98    357.32
   5  -1   7  15608.65     89.61
   5  -1   8  24561.89    122.24
   5  -1   9  18116.81     90.66
   5  -1  10    271.89     14.81
   5  -1  11   6966.61     39.28
   5  -1  12   4263.39     22.73
   5  -1  13    130.48     18.31
   5  -1  14   3201.22     28.62
   5  -1  15   9397.66     37.82
   5  -1  16   5861.69     44.39
   5  -1  17    151.88     23.05
   5  -1  18  12111.21    134.19
   5  -1  19    966.93     32.61
   5  -1  20     23.66     30.85
   5  -1  21   6828.57    149.67
   5  -1  22      0.00     37.80
   5  -1  23    259.97     36.03
   5  -1  24    756.30     30.37
   5  -1  25   5930.37    142.12
   5   0   0   8275.80     30.03
   5   0   1  65584.57    364.48
   5   0   2    720.79     17.39
   5   0   3  30886.20    152.96
   5   0   4  23375.04    130.67
   5   0   5  22174.81    110.41
   5   0   6   1579.05     18.95
   5   0   7  15572.56     45.72
   5   0   8   6446.23     29.59
   5   0   9   3974.24     31.88
   5   0  10     81.46     14.96
   5   0  11  24471.13    133.07
   5   0  12  16915.20     72.71
   5   0  13     44.16     16.86
   5   0  14    223.63     23.15
   5   0  15   2035.28     22.42
   5   0  16    524.45     20.28
   5   0  17   8946.88     70.54
   5   0  18  11340.94    161.11
   5   0  19    394.84     31.48
   5   0  20   7285.91     62.09
   5   0  21     37.99     39.02
   5   0  22    271.26     36.11
   5   0  23   2308.73     67.85
   5   0  24     64.47     29.14
   5   1   0   2832.81     33.23
   5   1   1   3010.47     18.24
   5   1   2  41529.06    192.21
   5   1   3    324.69     12.90
   5   1   4    128.66     21.08
   5   1   5  29846.17    148.07
   5   1   6  26929.66    168.66
   5   1   7   3240.37     18.50
   5   1   8    115.80     15.29
   5   1   9   6861.96     33.66
   5   1  10    640.52     16.48
   5   1  11  31862.44    162.75
   5   1  12   7323.47     28.80
   5   1  13  11370.69     45.29
   5   1  14   6135.10     50.59
   5   1  15   4477.56     28.52
   5   1  16   2188.21     29.31
   5   1  17  14492.96    166.68
   5   1  18    830.39     36.61
   5   1  19    110.17     30.63
   5   1  20   1252.34     35.26
   5   1  21   3427.87     98.16
   5   1  22    654.28     40.62
   5   1  23     33.55     34.44
   5   1  24   2344.14     97.64
   5   2   0   8341.95     23.84
   5   2   1  31530.35    183.14
   5   2   2     23.48     11.76
   5   2   3    289.28     12.50
   5   2   4   5962.73     33.41
   5   2   5    501.80     14.06
   5   2   6  18452.57    115.51
   5   2   7   3845.12     19.92
   5   2   8   4351.29     25.62
   5   2   9   3188.90     26.07
   5   2  10  34070.46    170.76
   5   2  11   1840.76     20.20
   5   2  12  15309.00     83.19
   5   2  13  12854.35    146.94
   5   2  14   1224.32     29.10
   5   2  15   4457.89     44.59
   5   2  16   3374.29     40.03
   5   2  17   1600.57     33.48
   5   2  18   1607.20     58.34
   5   2  19    873.57     41.59
   5   2  20   1463.85     36.45
   5   2  21     44.96     32.78
   5   2  22    342.66     39.67
   5   2  23    226.00     35.45
   5   3   0     18.00     15.36
   5   3   1  17277.62     93.45
   5   3   2   8374.49     53.02
   5   3   3     53.86     12.64
   5   3   4  40865.61    187.68
   5   3   5    153.46     14.46
   5   3   6  20020.22    121.29
   5   3   7  18632.08    144.00
   5   3   8  18699.85     72.73
   5   3   9     22.12     15.56
   5   3  10  28451.43     85.88
   5   3  11   1567.70     19.95
   5   3  12   2093.11     23.06
   5   3  13   8335.06     86.01
   5   3  14   7327.68     89.31
   5   3  15     40.17     22.64
   5   3  16   1843.93     29.75
   5   3  17    992.94     28.99
   5   3  18    312.19     35.67
   5   3  19    285.40     37.71
   5   3  20   5012.89     85.62
   5   3  21    525.89     35.04
   5   3  22     34.70     39.12
   5   4   0  68655.76    449.22
   5   4   1    933.54     19.07
   5   4   2     71.25     12.90
   5   4   3   8381.90     47.90
   5   4   4   1596.86     16.18
   5   4   5  29885.35    121.95
   5   4   6    213.64     14.67
   5   4   7  21914.11    145.21
   5   4   8    558.42     16.41
   5   4   9   2872.92     24.98
   5   4  10  15137.94     93.22
   5   4  11   2901.76     39.29
   5   4  12    864.36     22.39
   5   4  13    646.42     21.61
   5   4  14    471.68     22.94
   5   4  15   3900.96     57.17
   5   4  16    140.18     26.57
   5   4  17   1370.17     30.91
   5   4  18   2566.55     83.58
   5   4  19    211.98     31.93
   5   4  20   3387.31     91.43
   5   4  21   1161.45     47.51
   5   5   0   6036.55     48.08
   5   5   1  58556.66    287.54
   5   5   2   6399.10     61.66
   5   5   3  10602.04     34.25
   5   5   4   3202.30     23.87
   5   5   5   5767.95     28.06
   5   5   6   1636.17     17.85
   5   5   7   1726.32     18.56
   5   5   8   2027.98     19.67
   5   5   9  11129.72     70.96
   5   5  10   2118.20     22.03
   5   5  11    246.31     23.63
   5   5  12   4784.87     72.61
   5   5  13  15730.67    177.46
   5   5  14   1636.12     34.58
   5   5  15     29.77     23.40
   5   5  16   1607.30     36.81
   5   5  17     18.56     27.22
   5   5  18    320.39     26.70
   5   5  19   6340.66     95.78
   5   5  20    759.33     35.82
   5   6   0     26.82     14.74
   5   6   1    203.79     13.84
   5   6   2     64.79     17.32
   5   6   3   3381.88     27.35
   5   6   4   1081.33     18.23
   5   6   5   5265.41     36.87
   5   6   6   5543.80     51.40
   5   6   7    264.93     17.62
   5   6   8   1146.50     20.01
   5   6   9  10204.60     47.02
   5   6  10   3985.76     37.92
   5   6  11   1108.91     25.07
   5   6  12    229.17     19.51
   5   6  13   5313.48     49.34
   5   6  14    310.86     22.55
   5   6  15   4154.40     96.31
   5   6  16   5431.21    100.45
   5   6  17    300.84     28.63
   5   6  18     59.75     28.43
   5   6  19    779.44     51.08
   5   7   0  12486.38     81.78
   5   7   1   1090.06     17.58
   5   7   2  13896.23    121.54
   5   7   3   3230.19     31.90
   5   7   4   1292.09     18.23
   5   7   5     31.08     15.29
   5   7   6   2412.40     20.63
   5   7   7    403.29     18.38
   5   7   8    313.22     17.69
   5   7   9  15900.93     89.41
   5   7  10   1943.56     22.58
   5   7  11   1615.23     28.24
   5   7  12  15383.73    120.06
   5   7  13    644.82     27.39
   5   7  14    106.31     22.08
   5   7  15    825.12     34.26
   5   7  16     39.07     27.39
   5   7  17     34.63     27.95
   5   8   0     16.66     19.85
   5   8   1    850.76     18.74
   5   8   2   7227.59     60.59
   5   8   3     19.29     14.98
   5   8   4   2605.86     26.77
   5   8   5   8177.64     58.09
   5   8   6    432.66     20.15
   5   8   7   1013.19     19.31
   5   8   8  16119.31    138.55
   5   8   9     81.46     21.75
   5   8  10   1009.14     23.95
   5   8  11   1285.94     24.12
   5   8  12    232.76     22.92
   5   8  13    499.68     23.27
   5   8  14    410.27     22.36
   5   8  15    358.65     26.30
   5   9   0     49.11     17.67
   5   9   1     71.73     16.34
   5   9   2  21374.10    187.27
   5   9   3   3355.62     43.86
   5   9   4   3045.48     25.76
   5   9   5    169.62     17.82
   5   9   6     10.46     16.69
   5   9   7     84.01     17.42
   5   9   8   5063.21     38.45
   5   9   9     10.27     18.39
   5   9  10     20.59     18.95
   5   9  11   7198.22     94.16
   5   9  12    629.62     23.69
   5   9  13   1500.88     61.09
   5  10   0   3959.73     50.67
   5  10   1   7263.89     86.77
   5  10   2    387.54     16.70
   5  10   3   2404.81     30.15
   5  10   4   1482.08     20.15
   5  10   5   1483.78     20.70
   5  10   6    460.00     18.55
   5  10   7   1667.02     46.23
   5  10   8   2107.30     49.36
   5  10   9     77.25     18.98
   5  10  10    281.95     21.62
   5  10  11    231.26     24.41
   5  11   0    781.52     18.96
   5  11   1   6572.37     67.17
   5  11   2     23.89     20.60
   5  11   3     20.59     16.45
   5  11   4   1361.34     23.70
   5  11   5      0.00     18.27
   5  11   6      8.68     17.52
   5  11   7   1118.06     33.56
   5  11   8     79.59     33.35
   5  12   0     39.63     21.39
   5  12   1    939.79     27.54
   5  12   2     33.70     19.63
   5  12   3    523.94     38.87
   5  12   4   2121.90     49.62
   5  12   5    373.67     40.82
   6 -14  14    468.25     40.10
   6 -14  15   1779.40    106.03
   6 -13   9   1325.44     34.31
   6 -13  10   1901.35     94.84
   6 -13  11    181.68     76.15
   6 -13  12   1548.63     84.21
   6 -13  13    274.38     25.49
   6 -13  14    481.35     27.88
   6 -13  15    702.41     75.70
   6 -13  16    655.35     47.94
   6 -13  17    358.57     31.70
   6 -13  18     50.44     31.47
   6 -12   0     64.06     19.55
   6 -12   1   6390.81     57.20
   6 -12   2   8662.02     60.63
   6 -12   3    509.69     47.51
   6 -12   4    103.01     11.68
   6 -12   5   1915.43     62.88
   6 -12   6    202.26     16.47
   6 -12   7   2152.53     60.44
   6 -12   8   1800.54     45.27
   6 -12   9     70.17     13.52
   6 -12  10     40.13     12.37
   6 -12  11     32.22     12.77
   6 -12  12   2688.95     99.44
   6 -12  13     69.77     21.87
   6 -12  14   1469.23     60.50
   6 -12  15    507.22     29.15
   6 -12  16    734.92     36.25
   6 -12  17     32.09     19.69
   6 -12  18    118.36     21.37
   6 -12  19      1.01     24.26
   6 -12  20    865.02     37.59
   6 -11   0   2376.24     43.98
   6 -11   1     72.97     28.22
   6 -11   2  12474.41   1375.50
   6 -11   3    249.74      7.44
   6 -11   4   1172.41     47.63
   6 -11   5   3986.91     68.76
   6 -11   6   7263.76    147.18
   6 -11   7     17.94     10.55
   6 -11   8    358.60     12.32
   6 -11   9     16.89     10.11
   6 -11  10   1031.32     47.63
   6 -11  11    635.04     27.26
   6 -11  12   1883.83     61.41
   6 -11  13   1065.94     26.51
   6 -11  14     29.53     13.16
   6 -11  15   1555.16     32.70
   6 -11  16   7654.16     43.94
   6 -11  17   1266.01     55.10
   6 -11  18    402.61     18.07
   6 -11  19    623.13     31.34
   6 -11  20     56.27     26.47
   6 -11  21   1576.93     70.93
   6 -10   0   7448.15    192.16
   6 -10   1   3257.37     68.52
   6 -10   2   1374.32     31.78
   6 -10   3   1727.97     45.27
   6 -10   4    548.52     11.58
   6 -10   5   6916.02    143.92
   6 -10   6    394.80     16.29
   6 -10   7    731.03     12.82
   6 -10   8     11.03      9.57
   6 -10   9    996.60     15.51
   6 -10  10   1667.92     27.93
   6 -10  11   6498.02     97.85
   6 -10  12    487.66     16.93
   6 -10  13   4130.96     59.55
   6 -10  14   1370.94     28.90
   6 -10  15    140.32     15.10
   6 -10  16   2480.25     76.13
   6 -10  17   3402.93     83.91
   6 -10  18   1623.71     47.20
   6 -10  19    113.86     20.52
   6 -10  20    423.48     21.69
   6 -10  21    545.81     27.15
   6 -10  22     87.05     24.36
   6  -9   0   2795.54     38.26
   6  -9   1   6437.88    147.85
   6  -9   2   1862.94     51.67
   6  -9   3    386.49     19.06
   6  -9   4   2618.18     40.64
   6  -9   5  10769.68     96.63
   6  -9   6   1178.64     37.07
   6  -9   7      7.96     11.78
   6  -9   8   3805.94     39.17
   6  -9   9   3528.62     50.23
   6  -9  10   7008.27     76.73
   6  -9  11  17410.26    187.34
   6  -9  12     26.70     14.59
   6  -9  13    362.85     15.89
   6  -9  14    889.34     25.79
   6  -9  15   3022.37     61.57
   6  -9  16    260.87     17.05
   6  -9  17    147.47     18.73
   6  -9  18    974.37     33.58
   6  -9  19    483.57     26.01
   6  -9  20    333.75     24.36
   6  -9  21   1508.73     37.30
   6  -9  22    355.47     25.27
   6  -9  23   1558.45     51.60
   6  -8   0     22.79      8.60
   6  -8   1   3851.62     64.51
   6  -8   2    295.26     12.18
   6  -8   3   9803.89    163.04
   6  -8   4  42494.58    267.28
   6  -8   5     95.23     11.48
   6  -8   6    270.05     12.49
   6  -8   7     32.07     14.46
   6  -8   8   2709.04     20.28
   6  -8   9   2898.49     38.54
   6  -8  10  10247.55     96.78
   6  -8  11    264.72     13.67
   6  -8  12    660.64     15.63
   6  -8  13   1246.71     23.88
   6  -8  14   5681.88     92.33
   6  -8  15    816.75     19.41
   6  -8  16   1501.20     37.54
   6  -8  17    383.18     18.67
   6  -8  18   1063.01     26.41
   6  -8  19    348.34     23.05
   6  -8  20   1438.15     35.30
   6  -8  21     43.46     24.25
   6  -8  22   4029.57     98.08
   6  -8  23    288.59     27.79
   6  -8  24    417.29     25.07
   6  -7   0  10153.81    218.12
   6  -7   1    950.10     14.56
   6  -7   2  11291.06    152.61
   6  -7   3  20833.67    213.04
   6  -7   4     11.41     10.41
   6  -7   5  29896.91    200.76
   6  -7   6   5366.37     40.30
   6  -7   7    121.77     11.93
   6  -7   8    206.87     11.97
   6  -7   9   1038.10     15.53
   6  -7  10   3713.18     29.98
   6  -7  11   7000.55     51.91
   6  -7  12      6.01     14.31
   6  -7  13    471.25     17.16
   6  -7  14    426.00     16.84
   6  -7  15   1303.31     35.86
   6  -7  16    631.37     22.53
   6  -7  17   1303.45     45.65
   6  -7  18  10588.24     74.30
   6  -7  19    488.85     24.27
   6  -7  20   4041.51     61.01
   6  -7  21   1032.71     27.10
   6  -7  22   2069.34     72.97
   6  -7  23     46.72     35.63
   6  -7  24   1342.66     51.96
   6  -6   0  15739.92    138.99
   6  -6   1    533.04     14.47
   6  -6   2  15663.57    286.87
   6  -6   3  36360.98    355.73
   6  -6   4   7164.86    110.98
   6  -6   5   1029.24     14.67
   6  -6   6   1603.10     16.41
   6  -6   7    570.48     12.61
   6  -6   8    603.41     15.61
   6  -6   9   3907.54     43.32
   6  -6  10   1231.98     16.92
   6  -6  11     81.22     14.33
   6  -6  12   8329.50     51.88
   6  -6  13   9118.35     67.53
   6  -6  14   2885.12     44.07
   6  -6  15   3455.67     62.53
   6  -6  16   1849.50     23.09
   6  -6  17      0.00     21.35
   6  -6  18   2197.28     43.96
   6  -6  19  11804.34     85.51
   6  -6  20   1079.82     49.69
   6  -6  21   1199.02     28.11
   6  -6  22    514.11     40.01
   6  -6  23     73.06     47.84
   6  -6  24    277.76     56.19
   6  -6  25     66.22     35.95
   6  -5   0  24737.22    176.36
   6  -5   1    405.65     14.69
   6  -5   2   1296.99     23.26
   6  -5   3   8017.99     90.56
   6  -5   4  18148.93    249.86
   6  -5   5      3.84     11.75
   6  -5   6   1566.82     22.36
   6  -5   7     82.47     12.03
   6  -5   8    256.99     14.06
   6  -5   9   3119.65     21.69
   6  -5  10   1266.80     17.33
   6  -5  11  16712.14     95.34
   6  -5  12  11804.95     61.26
   6  -5  13   8616.51     42.93
   6  -5  14   8884.05     75.89
   6  -5  15    297.91     19.29
   6  -5  16    883.04     21.36
   6  -5  17   6299.87     62.21
   6  -5  18    980.69     33.66
   6  -5  19   1331.67     31.10
   6  -5  20   2147.97     29.82
   6  -5  21    263.89     23.87
   6  -5  22   1799.61     48.10
   6  -5  23    195.46     34.88
   6  -5  24    312.11     36.29
   6  -5  25    300.05     37.04
   6  -4   0   2051.32     32.32
   6  -4   1   7886.77    119.32
   6  -4   2   7310.59     35.39
   6  -4   3  35985.68    317.66
   6  -4   4   1372.84     19.99
   6  -4   5  31192.12    239.18
   6  -4   6  24925.02    177.51
   6  -4   7  10780.87    113.09
   6  -4   8   2574.19     24.68
   6  -4   9    931.08     20.40
   6  -4  10   2564.19     25.86
   6  -4  11  18966.74    139.53
   6  -4  12  13009.97     58.74
   6  -4  13   1227.11     21.50
   6  -4  14     76.94     17.22
   6  -4  15   1324.69     23.76
   6  -4  16   5551.23     39.01
   6  -4  17    140.33     21.01
   6  -4  18   5518.70     36.31
   6  -4  19    221.39     22.59
   6  -4  20   3253.22     50.20
   6  -4  21    757.61     31.10
   6  -4  22    212.37     33.69
   6  -4  23    521.07     35.91
   6  -4  24    212.23     39.94
   6  -4  25   5075.06    143.17
   6  -3   0    331.94     21.13
   6  -3   1      0.00     15.19
   6  -3   2   6865.74     73.66
   6  -3   3  36160.08    281.23
   6  -3   4   3329.19     31.95
   6  -3   5  10036.79     53.01
   6  -3   6  26866.88    118.16
   6  -3   7  21497.05     85.98
   6  -3   8   5025.01     40.63
   6  -3   9  10428.27     56.66
   6  -3  10   9202.50     67.55
   6  -3  11   1776.82     18.73
   6  -3  12    308.90     16.78
   6  -3  13    247.48     17.33
   6  -3  14   3619.93     44.47
   6  -3  15    273.66     21.79
   6  -3  16   1018.41     24.43
   6  -3  17   4920.11     32.69
   6  -3  18   3310.91     47.07
   6  -3  19     17.33     26.67
   6  -3  20   3221.95     40.32
   6  -3  21   8375.44    176.29
   6  -3  22      0.00     33.90
   6  -3  23    236.96     40.31
   6  -3  24   1178.74     39.07
   6  -3  25   2647.57     52.03
   6  -2   0  16807.54    144.23
   6  -2   1  19314.68    129.12
   6  -2   2  100807.5    631.25
   6  -2   3   7278.31     42.51
   6  -2   4  44035.69    210.31
   6  -2   5  19544.47     77.79
   6  -2   6   2213.81     22.38
   6  -2   7   6058.18     33.99
   6  -2   8   7180.50     35.58
   6  -2   9    894.20     16.19
   6  -2  10   1800.64     27.13
   6  -2  11    343.97     16.60
   6  -2  12   5805.88     27.52
   6  -2  13    912.99     30.92
   6  -2  14   4414.90     43.85
   6  -2  15   7450.15     51.36
   6  -2  16   1450.59     29.26
   6  -2  17   8101.17     88.48
   6  -2  18     16.81     24.18
   6  -2  19     29.42     36.46
   6  -2  20   8950.44    211.81
   6  -2  21   4427.43    137.78
   6  -2  22    509.66     35.48
   6  -2  23    262.16     35.49
   6  -2  24   1476.52     40.22
   6  -1   0  20925.21    136.23
   6  -1   1  45501.00    295.64
   6  -1   2   1317.80     18.55
   6  -1   3  12844.78    108.48
   6  -1   4    273.23     13.10
   6  -1   5   3153.12     17.97
   6  -1   6   2196.62     21.79
   6  -1   7    113.63     13.98
   6  -1   8   2193.45     18.15
   6  -1   9   9721.37     48.07
   6  -1  10      2.49     16.77
   6  -1  11      6.26     17.74
   6  -1  12   1884.58     26.36
   6  -1  13   1129.95     20.84
   6  -1  14  11495.30     67.72
   6  -1  15   5957.48     52.31
   6  -1  16  15351.00    132.76
   6  -1  17   3245.42     40.34
   6  -1  18     29.08     24.37
   6  -1  19   2482.09     46.95
   6  -1  20   3288.07     49.70
   6  -1  21   1484.02     37.17
   6  -1  22    224.97     34.48
   6  -1  23    144.50     35.14
   6  -1  24    135.83     41.58
   6   0   0   2798.26     24.37
   6   0   1  37867.98    259.23
   6   0   2  24996.58    145.02
   6   0   3  13888.53     63.98
   6   0   4    326.13     13.60
   6   0   5   5076.41     21.02
   6   0   6   4921.00     38.13
   6   0   7  33333.52    156.50
   6   0   8  14820.96     66.22
   6   0   9    663.32     17.84
   6   0  10    258.95     17.85
   6   0  11   2342.82     20.86
   6   0  12   7518.42     56.12
   6   0  13  11509.11     76.06
   6   0  14  12104.42     72.71
   6   0  15    226.88     23.32
   6   0  16    498.38     29.91
   6   0  17   6084.78     72.22
   6   0  18   2741.15     39.45
   6   0  19   2515.20     38.33
   6   0  20    278.22     38.06
   6   0  21    222.25     74.60
   6   0  22    132.18     48.55
   6   0  23   1213.26     55.43
   6   1   0  11177.84     79.93
   6   1   1   3370.22     35.42
   6   1   2  15110.60    116.89
   6   1   3     89.39     13.46
   6   1   4   2381.70     17.54
   6   1   5   3344.30     19.22
   6   1   6   1938.59     20.62
   6   1   7  21673.93    152.68
   6   1   8   2359.27     19.45
   6   1   9  21847.96    107.24
   6   1  10  10271.42     65.35
   6   1  11    297.81     17.90
   6   1  12     25.01     17.87
   6   1  13   3770.91     25.13
   6   1  14    351.11     19.99
   6   1  15   2264.38     26.31
   6   1  16   9969.16     98.09
   6   1  17    356.69     23.64
   6   1  18    222.53     25.69
   6   1  19    172.01     32.07
   6   1  20   2164.38     47.57
   6   1  21   1958.12     50.95
   6   1  22    781.53     36.87
   6   1  23    585.39     37.39
   6   2   0  33835.06    216.88
   6   2   1   1365.58     20.10
   6   2   2  10748.68     67.48
   6   2   3  36302.05    208.80
   6   2   4  19735.14     75.95
   6   2   5   1107.77     16.44
   6   2   6  44584.68    212.79
   6   2   7  10277.27     38.20
   6   2   8     11.83     15.90
   6   2   9    374.58     18.19
   6   2  10   4779.32     24.83
   6   2  11    542.65     18.74
   6   2  12     83.36     18.53
   6   2  13    273.07     19.51
   6   2  14   4897.33     38.49
   6   2  15    292.94     21.03
   6   2  16   7265.12     52.43
   6   2  17   1296.25     26.03
   6   2  18   3052.19     46.26
   6   2  19    520.58     30.57
   6   2  20     25.13     29.76
   6   2  21    590.25     35.67
   6   2  22    479.33     36.16
   6   3   0    285.32     21.29
   6   3   1  37875.76    200.66
   6   3   2   8880.69     42.37
   6   3   3   5624.64     49.95
   6   3   4   5553.15     24.64
   6   3   5   5478.76     26.86
   6   3   6   1692.75     19.82
   6   3   7   1076.38     20.67
   6   3   8   3533.55     22.47
   6   3   9    218.07     18.44
   6   3  10   1356.63     21.48
   6   3  11    282.92     18.66
   6   3  12   1059.98     21.10
   6   3  13     37.11     19.50
   6   3  14   1799.63     23.79
   6   3  15   1733.38     42.56
   6   3  16  11172.91    127.25
   6   3  17   3015.49     48.33
   6   3  18   1029.37     35.80
   6   3  19   2255.69     35.54
   6   3  20   3084.10     72.65
   6   3  21    608.26     36.51
   6   4   0   3547.49     23.38
   6   4   1   7040.79     74.31
   6   4   2  12986.67     60.92
   6   4   3   2548.49     19.21
   6   4   4    373.27     17.92
   6   4   5  19837.76     82.94
   6   4   6    735.30     18.48
   6   4   7   7389.05     30.93
   6   4   8     17.25     16.87
   6   4   9   6537.89     30.93
   6   4  10    664.94     19.22
   6   4  11   1327.82     21.30
   6   4  12      0.00     22.47
   6   4  13   1954.95     25.55
   6   4  14   1625.64     25.24
   6   4  15  13224.13    118.46
   6   4  16   2477.76     51.79
   6   4  17    287.63     26.43
   6   4  18    687.37     30.84
   6   4  19   1563.46     44.85
   6   4  20    215.42     30.99
   6   5   0   2244.67     29.65
   6   5   1   1180.93     19.84
   6   5   2     81.86     15.19
   6   5   3    559.99     16.19
   6   5   4   1531.58     18.53
   6   5   5   2377.51     40.24
   6   5   6    618.63     17.63
   6   5   7   3555.26     23.46
   6   5   8   1480.35     21.64
   6   5   9    975.06     23.15
   6   5  10   5826.60     33.73
   6   5  11   4759.39     33.79
   6   5  12   4383.20     41.24
   6   5  13     34.02     21.85
   6   5  14   2165.90     25.85
   6   5  15   7440.72     77.19
   6   5  16    114.16     24.22
   6   5  17     14.96     24.98
   6   5  18    185.52     29.92
   6   5  19   2478.42     59.11
   6   6   0   1413.76     27.32
   6   6   1   1376.88     28.71
   6   6   2    437.35     17.50
   6   6   3    424.29     16.74
   6   6   4    155.27     16.49
   6   6   5  18200.97     88.59
   6   6   6  12422.22    109.75
   6   6   7    460.44     22.85
   6   6   8   9758.83     55.25
   6   6   9   1793.97     23.86
   6   6  10   1563.09     24.10
   6   6  11    101.96     19.87
   6   6  12   2906.56     47.89
   6   6  13    104.33     21.00
   6   6  14   1565.22     25.19
   6   6  15    524.89     26.88
   6   6  16   2210.87     87.44
   6   6  17    127.54     24.99
   6   7   0   1006.86     20.72
   6   7   1    677.00     18.68
   6   7   2   5251.67     56.22
   6   7   3   8381.48     59.48
   6   7   4    828.99     22.40
   6   7   5   9491.45     87.98
   6   7   6    572.60     18.74
   6   7   7   1064.21     21.82
   6   7   8    476.56     19.52
   6   7   9    541.34     21.44
   6   7  10    292.93     20.13
   6   7  11     26.78     23.66
   6   7  12    629.46     25.70
   6   7  13    450.25     22.64
   6   7  14   4448.19     77.81
   6   7  15    204.35     28.54
   6   7  16     52.20     26.24
   6   8   0   2221.17     22.26
   6   8   1    251.04     18.17
   6   8   2    179.61     17.00
   6   8   3     54.52     21.11
   6   8   4  11063.44     91.95
   6   8   5   2331.45     22.73
   6   8   6   2091.96     22.83
   6   8   7   3198.10     29.19
   6   8   8    456.52     20.18
   6   8   9    612.79     22.40
   6   8  10    428.72     21.26
   6   8  11   1597.36     32.79
   6   8  12     13.23     21.18
   6   8  13     23.08     21.92
   6   8  14   1001.66     29.17
   6   9   0    393.71     20.77
   6   9   1      2.11     18.11
   6   9   2     20.17     17.05
   6   9   3   1698.91     21.31
   6   9   4    792.40     20.94
   6   9   5    247.56     18.59
   6   9   6     29.81     23.45
   6   9   7     14.92     20.33
   6   9   8    576.61     22.49
   6   9   9    274.37     24.21
   6   9  10    154.97     22.47
   6   9  11    265.16     22.08
   6   9  12   3723.02     56.48
   6  10   0    394.73     18.19
   6  10   1    246.94     19.28
   6  10   2    108.12     19.36
   6  10   3   2459.81     27.20
   6  10   4      6.08     25.96
   6  10   5    718.25     20.63
   6  10   6     43.73     19.19
   6  10   7   4515.74     52.68
   6  10   8   1789.89     39.29
   6  10   9     62.53     20.63
   6  11   0     24.55     17.69
   6  11   1    150.84     19.17
   6  11   2    765.48     20.26
   6  11   3   1645.94     33.25
   6  11   4    304.74     19.85
   6  11   5   1672.09     29.83
   6  11   6   1858.23     44.36
   6  12   0   1594.80     25.56
   6  12   1   3284.76     32.12
   6  12   2     32.63     27.65
   7 -13  10     35.24     26.91
   7 -13  11   1318.42     36.71
   7 -13  12    819.15     40.53
   7 -13  13    204.23     32.63
   7 -13  14    723.80     47.54
   7 -13  15    215.82     25.96
   7 -13  16    438.27     28.11
   7 -12   1    485.99     58.63
   7 -12   2    216.24     21.22
   7 -12   3    579.23     32.03
   7 -12   4    132.59     24.67
   7 -12   5     68.89     11.41
   7 -12   6   1857.64     90.91
   7 -12   7     17.22     12.29
   7 -12   8      6.20     16.26
   7 -12   9     53.57     12.36
   7 -12  10    413.63     28.44
   7 -12  11   9575.79     71.10
   7 -12  12      6.65     22.08
   7 -12  13   3416.05     38.94
   7 -12  14   1526.89     96.13
   7 -12  15   1423.29     71.31
   7 -12  16     45.50     22.52
   7 -12  17   1924.12     70.90
   7 -12  18     26.59     21.51
   7 -12  19     42.15     22.37
   7 -11   0    489.19     18.50
   7 -11   1   2801.78    137.72
   7 -11   2    375.08     22.71
   7 -11   3     48.83     12.44
   7 -11   4    574.96     16.28
   7 -11   5   1091.37     41.59
   7 -11   6   3989.77    101.04
   7 -11   7   5256.70    100.71
   7 -11   8   4190.24     89.88
   7 -11   9     26.01     22.09
   7 -11  10   4659.40     91.57
   7 -11  11    145.76     15.38
   7 -11  12   1593.12     40.90
   7 -11  13   7671.15    109.17
   7 -11  14    347.06     16.94
   7 -11  15     46.29     15.44
   7 -11  16    204.72     17.46
   7 -11  17    146.33     19.18
   7 -11  18     61.93     20.62
   7 -11  19   1318.20     61.57
   7 -11  20    778.98     30.28
   7 -10   0     68.79      9.46
   7 -10   1    382.87     21.66
   7 -10   2    123.80     12.95
   7 -10   3    249.55     15.47
   7 -10   4    552.33     17.66
   7 -10   5    526.31     25.57
   7 -10   6  11128.30    135.53
   7 -10   7   6072.40    109.15
   7 -10   8   2588.23     43.91
   7 -10   9    978.97     24.30
   7 -10  10  13443.71    203.74
   7 -10  11   1008.43     29.76
   7 -10  12   1502.92     42.41
   7 -10  13    251.14     15.25
   7 -10  14   2670.33     73.51
   7 -10  15    735.89     27.17
   7 -10  16    416.28     18.00
   7 -10  17   1062.58     35.68
   7 -10  18      0.00     19.95
   7 -10  19     87.78     19.26
   7 -10  20   5462.32     75.38
   7 -10  21     11.86     20.34
   7  -9   0  21235.63    120.95
   7  -9   1      8.66     23.57
   7  -9   2    314.49     12.40
   7  -9   3   2075.96     48.67
   7  -9   4    163.21     12.12
   7  -9   5  13357.76    843.35
   7  -9   6  10032.75    119.94
   7  -9   7   2754.49     45.42
   7  -9   8   2890.28     21.38
   7  -9   9    161.63     13.17
   7  -9  10   6761.88     55.38
   7  -9  11    225.39     14.44
   7  -9  12   4591.36     50.20
   7  -9  13    518.94     16.56
   7  -9  14    275.97     17.51
   7  -9  15    413.77     17.64
   7  -9  16    571.19     18.72
   7  -9  17     10.84     20.48
   7  -9  18   4343.57    107.18
   7  -9  19     27.60     20.70
   7  -9  20   1601.56     62.30
   7  -9  21   1663.32     51.14
   7  -9  22   2032.12     76.97
   7  -8   0   6880.88    174.62
   7  -8   1   9345.78    175.51
   7  -8   2   3421.34     91.35
   7  -8   3    391.39     15.94
   7  -8   4     70.75     12.59
   7  -8   5   7214.46     54.89
   7  -8   6    244.13     14.23
   7  -8   7    101.56     12.28
   7  -8   8     48.05     12.63
   7  -8   9  14900.66    112.42
   7  -8  10  10795.40     93.19
   7  -8  11    555.21     15.81
   7  -8  12    545.38     16.28
   7  -8  13     78.58     16.74
   7  -8  14  11876.87    128.23
   7  -8  15    427.66     19.35
   7  -8  16   3629.31     75.90
   7  -8  17    114.84     21.67
   7  -8  18    945.63     23.23
   7  -8  19   8581.12     90.72
   7  -8  20    334.63     21.47
   7  -8  21     19.56     24.61
   7  -8  22   2503.26     55.37
   7  -8  23    654.79     28.46
   7  -7   0   2191.98     60.09
   7  -7   1    214.00     20.98
   7  -7   2    266.05     15.60
   7  -7   3   7731.67    115.63
   7  -7   4   2731.36     37.70
   7  -7   5    733.98     17.78
   7  -7   6   9553.50    115.61
   7  -7   7   6083.71     45.43
   7  -7   8    116.76     14.05
   7  -7   9  12166.52    153.64
   7  -7  10   1893.21     18.27
   7  -7  11   8488.02     64.28
   7  -7  12     33.52     16.81
   7  -7  13   1335.20     22.41
   7  -7  14   2793.50     33.80
   7  -7  15  11832.94    161.58
   7  -7  16   2588.87     46.90
   7  -7  17   1243.70     30.69
   7  -7  18   2095.33     36.12
   7  -7  19    420.21     22.92
   7  -7  20     69.72     21.10
   7  -7  21    236.43     28.25
   7  -7  22    359.94     27.06
   7  -7  23   6432.85    137.01
   7  -6   0   1431.46     51.06
   7  -6   1     88.58     15.42
   7  -6   2    244.72     22.57
   7  -6   3     65.88     16.45
   7  -6   4   5787.74     68.68
   7  -6   5    139.84     15.96
   7  -6   6    383.53     19.06
   7  -6   7   7213.31     75.83
   7  -6   8     16.62     13.76
   7  -6   9  64561.56    355.28
   7  -6  10    220.01     15.31
   7  -6  11    129.39     16.71
   7  -6  12     16.96     15.89
   7  -6  13  13959.78    106.87
   7  -6  14    363.41     19.45
   7  -6  15   1894.77     43.40
   7  -6  16    378.44     19.67
   7  -6  17     24.93     19.56
   7  -6  18   1740.98     24.04
   7  -6  19   6199.60    117.68
   7  -6  20    111.97     28.54
   7  -6  21   3768.79     47.10
   7  -6  22    379.55     33.74
   7  -6  23   3788.91    110.63
   7  -6  24    688.85     33.17
   7  -5   0    901.95     25.06
   7  -5   1   4395.33     87.94
   7  -5   2  35996.30    291.55
   7  -5   3     29.99     14.08
   7  -5   4      2.38     15.89
   7  -5   5   6023.44     58.52
   7  -5   6  22354.44    270.19
   7  -5   7   4566.53     33.74
   7  -5   8  28170.93    184.93
   7  -5   9    180.69     17.32
   7  -5  10    187.61     15.53
   7  -5  11   9679.80     79.46
   7  -5  12    900.28     18.30
   7  -5  13     36.99     17.26
   7  -5  14   5010.58     56.29
   7  -5  15     68.54     23.43
   7  -5  16   5161.63     59.01
   7  -5  17   2296.63     31.29
   7  -5  18    698.89     28.41
   7  -5  19     23.38     22.81
   7  -5  20    985.76     27.50
   7  -5  21   2757.93     41.00
   7  -5  22   1523.41     51.64
   7  -5  23   8854.80    178.56
   7  -5  24   2571.46     60.64
   7  -4   0   1529.19     20.96
   7  -4   1  10070.47    151.87
   7  -4   2  27160.86    347.07
   7  -4   3   5297.35     68.49
   7  -4   4  22506.59    237.97
   7  -4   5   1492.72     26.67
   7  -4   6   3107.86     20.13
   7  -4   7    948.11     15.92
   7  -4   8  50134.50    266.60
   7  -4   9   7864.31     49.96
   7  -4  10   2234.44     19.70
   7  -4  11    178.65     19.43
   7  -4  12   4626.87     24.78
   7  -4  13   7558.67     35.28
   7  -4  14   1779.16     21.81
   7  -4  15    206.28     19.46
   7  -4  16   2969.01     30.89
   7  -4  17    253.54     20.86
   7  -4  18  12487.31    137.56
   7  -4  19    424.42     23.25
   7  -4  20   7684.55    109.08
   7  -4  21     29.53     33.56
   7  -4  22   6141.72     80.95
   7  -4  23    652.35     29.69
   7  -4  24    196.56     69.07
   7  -3   0  15418.93    199.81
   7  -3   1  46721.38    482.16
   7  -3   2    376.06     19.06
   7  -3   3    529.12     17.76
   7  -3   4  15658.47    155.16
   7  -3   5   5347.65     37.99
   7  -3   6   2176.05     18.24
   7  -3   7   4111.75     27.80
   7  -3   8   8236.42     42.60
   7  -3   9     83.05     15.67
   7  -3  10  14032.00     51.87
   7  -3  11    842.27     18.27
   7  -3  12    387.29     18.24
   7  -3  13   7967.76     37.88
   7  -3  14     12.17     18.83
   7  -3  15    156.50     19.74
   7  -3  16  18883.41    151.60
   7  -3  17   1860.72     35.26
   7  -3  18   4495.11     91.98
   7  -3  19     42.93     22.14
   7  -3  20    460.80     25.29
   7  -3  21   4424.44     92.35
   7  -3  22   6663.98    155.46
   7  -3  23     80.71     28.64
   7  -3  24    257.66     36.74
   7  -2   0    300.11     19.46
   7  -2   1   6947.13     46.74
   7  -2   2    321.38     19.60
   7  -2   3   5949.32     45.68
   7  -2   4   1180.86     18.51
   7  -2   5   3776.25     21.70
   7  -2   6   3462.12     21.65
   7  -2   7  35832.57    169.60
   7  -2   8  14410.14     56.15
   7  -2   9   1893.85     22.00
   7  -2  10  19691.50     69.68
   7  -2  11   3000.06     30.00
   7  -2  12  26765.69     80.73
   7  -2  13   2223.15     24.77
   7  -2  14    870.02     20.82
   7  -2  15   3679.19     41.77
   7  -2  16    196.07     20.82
   7  -2  17   9293.96    107.20
   7  -2  18   1664.05     28.92
   7  -2  19   2535.28     27.27
   7  -2  20   3474.56     49.93
   7  -2  21    842.64     30.04
   7  -2  22   3887.77     89.61
   7  -2  23    381.33     29.63
   7  -1   0   4816.00     30.21
   7  -1   1  24620.53    244.45
   7  -1   2     70.87     19.88
   7  -1   3  25382.52    148.42
   7  -1   4     45.79     14.63
   7  -1   5  14603.19     47.95
   7  -1   6    926.77     18.98
   7  -1   7   4782.71     26.97
   7  -1   8   5396.67     36.30
   7  -1   9  33055.74    130.10
   7  -1  10   5996.68     26.45
   7  -1  11   1266.42     20.00
   7  -1  12    110.68     21.53
   7  -1  13   7870.93     51.60
   7  -1  14   4219.07     39.09
   7  -1  15   7464.04    104.92
   7  -1  16    470.08     21.75
   7  -1  17    457.35     22.68
   7  -1  18   1334.59     24.86
   7  -1  19    747.33     30.00
   7  -1  20   4716.30     52.86
   7  -1  21   7432.13     92.34
   7  -1  22     16.00     29.04
   7  -1  23     30.07     37.05
   7   0   0   4176.56     29.62
   7   0   1    338.80     21.18
   7   0   2  13519.83     88.80
   7   0   3   3136.97     22.68
   7   0   4  11321.71     63.25
   7   0   5  43474.24    201.85
   7   0   6   3283.61     21.08
   7   0   7  42006.14    169.77
   7   0   8   2304.01     21.83
   7   0   9  14129.12     54.48
   7   0  10    132.07     19.02
   7   0  11   9515.76     35.17
   7   0  12  10310.97     33.72
   7   0  13    199.54     23.19
   7   0  14     12.08     20.13
   7   0  15   1629.53     28.87
   7   0  16   3514.85     27.69
   7   0  17   1770.89     26.32
   7   0  18     25.78     22.67
   7   0  19   9434.70    116.71
   7   0  20    127.54     24.30
   7   0  21   3005.05     35.38
   7   0  22   3260.13     55.69
   7   1   0  53452.71    413.65
   7   1   1    783.59     23.92
   7   1   2  41653.08    217.63
   7   1   3   1785.77     18.28
   7   1   4  18327.77     73.48
   7   1   5     41.64     17.83
   7   1   6  11376.48     31.23
   7   1   7     61.51     16.62
   7   1   8   3394.83     36.70
   7   1   9   1577.27     20.26
   7   1  10   1800.48     21.18
   7   1  11    842.19     20.89
   7   1  12   7351.92     30.84
   7   1  13   1335.48     23.25
   7   1  14   8319.19     71.55
   7   1  15    393.44     21.96
   7   1  16   2138.77     27.63
   7   1  17     36.81     22.37
   7   1  18   1938.81     35.60
   7   1  19  15089.65    157.72
   7   1  20   1440.86     48.01
   7   1  21   2292.98     36.35
   7   1  22    200.76     30.00
   7   2   0  21163.62    170.43
   7   2   1     65.53     22.23
   7   2   2   1629.80     19.59
   7   2   3   1857.65     19.75
   7   2   4  11420.66     71.40
   7   2   5  14699.90     49.76
   7   2   6  21286.14     53.82
   7   2   7   8067.10     33.84
   7   2   8   5696.30     26.47
   7   2   9   1474.00     20.60
   7   2  10   4467.33     31.09
   7   2  11   4684.75     27.00
   7   2  12   6365.93     30.43
   7   2  13   8726.95     45.88
   7   2  14   6426.01     52.36
   7   2  15   2030.69     28.47
   7   2  16    753.56     23.74
   7   2  17   1549.37     33.18
   7   2  18   8355.45    112.86
   7   2  19    243.14     24.67
   7   2  20   2384.55     59.17
   7   2  21   1989.05     70.56
   7   3   0   5085.91     34.74
   7   3   1  15915.90    117.74
   7   3   2   6568.51     40.37
   7   3   3     61.42     16.10
   7   3   4   4590.85     33.21
   7   3   5   7502.53     34.73
   7   3   6    387.92     17.84
   7   3   7     37.51     17.52
   7   3   8   3132.70     23.41
   7   3   9    261.85     18.93
   7   3  10   1371.73     21.66
   7   3  11  19201.77     93.01
   7   3  12   4442.74     31.88
   7   3  13    580.39     21.86
   7   3  14   7088.10     50.19
   7   3  15    113.13     22.11
   7   3  16   2089.70     28.53
   7   3  17    164.16     23.73
   7   3  18   4860.83     72.14
   7   3  19   5614.72     75.43
   7   3  20    722.91     37.17
   7   4   0    751.90     30.46
   7   4   1    357.19     18.14
   7   4   2   2505.75     20.87
   7   4   3   5046.09     50.52
   7   4   4   7127.69     38.91
   7   4   5  36759.50    137.35
   7   4   6     22.30     17.62
   7   4   7   3489.28     31.23
   7   4   8  16117.71     42.80
   7   4   9     89.35     22.12
   7   4  10   4890.88     35.68
   7   4  11   7615.20     50.53
   7   4  12   4935.26     56.11
   7   4  13    679.66     29.41
   7   4  14   4013.24     41.25
   7   4  15    908.02     24.27
   7   4  16    183.76     24.92
   7   4  17    789.46     25.44
   7   4  18   2159.87     31.30
   7   4  19   1164.61     35.82
   7   5   0    160.39     19.88
   7   5   1  29996.90    128.26
   7   5   2   1744.56     20.56
   7   5   3   1729.97     20.34
   7   5   4  14498.93     58.11
   7   5   5   3777.74     24.47
   7   5   6   1701.59     22.83
   7   5   7   5633.22     30.01
   7   5   8   1785.17     22.41
   7   5   9      0.00     19.42
   7   5  10   2559.56     33.25
   7   5  11    827.12     25.94
   7   5  12   4406.42     34.18
   7   5  13   2162.87     26.26
   7   5  14    159.58     24.14
   7   5  15    953.48     25.10
   7   5  16    626.91     28.77
   7   5  17   3005.28     42.86
   7   5  18   3285.25     61.56
   7   6   0   9030.16     69.34
   7   6   1   2047.11     25.62
   7   6   2   2416.14     22.12
   7   6   3  17935.59     75.60
   7   6   4  13709.82     87.90
   7   6   5   2986.31     24.49
   7   6   6    703.10     20.23
   7   6   7   3483.29     30.02
   7   6   8   2677.56     49.41
   7   6   9   1488.62     23.07
   7   6  10   5160.46     37.74
   7   6  11    529.85     22.26
   7   6  12    249.27     22.08
   7   6  13   1625.87     49.27
   7   6  14   4378.07     56.86
   7   6  15    956.04     25.49
   7   6  16    235.87     26.03
   7   7   0  25325.73    236.29
   7   7   1    202.55     19.64
   7   7   2    223.19     18.31
   7   7   3   5317.86     38.41
   7   7   4    257.98     19.11
   7   7   5   1485.54     22.01
   7   7   6     37.26     19.03
   7   7   7    112.49     19.80
   7   7   8     22.49     20.04
   7   7   9    364.60     22.94
   7   7  10   1835.52     27.21
   7   7  11    917.75     29.35
   7   7  12   5156.92     58.13
   7   7  13    458.57     23.97
   7   7  14   4098.94     77.95
   7   8   0    429.89     19.01
   7   8   1    116.95     18.52
   7   8   2   4097.04     50.81
   7   8   3  13322.27    101.76
   7   8   4   2456.94     24.52
   7   8   5    843.37     22.83
   7   8   6   2066.00     24.44
   7   8   7    292.19     26.89
   7   8   8   6700.38     36.14
   7   8   9      6.13     21.07
   7   8  10   1762.26     28.09
   7   8  11   2233.94     44.94
   7   8  12    569.72     24.31
   7   9   0   1865.34     38.82
   7   9   1     43.50     21.80
   7   9   2    403.12     23.52
   7   9   3   4155.75     45.68
   7   9   4   3377.53     27.17
   7   9   5     30.44     28.38
   7   9   6   1514.46     24.01
   7   9   7   1360.59     33.75
   7   9   8    649.95     22.78
   7   9   9   4146.36     74.46
   7   9  10   1101.77     36.40
   7  10   0   2213.74     41.41
   7  10   1   6187.42     53.23
   7  10   2   1319.87     22.92
   7  10   3  10856.80     76.56
   7  10   4    586.53     21.91
   7  10   5    154.13     20.90
   7  10   6   1228.14     25.47
   7  10   7   2363.98     42.03
   7  11   0    143.06     20.01
   7  11   1    402.76     22.81
   7  11   2   5232.57     54.74
   7  11   3   2080.40     27.96
   7  11   4     79.80     26.89
   8 -13  10    445.15    155.10
   8 -13  11    448.68     54.65
   8 -13  12   2524.21     76.21
   8 -13  13   1781.67    168.07
   8 -13  14     41.57     25.21
   8 -13  15    490.68     35.45
   8 -12   0     62.55     27.09
   8 -12   1    185.64     36.60
   8 -12   2   1896.16     84.69
   8 -12   3    196.31     64.13
   8 -12   4      0.00     30.46
   8 -12   5   1848.45     85.18
   8 -12   6   1821.63     76.98
   8 -12   7    888.62     42.78
   8 -12   8   6240.38     53.75
   8 -12   9   2362.74    125.59
   8 -12  10    478.76     36.90
   8 -12  11    856.32     38.72
   8 -12  12    193.37     18.23
   8 -12  13    178.64     21.18
   8 -12  14    337.45     29.18
   8 -12  15   1996.59     82.74
   8 -12  16    288.98     22.04
   8 -12  17   1891.99     41.45
   8 -11   0    406.17     44.64
   8 -11   1    101.12     20.17
   8 -11   2   3675.40     80.52
   8 -11   3  11953.02    261.25
   8 -11   4   1323.52     31.01
   8 -11   5     25.50     11.01
   8 -11   6   2178.50     36.36
   8 -11   7    782.41     29.74
   8 -11   8    566.14     14.10
   8 -11   9     74.63     14.35
   8 -11  10    603.60     21.54
   8 -11  11   2502.27     73.70
   8 -11  12      4.33     15.79
   8 -11  13   2894.03     74.85
   8 -11  14    179.19     17.80
   8 -11  15     45.54     18.42
   8 -11  16   3878.54     38.88
   8 -11  17     49.25     19.53
   8 -11  18    593.57     21.30
   8 -11  19     62.06     20.55
   8 -10   0    183.28     12.03
   8 -10   1   9552.44    182.80
   8 -10   2   1652.31     40.18
   8 -10   3   1740.74     32.04
   8 -10   4     17.13     23.76
   8 -10   5    249.75     18.15
   8 -10   6   8550.04    118.05
   8 -10   7   5248.92    116.78
   8 -10   8     57.17     15.83
   8 -10   9    232.70     18.31
   8 -10  10     53.03     18.12
   8 -10  11   1111.52     19.60
   8 -10  12     34.84     15.41
   8 -10  13    712.46     24.45
   8 -10  14   4758.01    117.19
   8 -10  15      0.00     18.85
   8 -10  16     25.94     19.10
   8 -10  17   7481.81     56.79
   8 -10  18   1067.44     35.39
   8 -10  19    371.57     20.93
   8 -10  20     85.59     22.43
   8  -9   0    938.45     41.00
   8  -9   1   3866.33     48.73
   8  -9   2   6270.33     79.10
   8  -9   3    451.32     18.04
   8  -9   4   1525.24     60.61
   8  -9   5   1925.88     47.57
   8  -9   6    531.27     20.26
   8  -9   7    361.06     18.99
   8  -9   8      5.99     19.74
   8  -9   9   3181.22     69.80
   8  -9  10    140.97     15.04
   8  -9  11   4028.49     56.14
   8  -9  12   6203.97     87.95
   8  -9  13   1159.90     22.87
   8  -9  14    336.02     23.06
   8  -9  15   9457.36    145.03
   8  -9  16     28.58     21.51
   8  -9  17     67.07     19.09
   8  -9  18   2079.06     28.76
   8  -9  19    786.78     36.86
   8  -9  20    124.00     22.39
   8  -9  21     56.76     24.79
   8  -8   0   1822.63     38.04
   8  -8   1   1246.39     41.27
   8  -8   2     21.56     16.68
   8  -8   3    590.05     22.63
   8  -8   4    985.69     31.16
   8  -8   5  11505.73    142.59
   8  -8   6  12295.17    159.60
   8  -8   7     70.50     13.90
   8  -8   8    181.11     15.50
   8  -8   9   3983.03     41.61
   8  -8  10   1079.17     19.00
   8  -8  11   7254.20    103.55
   8  -8  12   8994.66     69.41
   8  -8  13   2005.14     41.03
   8  -8  14   1576.28     21.29
   8  -8  15    164.65     18.73
   8  -8  16   6234.43     97.67
   8  -8  17    141.64     19.72
   8  -8  18     75.15     20.22
   8  -8  19    363.42     23.16
   8  -8  20   1132.36     30.30
   8  -8  21    472.63     28.82
   8  -8  22   1237.19     48.70
   8  -7   0   4085.60     68.36
   8  -7   1   2624.31     61.73
   8  -7   2   1358.51     62.32
   8  -7   3    305.28     26.07
   8  -7   4   3691.06     57.44
   8  -7   5  20369.07    289.99
   8  -7   6   5670.71     88.23
   8  -7   7      0.00     15.28
   8  -7   8   6632.27     68.47
   8  -7   9      0.00     17.82
   8  -7  10   6458.29     61.64
   8  -7  11   4388.37     43.34
   8  -7  12   1879.07     20.95
   8  -7  13    166.98     17.75
   8  -7  14   2822.86     35.56
   8  -7  15   5350.88     71.64
   8  -7  16   1257.82     22.41
   8  -7  17   2572.40     66.24
   8  -7  18    873.24     26.75
   8  -7  19    174.01     21.45
   8  -7  20     47.96     25.19
   8  -7  21     92.36     31.29
   8  -7  22      6.45     26.33
   8  -6   0   3884.61    106.98
   8  -6   1   1476.27     34.61
   8  -6   2    742.30     25.90
   8  -6   3  12331.58    249.37
   8  -6   4  30123.21    276.21
   8  -6   5   5299.32     81.55
   8  -6   6   8479.53     82.43
   8  -6   7   4019.44     32.19
   8  -6   8     13.54     15.17
   8  -6   9    497.92     17.72
   8  -6  10   2625.24     26.71
   8  -6  11   1989.55     26.38
   8  -6  12   9852.70     74.54
   8  -6  13   1711.32     29.70
   8  -6  14     37.56     18.58
   8  -6  15   5994.72     70.29
   8  -6  16    627.53     21.08
   8  -6  17    548.63     23.51
   8  -6  18   1230.31     24.69
   8  -6  19    949.97     23.79
   8  -6  20   6207.96    103.26
   8  -6  21   2079.13     58.63
   8  -6  22   5173.05     95.32
   8  -6  23     62.63     27.33
   8  -5   0   4527.75     45.52
   8  -5   1  10601.64    200.56
   8  -5   2    362.38     29.43
   8  -5   3   4779.02     43.34
   8  -5   4  17639.59    198.47
   8  -5   5    200.20     18.80
   8  -5   6   2735.37     40.67
   8  -5   7   4472.35     38.41
   8  -5   8   5006.01     58.84
   8  -5   9    661.61     20.15
   8  -5  10    422.76     17.34
   8  -5  11   1385.50     20.07
   8  -5  12   4247.52     35.44
   8  -5  13     59.64     18.38
   8  -5  14  14373.46     98.00
   8  -5  15     43.80     19.61
   8  -5  16   9174.85     78.09
   8  -5  17   3164.62     48.64
   8  -5  18    141.92     21.75
   8  -5  19   1148.38     24.57
   8  -5  20    739.23     24.47
   8  -5  21   1671.12     35.80
   8  -5  22      0.00     27.80
   8  -5  23    933.80     30.83
   8  -4   0     25.93     19.60
   8  -4   1   3102.75     41.32
   8  -4   2    530.93     21.22
   8  -4   3   4277.69     29.23
   8  -4   4  27163.30    233.12
   8  -4   5   8240.77     67.12
   8  -4   6   2442.89     23.03
   8  -4   7    218.30     17.13
   8  -4   8    408.09     16.78
   8  -4   9   5584.79     58.22
   8  -4  10   3323.61     45.73
   8  -4  11   3054.81     32.64
   8  -4  12  21501.94    137.59
   8  -4  13   7192.19     51.33
   8  -4  14      0.00     19.48
   8  -4  15   8069.80     60.16
   8  -4  16     87.70     20.89
   8  -4  17    498.94     22.36
   8  -4  18    198.65     23.96
   8  -4  19   3025.04     47.16
   8  -4  20     51.71     23.19
   8  -4  21   7508.62    134.42
   8  -4  22   1284.26     34.85
   8  -4  23     37.30     32.38
   8  -3   0   2461.75     60.43
   8  -3   1   2455.37     26.69
   8  -3   2   2097.61     29.23
   8  -3   3   6728.37     90.24
   8  -3   4   1361.67     20.53
   8  -3   5    340.84     16.15
   8  -3   6   2865.87     33.12
   8  -3   7  38949.31    301.72
   8  -3   8   1261.23     20.26
   8  -3   9     16.27     16.88
   8  -3  10      0.00     18.69
   8  -3  11  10907.04     76.98
   8  -3  12    287.02     19.42
   8  -3  13  17646.59    109.24
   8  -3  14    190.50     20.21
   8  -3  15   4252.10     37.41
   8  -3  16    275.00     21.73
   8  -3  17   3065.95     41.92
   8  -3  18    106.72     22.51
   8  -3  19    110.24     23.10
   8  -3  20   1382.08     29.80
   8  -3  21    191.59     24.55
   8  -3  22    751.23     30.35
   8  -2   0  11644.28    229.71
   8  -2   1    310.52     22.05
   8  -2   2    667.60     23.41
   8  -2   3  20833.45     79.98
   8  -2   4  33857.08    206.15
   8  -2   5  12640.84    102.27
   8  -2   6   3826.69     34.25
   8  -2   7  11785.47     38.19
   8  -2   8     94.81     17.15
   8  -2   9   2009.88     21.06
   8  -2  10  14414.77     83.36
   8  -2  11  12738.98     38.80
   8  -2  12    242.05     19.70
   8  -2  13   2295.90     25.12
   8  -2  14   2859.85     25.76
   8  -2  15   1896.66     31.53
   8  -2  16    287.98     22.02
   8  -2  17     40.43     24.10
   8  -2  18   1992.11     30.51
   8  -2  19     20.85     23.38
   8  -2  20   1521.09     27.15
   8  -2  21  10994.24    170.65
   8  -2  22   1085.49     31.69
   8  -1   0   4681.26     45.21
   8  -1   1  12223.90    100.65
   8  -1   2   2956.64     63.50
   8  -1   3  14938.58     85.79
   8  -1   4    319.31     19.14
   8  -1   5   7888.04     65.34
   8  -1   6  32656.97    116.64
   8  -1   7    439.44     17.80
   8  -1   8    763.49     20.51
   8  -1   9     47.95     17.94
   8  -1  10   1606.87     22.21
   8  -1  11   3796.15     26.98
   8  -1  12   5632.67     29.65
   8  -1  13   2493.74     24.77
   8  -1  14    767.31     27.39
   8  -1  15   4959.39     30.05
   8  -1  16   5153.92     70.79
   8  -1  17     51.15     22.57
   8  -1  18   2397.44     27.85
   8  -1  19   4789.92     48.78
   8  -1  20     59.21     24.73
   8  -1  21    152.09     25.29
   8  -1  22   6068.86    128.68
   8   0   0   3179.93     30.71
   8   0   1   1357.72     27.08
   8   0   2  34425.69    229.71
   8   0   3  14435.80     52.65
   8   0   4    534.19     17.75
   8   0   5   2419.58     21.07
   8   0   6    528.43     20.74
   8   0   7   2075.29     29.99
   8   0   8   1422.91     20.50
   8   0   9   8207.22     38.14
   8   0  10  16834.75    123.19
   8   0  11     53.81     19.48
   8   0  12    580.29     21.21
   8   0  13   9031.28     43.09
   8   0  14    254.52     21.52
   8   0  15   4813.39     30.09
   8   0  16   4984.40     53.01
   8   0  17      0.00     26.45
   8   0  18    618.47     25.11
   8   0  19    851.59     26.07
   8   0  20  10244.72    117.14
   8   0  21     22.45     27.26
   8   1   0   3382.49     37.02
   8   1   1     23.59     23.99
   8   1   2   4918.59     45.92
   8   1   3    587.42     19.20
   8   1   4   4976.34     62.03
   8   1   5   8548.67     31.73
   8   1   6   7308.71     33.38
   8   1   7    160.41     19.52
   8   1   8   5059.17     26.76
   8   1   9   3581.97     30.77
   8   1  10  13359.54     56.01
   8   1  11   3913.24     29.42
   8   1  12   1106.85     24.19
   8   1  13    904.49     24.46
   8   1  14  11280.44     73.31
   8   1  15   5050.55     50.85
   8   1  16     17.26     22.61
   8   1  17    520.44     24.48
   8   1  18    127.10     24.34
   8   1  19   2666.47     36.42
   8   1  20    351.83     26.09
   8   2   0   1324.53     46.51
   8   2   1  15333.71    141.44
   8   2   2  12267.55     40.58
   8   2   3   6690.74     43.38
   8   2   4   2968.12     22.85
   8   2   5   1972.47     23.01
   8   2   6     25.49     18.16
   8   2   7  12844.82     50.28
   8   2   8  18618.85     65.96
   8   2   9   2753.42     26.13
   8   2  10  10464.35     39.60
   8   2  11   6012.19     54.70
   8   2  12   1543.10     24.11
   8   2  13    967.86     23.58
   8   2  14   1358.10     31.38
   8   2  15    618.86     23.80
   8   2  16   1189.50     27.65
   8   2  17    120.88     23.84
   8   2  18    193.87     24.86
   8   2  19   6065.04     99.59
   8   2  20    913.29     27.60
   8   3   0     76.28     25.73
   8   3   1  10130.30     45.86
   8   3   2   2174.76     41.06
   8   3   3   2101.42     29.68
   8   3   4   1545.29     21.10
   8   3   5  19404.31     62.62
   8   3   6      7.79     18.75
   8   3   7   8215.96     36.48
   8   3   8   5073.03     28.09
   8   3   9   6046.81     36.46
   8   3  10   6098.84     34.76
   8   3  11   2043.28     24.93
   8   3  12     52.26     22.90
   8   3  13   1269.26     24.57
   8   3  14     19.04     22.55
   8   3  15   1274.73     25.70
   8   3  16    257.94     24.25
   8   3  17    383.38     28.79
   8   3  18   4043.02     40.38
   8   3  19      0.00     25.25
   8   4   0  21223.34    189.18
   8   4   1   1269.22     30.26
   8   4   2  24178.96    149.98
   8   4   3   6999.43     62.07
   8   4   4      0.00     18.66
   8   4   5   3279.19     24.68
   8   4   6   1231.49     23.73
   8   4   7    597.69     20.71
   8   4   8  12231.14     38.15
   8   4   9   4143.18     35.13
   8   4  10    673.88     22.60
   8   4  11   2666.99     29.24
   8   4  12    648.17     23.27
   8   4  13   1576.95     25.59
   8   4  14    390.22     23.81
   8   4  15     88.62     23.85
   8   4  16   2713.06     33.70
   8   4  17   2803.53     54.67
   8   5   0   2125.27     28.13
   8   5   1     78.85     21.64
   8   5   2    475.17     20.73
   8   5   3    296.34     19.38
   8   5   4   6323.92     53.67
   8   5   5   1601.52     22.78
   8   5   6   4245.45     27.42
   8   5   7    263.55     20.67
   8   5   8      9.22     22.19
   8   5   9   6487.53     37.10
   8   5  10   5632.38     31.82
   8   5  11   1337.83     34.02
   8   5  12    151.65     22.62
   8   5  13    422.47     23.83
   8   5  14     44.34     25.30
   8   5  15    613.90     35.30
   8   5  16   3009.79     47.00
   8   6   0   8968.80     73.75
   8   6   1   3588.63     35.84
   8   6   2    458.33     21.46
   8   6   3   1712.94     23.67
   8   6   4   1668.72     25.90
   8   6   5    646.60     24.45
   8   6   6      0.00     20.32
   8   6   7   5804.29     41.60
   8   6   8   9870.46     66.65
   8   6   9   2451.48     26.86
   8   6  10     61.72     22.06
   8   6  11   5704.87     48.04
   8   6  12    197.67     23.38
   8   6  13    950.65     25.70
   8   6  14   1298.63     28.81
   8   7   0      0.00     22.66
   8   7   1    120.72     24.89
   8   7   2    146.33     20.08
   8   7   3   4567.73     51.22
   8   7   4     20.49     20.20
   8   7   5    270.56     21.07
   8   7   6   2987.15     64.52
   8   7   7   1709.62     28.23
   8   7   8   3140.93     36.64
   8   7   9   8954.53     55.22
   8   7  10   1750.01     26.67
   8   7  11    291.80     26.53
   8   7  12    239.63     28.46
   8   7  13     17.56     23.94
   8   8   0    706.35     21.51
   8   8   1    725.98     21.69
   8   8   2     24.56     20.31
   8   8   3   7816.27     73.48
   8   8   4    666.90     22.38
   8   8   5   2987.75     27.66
   8   8   6   7752.06     49.11
   8   8   7   2751.60     28.21
   8   8   8    199.30     22.82
   8   8   9   1081.08     33.27
   8   8  10    671.50     24.82
   8   9   0   2988.97     55.12
   8   9   1   1123.79     23.37
   8   9   2    459.95     21.97
   8   9   3     98.07     21.33
   8   9   4    288.95     23.54
   8   9   5   1395.76     25.17
   8   9   6    450.02     23.11
   8   9   7    424.31     23.61
   8   9   8   5326.17     85.74
   8  10   0   1537.31     29.11
   8  10   1     26.47     21.47
   8  10   2   1220.40     26.46
   8  10   3   1006.53     30.14
   8  10   4      0.00     23.48
   8  10   5    630.52     23.87
   8  11   0      0.00     23.20
   9 -13  11     80.89     28.10
   9 -13  12     45.00     24.50
   9 -12   0    174.38     31.85
   9 -12   1    174.79     30.12
   9 -12   2   2264.15     55.77
   9 -12   3    150.04     28.58
   9 -12   4   1119.50     56.60
   9 -12   6    289.10     16.34
   9 -12   7   1507.81     90.56
   9 -12   8     90.63     17.04
   9 -12   9   3787.39     51.87
   9 -12  10     94.33     24.77
   9 -12  11     51.16     19.85
   9 -12  12    889.83     44.15
   9 -12  13    442.37     24.78
   9 -12  14   1827.05    107.76
   9 -12  15    425.05     23.42
   9 -11   0   3347.81    114.74
   9 -11   1      1.51     14.67
   9 -11   2    177.31     18.98
   9 -11   3   1131.74     30.06
   9 -11   4   6095.64    168.20
   9 -11   5    532.72     19.66
   9 -11   6    725.44     30.19
   9 -11   7   1201.56     23.70
   9 -11   8   3921.17    104.38
   9 -11   9    247.74     16.49
   9 -11  10    139.20     18.47
   9 -11  11    205.13     16.38
   9 -11  12    689.22     20.21
   9 -11  13    737.06     25.69
   9 -11  14   5601.95     43.90
   9 -11  15    234.02     20.64
   9 -11  16   1427.70     55.58
   9 -11  17    152.30     22.19
   9 -10   0     95.63     15.18
   9 -10   1   2829.82     69.22
   9 -10   2   1076.45     35.02
   9 -10   3     69.14     18.23
   9 -10   4     72.18     16.77
   9 -10   5    459.82     19.91
   9 -10   6    431.13     19.53
   9 -10   7   1454.68     50.53
   9 -10   8   8152.92    134.11
   9 -10   9   1125.29     37.03
   9 -10  10    937.26     24.70
   9 -10  11   4593.43     37.33
   9 -10  12   1757.09     55.92
   9 -10  13    829.08     19.73
   9 -10  14   5109.18     80.61
   9 -10  15   1299.48     37.78
   9 -10  16   1509.29     39.16
   9 -10  17    995.89     24.30
   9 -10  18    326.00     21.13
   9 -10  19    492.18     23.57
   9  -9   0    289.18     17.20
   9  -9   1    258.52     19.08
   9  -9   2    858.49     33.07
   9  -9   3  11746.78     66.62
   9  -9   4    681.93     22.71
   9  -9   5    318.37     17.28
   9  -9   6  11147.19    171.95
   9  -9   7     20.15     19.30
   9  -9   8  10059.03    175.16
   9  -9   9    455.81     18.36
   9  -9  10     17.05     17.32
   9  -9  11    479.76     17.82
   9  -9  12    413.12     18.22
   9  -9  13   2985.44     66.40
   9  -9  14    411.57     20.98
   9  -9  15   2539.44     76.68
   9  -9  16   1356.16     33.73
   9  -9  17   2481.31     54.20
   9  -9  18   1873.64     27.37
   9  -9  19      9.02     23.04
   9  -9  20   1687.26     33.48
   9  -8   0    163.99     16.47
   9  -8   1  16584.13    157.35
   9  -8   2   3157.62     98.32
   9  -8   3    140.35     20.22
   9  -8   4   2267.62     54.43
   9  -8   5     37.08     17.10
   9  -8   6   6116.70     89.25
   9  -8   7  10693.31    138.33
   9  -8   8   1941.96     24.34
   9  -8   9      1.56     16.15
   9  -8  10    459.11     20.01
   9  -8  11    905.91     21.89
   9  -8  12   6371.60     89.56
   9  -8  13   5925.43     86.25
   9  -8  14    521.97     24.08
   9  -8  15   2710.79     65.41
   9  -8  16   1859.51     41.74
   9  -8  17   1165.98     33.26
   9  -8  18    329.28     25.45
   9  -8  19   1926.69     38.10
   9  -8  20   3925.37    111.18
   9  -7   0   7404.41     91.44
   9  -7   1   8392.01    216.46
   9  -7   2   2105.04     84.20
   9  -7   3  14259.18    299.44
   9  -7   4    377.45     22.26
   9  -7   5   5402.11    102.65
   9  -7   6   2838.00     28.66
   9  -7   7   6849.97    122.50
   9  -7   8    972.83     19.65
   9  -7   9    316.69     17.28
   9  -7  10    479.41     18.06
   9  -7  11      3.44     17.54
   9  -7  12   1636.43     34.99
   9  -7  13    354.09     19.56
   9  -7  14     31.92     19.37
   9  -7  15  11410.67     94.96
   9  -7  16    123.60     22.06
   9  -7  17   5786.94    106.83
   9  -7  18    267.46     23.50
   9  -7  19   3762.11     70.75
   9  -7  20     21.01     22.56
   9  -7  21   2325.12     40.01
   9  -6   0  22402.44    455.62
   9  -6   1    465.67     33.20
   9  -6   2   2351.73     38.04
   9  -6   3   1144.57     29.30
   9  -6   4   2971.85     48.15
   9  -6   5    630.28     19.63
   9  -6   6   1723.29     34.82
   9  -6   7   5734.80     81.63
   9  -6   8   1387.02     32.69
   9  -6   9    390.95     18.80
   9  -6  10   4750.54     67.00
   9  -6  11   4191.48     46.88
   9  -6  12  19566.29    191.08
   9  -6  13   2379.20     26.07
   9  -6  14    342.20     20.52
   9  -6  15   9557.87    118.95
   9  -6  16     11.73     23.82
   9  -6  17   4737.59     49.26
   9  -6  18    316.67     22.54
   9  -6  19    740.55     24.08
   9  -6  20   1963.93     29.68
   9  -6  21     21.78     25.22
   9  -5   0    335.81     22.24
   9  -5   1   7606.83     96.96
   9  -5   2  15318.90    274.19
   9  -5   3    225.05     23.11
   9  -5   4   6140.07     84.66
   9  -5   5   3489.62     46.72
   9  -5   6  12885.76    172.08
   9  -5   7    119.58     18.24
   9  -5   8   3615.73     32.52
   9  -5   9   5197.61     54.64
   9  -5  10   6355.96     65.78
   9  -5  11    318.91     20.12
   9  -5  12   1940.33     23.10
   9  -5  13    200.08     20.20
   9  -5  14  12475.45    119.77
   9  -5  15   1380.60     26.95
   9  -5  16   3460.49     67.91
   9  -5  17   1606.03     25.07
   9  -5  18   1651.99     40.68
   9  -5  19   1422.95     30.84
   9  -5  20    368.45     24.28
   9  -5  21    428.26     24.94
   9  -4   0   2402.40     49.18
   9  -4   1   2776.19     70.30
   9  -4   2   2386.09     58.92
   9  -4   3  24699.81    393.55
   9  -4   4    647.46     32.51
   9  -4   5    257.30     17.19
   9  -4   6   2228.89     23.27
   9  -4   7  11330.12    143.21
   9  -4   8   4082.26     35.93
   9  -4   9  10926.71    101.74
   9  -4  10   4618.13     30.57
   9  -4  11  15198.29    134.27
   9  -4  12   1383.82     22.42
   9  -4  13   7968.18     61.78
   9  -4  14   2851.46     32.84
   9  -4  15   1608.61     24.35
   9  -4  16   3793.34     33.65
   9  -4  17   1389.04     28.59
   9  -4  18    624.37     24.03
   9  -4  19   2377.10     28.44
   9  -4  20    658.49     25.44
   9  -4  21   2084.83     34.28
   9  -3   0    928.97     25.53
   9  -3   1  43376.49    515.55
   9  -3   2   1531.24     37.76
   9  -3   3    575.16     23.04
   9  -3   4  25282.17    201.76
   9  -3   5   1640.63     23.57
   9  -3   6   8116.30     77.97
   9  -3   7   1008.16     25.52
   9  -3   8   1495.80     28.87
   9  -3   9   1363.93     23.09
   9  -3  10    490.38     21.49
   9  -3  11    276.98     20.10
   9  -3  12    745.64     22.94
   9  -3  13   6255.95     58.50
   9  -3  14   5597.02     75.44
   9  -3  15   3695.06     28.42
   9  -3  16    302.84     22.63
   9  -3  17    622.59     25.81
   9  -3  18   7900.90     56.06
   9  -3  19      7.28     25.59
   9  -3  20    240.99     24.72
   9  -3  21    682.47     26.29
   9  -2   0   2009.57     39.39
   9  -2   1  11731.09    106.95
   9  -2   2  31883.55    201.93
   9  -2   3     48.46     22.26
   9  -2   4    419.06     19.42
   9  -2   5   2829.95     22.59
   9  -2   6   3603.88     23.98
   9  -2   7    763.26     19.56
   9  -2   8    856.51     20.40
   9  -2   9     79.37     20.39
   9  -2  10  14095.04     90.93
   9  -2  11   9886.90     43.28
   9  -2  12  10285.71     48.97
   9  -2  13   5250.78     30.01
   9  -2  14    105.73     21.71
   9  -2  15  11929.33    101.29
   9  -2  16     51.62     22.56
   9  -2  17    929.19     24.79
   9  -2  18   9508.09     95.31
   9  -2  19     22.91     24.26
   9  -2  20     64.46     24.94
   9  -2  21    182.91     25.59
   9  -1   0  12836.34    169.78
   9  -1   1   6595.23     61.87
   9  -1   2   1257.40     28.15
   9  -1   3  10502.69    167.91
   9  -1   4   6453.91     43.29
   9  -1   5   6469.41     60.18
   9  -1   6   2641.92     22.91
   9  -1   7    988.03     21.80
   9  -1   8    991.67     20.81
   9  -1   9     35.06     19.47
   9  -1  10   5070.57     38.57
   9  -1  11   2233.86     24.71
   9  -1  12    354.24     21.69
   9  -1  13  16530.31     94.61
   9  -1  14   2522.91     26.81
   9  -1  15    152.26     22.83
   9  -1  16   1917.53     26.65
   9  -1  17   5673.48     35.63
   9  -1  18    541.01     29.16
   9  -1  19     88.00     24.87
   9  -1  20    339.70     25.87
   9   0   0  10798.93     52.00
   9   0   1   7915.45     69.94
   9   0   2   9180.73     77.73
   9   0   3    833.85     23.12
   9   0   4   7319.95     66.65
   9   0   5    276.79     20.25
   9   0   6   9497.50     59.75
   9   0   7    265.75     19.67
   9   0   8    432.23     20.35
   9   0   9   2020.74     23.83
   9   0  10  30679.54     98.15
   9   0  11  12554.71     67.80
   9   0  12   2850.34     34.93
   9   0  13   2271.59     30.73
   9   0  14   2733.99     32.25
   9   0  15   5863.45     37.21
   9   0  16    116.73     23.45
   9   0  17   3332.12     30.14
   9   0  18    820.84     30.14
   9   0  19    311.45     25.53
   9   0  20    126.44     31.48
   9   1   0  11401.70     48.82
   9   1   1      4.03     26.73
   9   1   2  16621.05    104.87
   9   1   3    458.25     27.49
   9   1   4  24200.59     96.79
   9   1   5    576.86     23.24
   9   1   6   4114.59     26.29
   9   1   7   2573.91     24.25
   9   1   8   1826.40     25.17
   9   1   9   1249.01     30.63
   9   1  10    303.71     21.59
   9   1  11     16.92     22.94
   9   1  12   6922.57     36.14
   9   1  13   6274.99     33.08
   9   1  14    170.32     23.18
   9   1  15    599.70     24.59
   9   1  16    807.75     30.83
   9   1  17   1710.27     29.56
   9   1  18    577.09     26.05
   9   1  19    261.30     25.86
   9   2   0   1793.56     32.61
   9   2   1  25187.30    121.55
   9   2   2      5.92     24.93
   9   2   3  13787.87     71.01
   9   2   4   3100.65     25.66
   9   2   5  10575.08     63.64
   9   2   6    667.14     21.03
   9   2   7      8.71     21.55
   9   2   8   4935.58     30.94
   9   2   9  10874.69     37.06
   9   2  10      7.37     22.97
   9   2  11  10345.34     51.41
   9   2  12   1485.06     25.27
   9   2  13    998.10     24.70
   9   2  14   8314.97     47.48
   9   2  15     57.58     24.00
   9   2  16   5331.58     62.46
   9   2  17     16.54     24.94
   9   2  18    632.11     26.98
   9   3   0   1134.92     55.85
   9   3   1   1665.68     32.99
   9   3   2   9029.31     55.76
   9   3   3   4892.69     54.66
   9   3   4   2536.20     24.47
   9   3   5    411.10     22.25
   9   3   6    216.69     20.65
   9   3   7     88.98     26.80
   9   3   8   1550.77     24.06
   9   3   9    100.88     21.60
   9   3  10     39.87     21.95
   9   3  11   5237.05     50.06
   9   3  12   1754.64     28.29
   9   3  13   4905.14     49.73
   9   3  14   1075.19     26.04
   9   3  15    455.68     25.17
   9   3  16   2087.87     31.23
   9   3  17   1352.86     28.23
   9   4   0  13489.37    114.47
   9   4   1   1939.47     30.74
   9   4   2   6976.85     55.22
   9   4   3     25.77     21.75
   9   4   4    389.64     20.87
   9   4   5   5042.24     42.65
   9   4   6    510.18     23.45
   9   4   7   8138.26     36.96
   9   4   8   3079.46     27.25
   9   4   9   1233.51     24.48
   9   4  10   3790.41     29.54
   9   4  11   7997.00     40.99
   9   4  12    590.68     24.64
   9   4  13  13733.96    145.01
   9   4  14     36.85     25.75
   9   4  15   1168.80     27.28
   9   4  16   1853.33     31.04
   9   5   0   2038.36     30.89
   9   5   1   6624.55     71.38
   9   5   2   3452.92     51.75
   9   5   3   1658.54     25.72
   9   5   4   2295.73     25.65
   9   5   5   2359.70     25.70
   9   5   6   2811.34     26.87
   9   5   7    816.20     28.21
   9   5   8   3264.28     28.68
   9   5   9   1885.81     26.34
   9   5  10    407.67     23.64
   9   5  11   2546.71     28.64
   9   5  12   3300.86     30.50
   9   5  13    290.76     24.75
   9   5  14     82.15     26.44
   9   6   0   1217.85     27.21
   9   6   1     44.28     24.35
   9   6   2   5522.83     36.75
   9   6   3    971.60     23.12
   9   6   4   3235.66     29.46
   9   6   5   4701.51     30.48
   9   6   6  11490.11     60.01
   9   6   7    619.83     27.42
   9   6   8   2877.35     36.40
   9   6   9   2453.86     30.18
   9   6  10   3126.39     31.84
   9   6  11    543.44     26.75
   9   6  12   2039.93     40.97
   9   7   0  15318.85    250.63
   9   7   1     17.44     22.99
   9   7   2   6890.01     63.93
   9   7   3      1.70     23.03
   9   7   4     90.34     23.47
   9   7   5     11.37     22.00
   9   7   6     98.67     22.71
   9   7   7    407.34     23.67
   9   7   8     97.44     23.14
   9   7   9    708.67     25.05
   9   7  10    993.12     26.22
   9   8   0    648.11     44.12
   9   8   1   4987.33     67.52
   9   8   2    440.17     22.88
   9   8   3   1047.01     26.51
   9   8   4   3681.27     32.51
   9   8   5   1860.73     26.86
   9   8   6   4457.13     34.86
   9   8   7    305.18     23.96
   9   8   8    372.89     24.49
   9   9   0   2761.04     35.43
   9   9   1    552.31     25.53
   9   9   2    725.46     24.15
   9   9   3     34.32     22.62
   9   9   4     32.06     22.80
   9   9   5      0.00     23.29
   9  10   0   1113.34     29.91
  10 -12   0    501.83     36.60
  10 -12   1    112.07     33.47
  10 -12   2     71.47     32.44
  10 -12   3    629.76     52.80
  10 -12   4    163.19     43.42
  10 -12   5    190.97     31.51
  10 -12   6      0.00     30.35
  10 -12   7    317.19     30.70
  10 -12   8   2385.57     67.50
  10 -12   9     26.34     23.49
  10 -12  10   3680.86     58.75
  10 -12  11    246.69     36.92
  10 -12  12     62.78     23.10
  10 -11   0   4076.71    169.45
  10 -11   1   1875.38     53.83
  10 -11   2    304.40     17.33
  10 -11   3    244.29     19.45
  10 -11   4  12530.16    113.15
  10 -11   5    656.73     58.82
  10 -11   6   3590.90     76.79
  10 -11   7    624.27     18.65
  10 -11   8   1235.39     34.69
  10 -11   9    610.73     18.36
  10 -11  10    518.29     25.99
  10 -11  11   2460.10     71.62
  10 -11  12     90.44     19.41
  10 -11  13    596.46     26.35
  10 -11  14    797.58     31.98
  10 -11  15     26.06     19.35
  10 -10   0    169.17     19.62
  10 -10   1   1026.18     31.36
  10 -10   2    204.09     19.20
  10 -10   3   2636.60     92.08
  10 -10   4   2390.97     59.95
  10 -10   5   1651.60     69.82
  10 -10   6    775.48     24.82
  10 -10   7   5068.85    111.67
  10 -10   8     40.48     19.25
  10 -10   9   3920.70    109.42
  10 -10  10    101.25     18.90
  10 -10  11    255.08     19.71
  10 -10  12     30.43     19.49
  10 -10  13   1833.99     43.64
  10 -10  14   1922.64     52.26
  10 -10  15     11.89     19.53
  10 -10  16      8.13     20.16
  10 -10  17    779.24     23.04
  10  -9   0   8306.22    158.43
  10  -9   1     48.85     20.82
  10  -9   2    838.38     34.60
  10  -9   3  22047.86     99.20
  10  -9   4   1310.39     41.96
  10  -9   5   1097.46     40.01
  10  -9   6    837.15     28.17
  10  -9   7    323.62     19.98
  10  -9   8    388.02     23.13
  10  -9   9     47.48     18.45
  10  -9  10   1847.17     27.91
  10  -9  11    759.48     24.08
  10  -9  12    681.42     22.00
  10  -9  13   1212.71     22.35
  10  -9  14    161.60     19.92
  10  -9  15   4837.89     69.12
  10  -9  16     19.01     20.49
  10  -9  17   1652.30     37.48
  10  -9  18     72.46     23.47
  10  -8   0     41.76     21.41
  10  -8   1    162.22     22.01
  10  -8   2   1389.70     49.11
  10  -8   3    646.84     38.81
  10  -8   4    155.87     20.54
  10  -8   5     26.81     20.28
  10  -8   6   6750.95    115.77
  10  -8   7   1833.69     47.11
  10  -8   8   2147.30     40.96
  10  -8   9    962.26     27.37
  10  -8  10    394.41     18.98
  10  -8  11   3194.92     59.89
  10  -8  12      0.00     18.85
  10  -8  13   6582.94    115.71
  10  -8  14    402.24     20.98
  10  -8  15    827.52     22.47
  10  -8  16   3336.36     46.73
  10  -8  17   1924.97     34.21
  10  -8  18     97.79     23.30
  10  -8  19     18.55     23.99
  10  -7   0   3020.86     40.97
  10  -7   1    401.74     23.84
  10  -7   2  10278.92    268.48
  10  -7   3  10727.91     69.67
  10  -7   4    342.13     24.73
  10  -7   5   4566.83     68.97
  10  -7   6   1304.27     40.41
  10  -7   7    196.26     22.53
  10  -7   8   2420.23     29.34
  10  -7   9   7410.92    107.02
  10  -7  10     43.28     18.48
  10  -7  11    867.28     21.95
  10  -7  12   8638.75    113.84
  10  -7  13    631.50     21.50
  10  -7  14   1357.29     23.64
  10  -7  15   1815.89     38.90
  10  -7  16    466.00     22.48
  10  -7  17    267.48     24.08
  10  -7  18    473.59     25.21
  10  -7  19   1643.68     26.89
  10  -6   0     73.99     22.88
  10  -6   1   1622.62     41.72
  10  -6   2    796.44     25.91
  10  -6   3    828.94     26.66
  10  -6   4   1718.88     55.15
  10  -6   5     24.67     20.08
  10  -6   6  19205.85    271.26
  10  -6   7     38.62     20.69
  10  -6   8   3116.88     25.42
  10  -6   9   2371.67     34.15
  10  -6  10   5213.08     69.53
  10  -6  11     43.17     20.78
  10  -6  12   6293.87     72.52
  10  -6  13   1873.25     41.44
  10  -6  14    147.46     25.06
  10  -6  15    374.60     22.19
  10  -6  16     10.64     23.42
  10  -6  17   1714.54     27.95
  10  -6  18     43.74     22.84
  10  -6  19   1424.98     26.78
  10  -6  20     71.22     24.03
  10  -5   0   3178.02     75.05
  10  -5   1   7420.77    126.37
  10  -5   2   9378.87    123.93
  10  -5   3   4221.28     85.92
  10  -5   4  19112.06    261.12
  10  -5   5   5072.92     75.98
  10  -5   6   1556.08     26.45
  10  -5   7    528.15     22.29
  10  -5   8    511.40     19.70
  10  -5   9   5414.31     52.13
  10  -5  10    200.83     19.96
  10  -5  11   3606.31     33.93
  10  -5  12    110.56     20.58
  10  -5  13   2563.75     25.88
  10  -5  14   2131.92     36.78
  10  -5  15    895.34     23.61
  10  -5  16     99.10     24.09
  10  -5  17   2068.09     32.38
  10  -5  18   3809.18     41.14
  10  -5  19   1300.81     26.73
  10  -5  20   2368.71     29.31
  10  -4   0   1837.10     29.82
  10  -4   1   2099.25     55.97
  10  -4   2    704.94     26.89
  10  -4   3    154.82     40.36
  10  -4   4    157.28     23.45
  10  -4   5  16440.04    177.92
  10  -4   6   1963.53     24.90
  10  -4   7   1265.22     21.26
  10  -4   8   4391.12     59.98
  10  -4   9   1079.02     21.76
  10  -4  10   2618.51     24.94
  10  -4  11   3798.85     50.18
  10  -4  12   1825.80     25.77
  10  -4  13   1753.81     31.99
  10  -4  14    961.90     23.64
  10  -4  15   1422.15     31.86
  10  -4  16   1146.55     28.01
  10  -4  17   2399.13     28.07
  10  -4  18   5371.72     41.60
  10  -4  19    497.53     25.37
  10  -4  20    494.23     25.82
  10  -3   0   6107.59     87.56
  10  -3   1  15530.05    208.55
  10  -3   2   2024.64     49.05
  10  -3   3   3019.18     56.27
  10  -3   4    621.03     28.00
  10  -3   5    538.65     23.03
  10  -3   6   1731.51     23.38
  10  -3   7    150.35     19.50
  10  -3   8   9672.59     90.89
  10  -3   9     48.89     20.20
  10  -3  10   7966.64     60.68
  10  -3  11    529.06     21.87
  10  -3  12     23.78     29.76
  10  -3  13  11429.49    113.79
  10  -3  14    392.91     24.70
  10  -3  15   3612.34     42.03
  10  -3  16    197.03     23.69
  10  -3  17    548.88     24.79
  10  -3  18   3661.24     44.00
  10  -3  19   1897.34     28.49
  10  -2   0    187.67     26.90
  10  -2   1     48.71     42.94
  10  -2   2    349.82     27.48
  10  -2   3     56.11     21.93
  10  -2   4  13050.83     83.34
  10  -2   5   2700.82     24.14
  10  -2   6   5639.13     55.88
  10  -2   7     40.93     19.74
  10  -2   8   4417.70     62.38
  10  -2   9  11682.25    100.94
  10  -2  10   2665.39     25.85
  10  -2  11    878.00     25.35
  10  -2  12   6389.37     36.41
  10  -2  13   1801.16     25.61
  10  -2  14   1233.37     24.90
  10  -2  15    655.29     25.35
  10  -2  16   1817.82     32.23
  10  -2  17    767.07     29.99
  10  -2  18   1169.01     28.77
  10  -2  19    195.06     25.36
  10  -1   0  18568.63    117.68
  10  -1   1    264.52     28.51
  10  -1   2    181.59     27.60
  10  -1   3   3051.36     35.94
  10  -1   4     30.65     22.82
  10  -1   5    689.64     21.05
  10  -1   6   9848.25     67.03
  10  -1   7  21614.70    135.37
  10  -1   8    106.55     22.55
  10  -1   9   1632.78     27.17
  10  -1  10   1798.09     24.72
  10  -1  11   2641.25     28.37
  10  -1  12   2805.38     40.75
  10  -1  13    728.48     24.04
  10  -1  14    894.69     24.72
  10  -1  15   1156.23     25.95
  10  -1  16    311.11     28.28
  10  -1  17   3054.09     31.56
  10  -1  18   2744.23     41.37
  10  -1  19    630.51     28.78
  10   0   0   4714.29     39.34
  10   0   1   3662.43     37.50
  10   0   2   6977.20     82.60
  10   0   3    571.84     41.76
  10   0   4  11434.18     79.66
  10   0   5   3106.22     25.53
  10   0   6    135.87     20.62
  10   0   7   5233.30     35.87
  10   0   8   5160.83     29.90
  10   0   9   5992.43     31.36
  10   0  10    849.33     24.89
  10   0  11   2902.33     32.37
  10   0  12    182.64     23.00
  10   0  13     33.37     23.06
  10   0  14    281.04     24.81
  10   0  15    396.69     26.59
  10   0  16    440.74     25.43
  10   0  17   3555.23     50.67
  10   0  18     53.90     25.51
  10   1   0    883.47     51.71
  10   1   1   3882.18     40.09
  10   1   2   4855.06     45.00
  10   1   3      0.00     23.37
  10   1   4    167.99     21.98
  10   1   5   1104.54     24.77
  10   1   6   1791.98     27.06
  10   1   7   4776.09     35.89
  10   1   8   3015.75     36.30
  10   1   9   2801.01     45.86
  10   1  10   2521.07     28.82
  10   1  11   2949.24     28.15
  10   1  12    128.06     23.24
  10   1  13   3390.85     32.36
  10   1  14     52.77     23.98
  10   1  15   1403.05     31.95
  10   1  16   8403.26     81.23
  10   1  17    270.44     29.48
  10   2   0     84.38     29.57
  10   2   1   1091.44     32.97
  10   2   2   1813.23     34.19
  10   2   3   5737.89     34.84
  10   2   4   4413.91     43.41
  10   2   5    326.06     21.62
  10   2   6   3582.93     30.26
  10   2   7   1556.20     24.57
  10   2   8   3555.99     30.34
  10   2   9   6072.15     52.52
  10   2  10    100.79     22.95
  10   2  11   4145.24     30.72
  10   2  12    154.83     23.79
  10   2  13   1021.75     27.92
  10   2  14    123.94     29.31
  10   2  15   2390.56     31.97
  10   2  16   3672.05     32.52
  10   3   0     94.49     31.19
  10   3   1      9.90     26.57
  10   3   2    385.66     25.13
  10   3   3    998.79     23.22
  10   3   4     41.21     21.71
  10   3   5     42.76     21.49
  10   3   6   2584.36     28.57
  10   3   7    276.71     22.83
  10   3   8  13592.52     58.28
  10   3   9   7427.21     43.24
  10   3  10    196.10     23.73
  10   3  11   2130.55     27.85
  10   3  12    182.52     24.32
  10   3  13   1314.78     27.11
  10   3  14     23.40     24.88
  10   3  15   2228.41     31.75
  10   4   0   1535.38     35.26
  10   4   1     56.17     27.71
  10   4   2  10811.96     44.00
  10   4   3     10.09     21.73
  10   4   4   6826.25     35.14
  10   4   5      9.53     22.12
  10   4   6    317.41     24.81
  10   4   7   3452.62     31.47
  10   4   8   6679.35     64.39
  10   4   9    173.99     23.67
  10   4  10   2879.13     29.27
  10   4  11     63.91     28.11
  10   4  12    881.00     26.13
  10   4  13    103.31     25.14
  10   4  14    190.15     25.66
  10   5   0     24.49     32.07
  10   5   1    696.45     31.05
  10   5   2   7207.07     86.33
  10   5   3   2037.68     26.31
  10   5   4    926.38     24.18
  10   5   5   3669.10     29.59
  10   5   6     12.19     22.84
  10   5   7   3151.83     32.92
  10   5   8     73.56     23.64
  10   5   9   4171.44     31.94
  10   5  10    216.83     24.60
  10   5  11    226.95     24.86
  10   5  12   1053.14     27.34
  10   6   0   1965.20     33.10
  10   6   1   1997.08     36.93
  10   6   2   1078.48     24.74
  10   6   3   2310.74     28.80
  10   6   4    398.89     23.54
  10   6   5     98.43     23.23
  10   6   6   1162.90     31.83
  10   6   7   4666.43     39.90
  10   6   8     45.91     24.11
  10   6   9    766.25     25.93
  10   6  10    149.80     25.02
  10   7   0    292.12     27.06
  10   7   1   1394.37     27.53
  10   7   2    332.68     23.51
  10   7   3    421.44     23.91
  10   7   4    396.53     24.05
  10   7   5    102.45     23.65
  10   7   6    587.14     25.04
  10   7   7    444.54     27.05
  10   7   8   1782.66     28.50
  10   8   0   1242.60     39.39
  10   8   1    580.01     32.70
  10   8   2   1866.50     27.62
  10   8   3     88.76     23.90
  10   8   4   1258.96     26.98
  10   8   5   2630.79     30.13
  10   9   0     50.57     27.78
  11 -12   0    253.51     38.11
  11 -12   1    504.43     49.70
  11 -12   2   2077.48    144.45
  11 -12   3   1280.94     58.15
  11 -12   4    103.49     35.52
  11 -12   5    801.55     39.62
  11 -12   6   1665.42     61.86
  11 -12   7    360.52     25.01
  11 -12   8      9.48     20.18
  11 -11   0    518.10     79.21
  11 -11   1   2245.69     48.72
  11 -11   2    496.47     30.10
  11 -11   3   4415.19     53.01
  11 -11   4     40.32     19.36
  11 -11   5   1393.41     26.64
  11 -11   6   1183.66     38.67
  11 -11   7    285.71     20.84
  11 -11   8    101.05     17.92
  11 -11   9    343.20     20.19
  11 -11  10     39.60     19.63
  11 -11  11   2040.88     71.54
  11 -11  12    115.14     19.41
  11 -10   0   1713.03     48.05
  11 -10   1   1267.30     59.84
  11 -10   2     29.75     28.97
  11 -10   3   1367.62     85.03
  11 -10   4     37.11     23.73
  11 -10   5    507.18     25.72
  11 -10   6      0.00     19.90
  11 -10   7    338.52     21.58
  11 -10   8    149.55     21.23
  11 -10   9    364.92     22.57
  11 -10  10    124.40     19.01
  11 -10  11   2288.75     61.16
  11 -10  12    548.47     22.91
  11 -10  13      0.00     19.95
  11 -10  14    532.34     26.89
  11  -9   0   1665.81     57.06
  11  -9   1     45.14     35.21
  11  -9   2   6705.70    236.47
  11  -9   3   1787.00     56.05
  11  -9   4    267.08     34.05
  11  -9   5    179.94     25.27
  11  -9   6    183.66     20.98
  11  -9   7    699.18     22.99
  11  -9   8    469.80     22.65
  11  -9   9    829.82     27.79
  11  -9  10   1955.00     40.06
  11  -9  11   3024.66     64.89
  11  -9  12   4871.37    124.82
  11  -9  13    537.88     21.91
  11  -9  14    396.12     21.80
  11  -9  15     60.63     21.36
  11  -8   0   2991.40    151.35
  11  -8   1    929.73     64.85
  11  -8   2   2867.59     97.65
  11  -8   3     64.47     24.95
  11  -8   4   2379.65     77.27
  11  -8   5   1274.85     42.09
  11  -8   6    330.04     22.00
  11  -8   7   4082.19     89.78
  11  -8   8    787.68     24.61
  11  -8   9   3378.80     53.98
  11  -8  10    423.56     21.69
  11  -8  11      3.37     19.82
  11  -8  12    157.75     20.55
  11  -8  13    256.75     22.83
  11  -8  14   1360.81     32.25
  11  -8  15     87.28     21.79
  11  -8  16   1799.30     49.74
  11  -7   0     26.99     24.74
  11  -7   1    888.45     27.95
  11  -7   2  17738.09     90.88
  11  -7   3    432.17     31.03
  11  -7   4      4.99     25.56
  11  -7   5    109.79     26.43
  11  -7   6   3747.78     71.70
  11  -7   7   1451.86     32.01
  11  -7   8   1299.40     22.17
  11  -7   9   1709.27     23.38
  11  -7  10   3317.60     73.90
  11  -7  11    873.55     25.87
  11  -7  12   1286.56     25.62
  11  -7  13    407.06     23.72
  11  -7  14    301.60     22.21
  11  -7  15   2161.81     48.82
  11  -7  16     94.10     22.55
  11  -7  17    126.28     23.05
  11  -6   0  11907.74    293.21
  11  -6   1   9821.95    259.80
  11  -6   2    401.20     28.67
  11  -6   3    182.25     26.55
  11  -6   4    373.77     27.45
  11  -6   5   1464.61     33.89
  11  -6   6    590.81     26.37
  11  -6   7     61.99     22.28
  11  -6   8   1266.55     34.65
  11  -6   9   1637.07     44.53
  11  -6  10     10.52     21.73
  11  -6  11    109.75     21.02
  11  -6  12    465.13     22.06
  11  -6  13   2131.77     64.95
  11  -6  14    297.91     22.77
  11  -6  15    144.44     22.83
  11  -6  16   2669.90     36.30
  11  -6  17    607.46     24.86
  11  -6  18   1333.72     27.42
  11  -5   0    236.95     27.68
  11  -5   1  21579.20    318.41
  11  -5   2     89.73     35.20
  11  -5   3    177.01     27.19
  11  -5   4    255.54     27.95
  11  -5   5   1139.00     24.96
  11  -5   6    160.22     22.69
  11  -5   7     34.63     20.95
  11  -5   8    878.84     23.39
  11  -5   9   1618.09     25.24
  11  -5  10    643.13     22.33
  11  -5  11   5222.00     51.77
  11  -5  12    110.84     21.72
  11  -5  13    695.15     27.22
  11  -5  14   9789.05     92.26
  11  -5  15    287.54     23.65
  11  -5  16   1138.82     27.63
  11  -5  17      0.00     25.31
  11  -5  18    920.91     35.89
  11  -4   0    109.55     27.30
  11  -4   1   2429.28     84.62
  11  -4   2   1511.36     43.10
  11  -4   3   1043.90     30.19
  11  -4   4   2599.66     83.62
  11  -4   5   1160.02     28.19
  11  -4   6     92.19     22.94
  11  -4   7   4906.15     33.01
  11  -4   8      0.00     22.06
  11  -4   9   4356.20     32.99
  11  -4  10   4537.37     61.19
  11  -4  11    705.84     22.98
  11  -4  12     11.68     22.01
  11  -4  13    310.95     23.01
  11  -4  14    398.88     23.70
  11  -4  15   2839.38     31.22
  11  -4  16    107.81     24.11
  11  -4  17    585.92     27.65
  11  -4  18    396.60     25.45
  11  -3   0  17417.53    233.29
  11  -3   1   2137.40     52.45
  11  -3   2      0.00     32.02
  11  -3   3   1001.59     31.10
  11  -3   4   1802.60     29.93
  11  -3   5   5334.24    101.34
  11  -3   6     90.76     20.47
  11  -3   7   2634.44     29.14
  11  -3   8      8.14     20.76
  11  -3   9   5291.40     49.52
  11  -3  10   7373.20     86.82
  11  -3  11     63.66     22.22
  11  -3  12    395.50     24.72
  11  -3  13   3280.37     29.25
  11  -3  14   2554.91     40.19
  11  -3  15    112.37     23.98
  11  -3  16    283.90     24.81
  11  -3  17    980.54     30.98
  11  -2   0    973.32     64.17
  11  -2   1    757.08     31.25
  11  -2   2  12433.87     75.59
  11  -2   3  11323.20    183.66
  11  -2   4     77.96     39.17
  11  -2   5   1632.41     27.21
  11  -2   6    247.52     21.36
  11  -2   7   2868.15     28.13
  11  -2   8    522.49     22.43
  11  -2   9    745.41     24.96
  11  -2  10     33.83     22.14
  11  -2  11    594.73     25.22
  11  -2  12    243.54     23.44
  11  -2  13    153.97     23.59
  11  -2  14   2573.84     33.54
  11  -2  15     52.57     24.19
  11  -2  16    853.81     28.69
  11  -2  17     19.33     25.05
  11  -1   0  11732.43    114.04
  11  -1   1     20.15     35.43
  11  -1   2   2311.27     62.42
  11  -1   3   3943.59     42.14
  11  -1   4   4391.62     42.70
  11  -1   5    149.10     21.35
  11  -1   6   2183.34     25.43
  11  -1   7    751.15     22.94
  11  -1   8    679.26     23.07
  11  -1   9    617.32     23.27
  11  -1  10    901.90     24.24
  11  -1  11    140.81     23.23
  11  -1  12    238.02     23.85
  11  -1  13   7169.67     40.51
  11  -1  14     29.19     24.34
  11  -1  15    386.91     32.38
  11  -1  16   5587.18     45.57
  11  -1  17    831.46     27.29
  11   0   0     17.28     30.03
  11   0   1   2746.66     46.55
  11   0   2    200.44     36.05
  11   0   3   4398.23     33.53
  11   0   4     70.19     22.81
  11   0   5    336.24     22.23
  11   0   6   3281.54     27.75
  11   0   7    626.33     23.22
  11   0   8   1173.91     24.61
  11   0   9    205.27     23.08
  11   0  10    312.68     23.57
  11   0  11   4553.01     31.73
  11   0  12   2545.89     36.26
  11   0  13     22.24     24.31
  11   0  14   1439.51     27.53
  11   0  15    135.70     29.44
  11   0  16     79.25     25.73
  11   1   0    479.56     32.70
  11   1   1   1551.50     35.20
  11   1   2   1432.98     34.50
  11   1   3    648.46     32.02
  11   1   4    783.48     23.54
  11   1   5    111.50     22.14
  11   1   6   6560.38     33.41
  11   1   7    359.61     24.97
  11   1   8      3.66     26.69
  11   1   9     80.07     23.20
  11   1  10   1217.00     25.90
  11   1  11   1487.31     33.05
  11   1  12  11096.72     44.82
  11   1  13      0.00     25.64
  11   1  14     42.65     25.38
  11   1  15   1493.41     28.71
  11   2   0    374.74     32.44
  11   2   1    414.38     32.92
  11   2   2   2413.92     37.93
  11   2   3   3598.77     30.80
  11   2   4   2447.56     27.01
  11   2   5  11874.29     40.54
  11   2   6    389.12     23.76
  11   2   7    255.78     23.62
  11   2   8   1016.67     28.47
  11   2   9    382.26     24.24
  11   2  10    989.57     29.45
  11   2  11    105.98     26.15
  11   2  12    361.15     25.60
  11   2  13    580.11     26.38
  11   2  14    333.65     26.20
  11   3   0    475.18     33.99
  11   3   1    629.61     39.99
  11   3   2    664.34     30.30
  11   3   3   1097.40     25.04
  11   3   4    540.62     23.98
  11   3   5   9647.42     55.30
  11   3   6    540.53     31.88
  11   3   7     28.14     23.59
  11   3   8     88.65     23.75
  11   3   9    172.89     24.34
  11   3  10     29.16     25.96
  11   3  11   1869.43     28.50
  11   3  12   1934.67     31.01
  11   3  13     99.97     25.65
  11   4   0   4776.86     45.55
  11   4   1   3794.60     58.87
  11   4   2   1074.31     29.29
  11   4   3      5.13     23.13
  11   4   4   1168.17     25.63
  11   4   5   1771.04     28.54
  11   4   6    352.20     28.43
  11   4   7    381.97     24.65
  11   4   8     97.06     24.40
  11   4   9    790.57     30.57
  11   4  10     33.65     24.93
  11   4  11     23.21     25.44
  11   5   0    306.20     30.77
  11   5   1    430.81     28.00
  11   5   2    396.63     29.75
  11   5   3    652.54     24.97
  11   5   4   3671.10     30.83
  11   5   5    321.72     24.39
  11   5   6    355.78     24.81
  11   5   7    219.81     28.56
  11   5   8    374.85     25.58
  11   5   9    671.06     26.54
  11   6   0     16.99     51.61
  11   6   1   1754.89     39.57
  11   6   2    283.23     31.21
  11   6   3    136.04     24.29
  11   6   4   1230.85     32.40
  11   6   5    273.41     25.06
  11   6   6   3738.19     32.49
  11   6   7   2237.71     29.94
  11   7   0    766.17     30.00
  11   7   1   1172.11     33.73
  11   7   2     87.50     24.48
  11   7   3     99.19     26.55
  11   7   4   1991.46     29.13
  12 -11   1    512.60     42.58
  12 -11   2    102.29     32.85
  12 -11   3     92.53     38.35
  12 -11   4    133.04     26.05
  12 -11   5     43.82     21.45
  12 -11   6    108.86     20.27
  12 -10   0     36.61     20.82
  12 -10   1     18.66     22.69
  12 -10   2     49.51     25.41
  12 -10   3     79.48     29.16
  12 -10   4     86.49     26.29
  12 -10   5   4523.98     93.70
  12 -10   6    232.37     24.98
  12 -10   7   2180.50     62.91
  12 -10   8   1418.27     60.51
  12 -10   9   3605.28    118.79
  12 -10  10     20.46     20.08
  12  -9   0   1720.95     51.14
  12  -9   1     91.10     25.97
  12  -9   2   1975.31    128.46
  12  -9   3    472.80     28.17
  12  -9   4   1428.07    108.68
  12  -9   5   2382.24     72.24
  12  -9   6   1227.34     46.32
  12  -9   7   3575.54     88.77
  12  -9   8   2087.66     96.75
  12  -9   9     91.20     44.15
  12  -9  10    345.58     21.28
  12  -9  11   1757.91     34.28
  12  -9  12   2748.18     49.54
  12  -8   0     84.46     26.30
  12  -8   1    782.41     29.23
  12  -8   2    705.03     33.85
  12  -8   3    601.66     29.11
  12  -8   4   8471.54     69.53
  12  -8   5    105.42     28.07
  12  -8   6   2001.99     39.45
  12  -8   7     21.53     23.14
  12  -8   8    204.48     23.87
  12  -8   9   3213.71     69.62
  12  -8  10      0.00     22.19
  12  -8  11   1709.10     39.98
  12  -8  12    489.20     25.74
  12  -8  13      0.00     23.49
  12  -8  14      0.00     22.16
  12  -7   0   1121.52     53.37
  12  -7   1    123.56     26.98
  12  -7   2    181.57     27.66
  12  -7   3    328.58     33.18
  12  -7   4    845.19     30.74
  12  -7   5   2674.79     53.22
  12  -7   6   4278.34     57.92
  12  -7   7   3981.71     73.36
  12  -7   8     63.89     20.60
  12  -7   9    334.48     21.54
  12  -7  10   2101.73     55.73
  12  -7  11   1593.90     28.90
  12  -7  12   2912.85     28.36
  12  -7  13    811.49     24.00
  12  -7  14    197.26     23.08
  12  -7  15    173.66     23.49
  12  -6   0    984.79     62.98
  12  -6   1     42.95     28.06
  12  -6   2    259.81     30.97
  12  -6   3   3081.47    106.44
  12  -6   4    905.74     31.67
  12  -6   5   1762.74     49.39
  12  -6   6   1689.85     28.32
  12  -6   7    225.41     24.24
  12  -6   8   3640.01     61.39
  12  -6   9   2216.92     37.10
  12  -6  10   8431.92    116.38
  12  -6  11     67.99     23.92
  12  -6  12   1458.74     25.61
  12  -6  13    723.24     24.40
  12  -6  14   1593.72     26.68
  12  -6  15   2169.02     33.85
  12  -5   0     31.82     27.90
  12  -5   1    237.63     28.93
  12  -5   2   1059.01     34.42
  12  -5   3   2149.36     43.60
  12  -5   4    400.11     30.46
  12  -5   5  13379.37    189.79
  12  -5   6    649.34     26.06
  12  -5   7   4565.72     37.96
  12  -5   8    212.79     21.85
  12  -5   9    479.70     22.61
  12  -5  10   2015.55     31.48
  12  -5  11   5576.15     39.80
  12  -5  12    516.48     23.84
  12  -5  13     50.48     24.64
  12  -5  14     71.27     23.40
  12  -5  15    988.20     26.22
  12  -4   0   3071.54    103.81
  12  -4   1   3671.58    104.55
  12  -4   2   1767.63     34.81
  12  -4   3    307.50     35.54
  12  -4   4    140.79     30.65
  12  -4   5  10656.07    104.52
  12  -4   6   1914.46     33.91
  12  -4   7   5142.18     54.89
  12  -4   8   2293.79     33.69
  12  -4   9   2987.32     31.78
  12  -4  10   3279.20     31.35
  12  -4  11    105.78     22.95
  12  -4  12     10.55     24.54
  12  -4  13    679.54     25.01
  12  -4  14   2023.52     28.20
  12  -4  15   1055.26     36.18
  12  -3   0   4164.84     68.89
  12  -3   1    108.95     30.25
  12  -3   2     31.05     30.19
  12  -3   3   3259.59     55.06
  12  -3   4   6597.75     69.56
  12  -3   5   3652.07     53.98
  12  -3   6   3697.99     52.15
  12  -3   7     47.96     25.28
  12  -3   8    591.05     27.71
  12  -3   9   1871.07     26.39
  12  -3  10   5484.37     66.71
  12  -3  11     38.15     23.64
  12  -3  12      1.76     23.57
  12  -3  13    415.98     24.75
  12  -3  14      0.00     24.43
  12  -3  15   1256.77     27.44
  12  -2   0   4833.30    144.09
  12  -2   1   2099.11     36.64
  12  -2   2    862.55     39.05
  12  -2   3      0.00     41.56
  12  -2   4   3309.29     57.00
  12  -2   5    530.80     26.86
  12  -2   6    608.72     23.52
  12  -2   7   4028.79     36.53
  12  -2   8    346.80     23.56
  12  -2   9   8750.25     72.16
  12  -2  10     19.69     25.25
  12  -2  11   1033.57     27.78
  12  -2  12   4395.02     44.42
  12  -2  13     15.82     24.56
  12  -2  14   5322.28     58.63
  12  -2  15     75.07     27.23
  12  -1   0    921.62     34.08
  12  -1   1     16.25     31.81
  12  -1   2   2468.82     38.61
  12  -1   3   5550.79     47.46
  12  -1   4   3445.16     48.25
  12  -1   5   6522.97     67.16
  12  -1   6     69.36     23.11
  12  -1   7    434.59     23.99
  12  -1   8   6788.45    102.25
  12  -1   9    917.00     25.41
  12  -1  10   2605.51     31.55
  12  -1  11    140.27     24.63
  12  -1  12    625.18     27.66
  12  -1  13    146.29     25.24
  12  -1  14   2325.37     30.13
  12   0   0   5231.68     70.45
  12   0   1   2019.78     37.80
  12   0   2   1107.97     35.11
  12   0   3    189.06     33.22
  12   0   4   2416.15     35.07
  12   0   5   1663.51     26.26
  12   0   6    168.38     23.71
  12   0   7   2851.25     29.08
  12   0   8  17653.99    129.56
  12   0   9      0.00     23.99
  12   0  10    364.06     24.98
  12   0  11    741.45     26.30
  12   0  12   1766.06     28.68
  12   0  13    636.42     26.75
  12   1   0   3553.30     48.55
  12   1   1   8981.33    109.55
  12   1   2    188.01     34.38
  12   1   3   9664.84     55.49
  12   1   4   1681.23     31.18
  12   1   5   1171.26     25.73
  12   1   6      0.00     23.70
  12   1   7   2802.49     29.40
  12   1   8   1565.05     27.42
  12   1   9   2354.20     29.19
  12   1  10      5.49     24.66
  12   1  11    563.12     28.15
  12   1  12     52.29     25.36
  12   2   0   6297.05     53.54
  12   2   1   3920.28     43.56
  12   2   2    328.93     35.07
  12   2   3   3412.06     41.15
  12   2   4   1176.79     26.25
  12   2   5   1016.96     29.30
  12   2   6    458.10     25.16
  12   2   7   4172.15     34.66
  12   2   8   3177.62     33.01
  12   2   9   1062.29     27.29
  12   2  10     38.26     27.31
  12   2  11   3070.37     36.10
  12   3   0    851.44     37.25
  12   3   1   3096.91     48.51
  12   3   2   2956.23     39.09
  12   3   3   2999.72     34.50
  12   3   4   1218.93     28.54
  12   3   5      0.00     24.36
  12   3   6   1451.25     31.31
  12   3   7    919.93     26.87
  12   3   8   3606.77     34.88
  12   3   9    139.19     26.03
  12   3  10    144.49     26.26
  12   4   0    555.33     37.53
  12   4   1    376.53     32.22
  12   4   2    409.14     31.87
  12   4   3   1728.14     29.92
  12   4   4   2354.78     29.40
  12   4   5     30.29     24.95
  12   4   6   1104.64     27.45
  12   4   7   2354.64     30.17
  12   4   8    275.07     28.03
  12   5   0   1949.69     41.54
  12   5   1   3998.99     69.99
  12   5   2    110.94     27.10
  12   5   3   5888.30     46.78
  12   5   4    784.92     27.00
  12   5   5     98.49     25.45
  12   6   0   1693.85     41.62
  12   6   1    145.46     29.87
  12   6   2    133.71     27.72
  13  -9   0   2068.09     73.72
  13  -9   1   2334.82     93.56
  13  -9   2   1255.89     33.70
  13  -9   3   1454.97     53.25
  13  -9   4   1566.12    132.24
  13  -9   5     88.86     29.54
  13  -9   6    204.50     24.47
  13  -9   7    172.22     24.85
  13  -8   0    189.05     34.84
  13  -8   1     54.11     28.89
  13  -8   2    635.20     41.67
  13  -8   3   2301.88     61.64
  13  -8   4    115.77     29.72
  13  -8   5    521.41     31.81
  13  -8   6     97.75     27.31
  13  -8   7      0.00     24.65
  13  -8   8    220.28     25.64
  13  -8   9    721.82     25.07
  13  -8  10     81.64     23.84
  13  -7   0    232.54     30.00
  13  -7   1   2946.21     46.65
  13  -7   2    114.25     29.95
  13  -7   3   5840.53     69.81
  13  -7   4     46.13     30.08
  13  -7   5   1680.82     45.38
  13  -7   6    568.78     26.39
  13  -7   7   4128.40     85.48
  13  -7   8    228.56     24.29
  13  -7   9    424.26     27.18
  13  -7  10   5013.74    104.60
  13  -7  11   4238.86     64.09
  13  -6   0    572.35     36.82
  13  -6   1   2731.05     44.31
  13  -6   2    320.65     31.45
  13  -6   3   3913.62     87.24
  13  -6   4     29.75     30.55
  13  -6   5     41.34     30.95
  13  -6   6     47.44     25.27
  13  -6   7   1359.44     27.61
  13  -6   8   1668.27     34.52
  13  -6   9     85.37     22.70
  13  -6  10    399.92     23.86
  13  -6  11    238.41     23.60
  13  -6  12   1907.59     27.98
  13  -5   0    279.76     31.07
  13  -5   1   3214.88     40.28
  13  -5   2  14570.60    181.43
  13  -5   3     52.97     31.74
  13  -5   4    717.59     38.08
  13  -5   5     60.11     31.59
  13  -5   6    432.08     26.72
  13  -5   7   1524.17     31.05
  13  -5   8     22.76     22.86
  13  -5   9   3031.17     44.27
  13  -5  10   6015.43     79.23
  13  -5  11    687.99     25.05
  13  -5  12    686.24     25.35
  13  -4   0    742.01     33.55
  13  -4   1   1302.38     35.22
  13  -4   2   4724.36    101.29
  13  -4   3      0.00     36.99
  13  -4   4     82.77     59.97
  13  -4   5     30.68     33.04
  13  -4   6    843.32     35.39
  13  -4   7    312.86     25.45
  13  -4   8    128.08     23.61
  13  -4   9    564.20     24.66
  13  -4  10     40.14     25.32
  13  -4  11     71.76     24.30
  13  -4  12   2902.83     53.12
  13  -3   0   1142.24     35.34
  13  -3   1   3559.08     49.97
  13  -3   2   3016.29     69.82
  13  -3   3   1763.91     37.51
  13  -3   4    404.34     37.98
  13  -3   5     10.28     26.54
  13  -3   6   2512.34     33.81
  13  -3   7    931.60     25.52
  13  -3   8   7815.26     97.73
  13  -3   9   1371.65     28.67
  13  -3  10   6488.96     60.76
  13  -3  11   2561.54     35.06
  13  -3  12      0.00     24.85
  13  -2   0   1351.19     36.87
  13  -2   1   6113.54     61.58
  13  -2   2     43.77     33.29
  13  -2   3    866.67     41.17
  13  -2   4    737.94     35.53
  13  -2   5    126.97     27.57
  13  -2   6    729.34     25.30
  13  -2   7    743.58     29.68
  13  -2   8   1435.12     29.22
  13  -2   9    426.40     25.47
  13  -2  10    415.05     25.46
  13  -2  11   4538.64     35.69
  13  -2  12    145.45     27.25
  13  -1   0    675.76     35.53
  13  -1   1   2644.09     40.90
  13  -1   2    292.52     34.90
  13  -1   3   7177.98     61.86
  13  -1   4   3119.05     42.84
  13  -1   5   5589.70     54.46
  13  -1   6    632.98     25.41
  13  -1   7   2325.27     31.36
  13  -1   8   6022.39     39.22
  13  -1   9   2322.65     29.48
  13  -1  10     45.42     28.66
  13  -1  11    553.54     26.58
  13   0   0   2106.75     40.23
  13   0   1   1658.44     38.81
  13   0   2    199.47     34.61
  13   0   3    399.00     35.55
  13   0   4    202.18     31.51
  13   0   5   1066.32     30.25
  13   0   6    425.05     25.47
  13   0   7   1489.13     27.94
  13   0   8      7.48     25.13
  13   0   9     24.30     25.36
  13   0  10   1440.63     28.60
  13   1   0   3687.24     48.30
  13   1   1    176.84     35.40
  13   1   2   2096.31     50.55
  13   1   3      0.00     35.24
  13   1   4    194.15     25.21
  13   1   5   3565.07     31.72
  13   1   6    836.03     27.02
  13   1   7   7523.54     43.65
  13   1   8   2137.30     34.57
  13   1   9     28.69     25.94
  13   2   0   1976.49     41.11
  13   2   1    192.97     53.94
  13   2   2    179.83     36.01
  13   2   3     97.78     47.71
  13   2   4   1144.81     27.44
  13   2   5    449.43     26.15
  13   2   6    296.60     28.12
  13   2   7   1450.57     28.75
  13   3   0    313.17     37.22
  13   3   1    204.23     40.92
  13   3   2    470.06     42.78
  13   3   3    170.02     27.52
  13   3   4    486.45     26.64
  13   3   5   1752.48     29.81
  13   4   0    295.07     38.55
  13   4   1    575.54     38.94
  13   4   2    480.07     31.10
  13   4   3    163.98     36.12
  14  -7   0   4160.65    120.30
  14  -7   1    348.17     33.10
  14  -7   2    727.17     34.46
  14  -7   3     90.47     32.13
  14  -7   4   3478.19     73.29
  14  -7   5    614.66     34.24
  14  -6   0   2302.38     65.87
  14  -6   1     79.45     36.50
  14  -6   2    162.47     32.18
  14  -6   3    566.01     34.25
  14  -6   4    967.36     42.31
  14  -6   5   1778.77     70.85
  14  -6   6   1848.96     38.58
  14  -6   7      0.00     27.14
  14  -5   0   1039.74     51.84
  14  -5   1    449.45     33.97
  14  -5   2    525.03     34.47
  14  -5   3   1949.51     38.93
  14  -5   4     38.18     33.20
  14  -5   5      0.00     39.48
  14  -5   6      0.00     27.11
  14  -5   7     65.27     27.72
  14  -5   8     23.83     24.35
  14  -4   0    514.56     35.33
  14  -4   1    546.26     39.66
  14  -4   2    175.12     33.66
  14  -4   3    412.24     42.70
  14  -4   4   5465.31    130.37
  14  -4   5    191.79     35.01
  14  -4   6   2500.71     39.26
  14  -4   7   3562.25     41.30
  14  -4   8     57.87     24.68
  14  -3   0     71.77     34.52
  14  -3   1   2976.01     57.82
  14  -3   2    381.06     52.38
  14  -3   3    788.82     36.78
  14  -3   4    377.93     35.82
  14  -3   5    889.70     37.73
  14  -3   6    729.78     30.34
  14  -3   7   1116.21     27.21
  14  -3   8   4733.24     60.28
  14  -2   0   4547.27     64.55
  14  -2   1    504.73     41.72
  14  -2   2   1139.60     40.56
  14  -2   3   2729.35     42.89
  14  -2   4   2176.37     36.76
  14  -2   5    723.48     28.30
  14  -2   6    584.14     26.19
  14  -2   7    663.81     28.49
  14  -1   0   4349.18     74.55
  14  -1   1     85.66     36.26
  14  -1   2   1433.78     39.66
  14  -1   3    457.62     36.90
  14  -1   4    210.24     32.19
  14  -1   5      0.00     29.15
  14  -1   6     47.83     26.98
  14  -1   7   1380.52     30.82
  14   0   0    588.87     37.94
  14   0   1      6.52     36.63
  14   0   2   2516.29     43.67
  14   0   3   3641.93     68.25
  14   0   4    494.18     30.78
  14   0   5    368.49     30.24
  14   1   0    422.87     37.94
  14   1   1   1186.21     40.38
  14   1   2    206.90     42.90
  14   1   3    271.73     37.74
  14   1   4    762.27     32.17
  14   2   0    472.96     42.22
  14   2   1     88.19     38.51
}
}
REVERT
;
loop_
_symmetry_equiv_pos_as_xyz
'+x, +y, +z'
'-x, -y, -z'
loop_
_atom_site_label
_atom_site_fract_x
_atom_site_fract_y
_atom_site_fract_z
_atom_site_U_iso_or_equiv
_atom_site_adp_type
_atom_site_occupancy
_atom_site_disorder_group
Na1 0.753573(12) 0.537638(12) 0.428102(6) 0.00683(2) Uani 1 0
C2 0.71443(2) 0.28279(3) 0.077880(13) 0.00712(4) Uani 1 0
C3 0.66008(2) 0.23403(3) -0.044091(13) 0.00712(4) Uani 1 0
C4 0.80849(2) 0.19096(2) -0.150441(12) 0.00587(4) Uani 1 0
O4 0.710640(19) 0.14350(2) -0.256200(10) 0.00776(4) Uani 1 0
O2 1.023469(18) 0.20434(2) -0.131196(10) 0.00743(4) Uani 1 0
O1 1.125306(18) 0.28599(2) 0.089692(10) 0.00757(4) Uani 1 0
O3 0.94773(2) 0.36149(2) 0.260903(10) 0.00795(4) Uani 1 0
O6 0.37262(2) 0.32878(2) 0.369737(11) 0.00843(4) Uani 1 0
O7 0.85552(2) 0.25050(2) 0.515454(11) 0.00825(4) Uani 1 0
O5 0.72349(2) 0.83942(2) 0.338756(11) 0.00809(4) Uani 1 0
C1 0.94037(2) 0.31164(2) 0.147714(12) 0.00592(4) Uani 1 0
H3 0.4825(6) 0.2239(7) -0.0732(3) 0.02263232 Uani 1 0
H2 0.5760(6) 0.3087(7) 0.1399(3) 0.02150602 Uani 1 0
H6 0.2441(8) 0.3607(8) 0.3274(4) 0.02315575 Uani 1 0
H7 0.3596(9) 0.1674(7) 0.3381(5) 0.0247466 Uani 1 0
H9 0.8161(9) 0.2179(8) 0.5930(4) 0.0231818 Uani 1 0
H8 0.8217(9) 0.1067(8) 0.4547(4) 0.0219293 Uani 1 0
H4 0.5713(8) 0.8395(8) 0.3029(4) 0.0209782 Uani 1 0
H5 0.8255(8) 0.8343(8) 0.2729(4) 0.021659 Uani 1 0
H1 1.0846(9) 0.2465(9) -0.0102(5) 0.0173841 Uani 1 0
loop_
_atom_site_aniso_label
_atom_site_aniso_U_11
_atom_site_aniso_U_22
_atom_site_aniso_U_33
_atom_site_aniso_U_23
_atom_site_aniso_U_13
_atom_site_aniso_U_12
Na1 0.00718(2) 0.00687(2) 0.00631(2) 0.001735(18) 0.000742(17) 0.000784(18)
C2 0.00601(4) 0.00967(5) 0.00522(4) 0.00132(3) 0.00075(3) 0.00090(3)
C3 0.00584(4) 0.00962(5) 0.00536(4) 0.00136(3) 0.00044(3) 0.00064(3)
C4 0.00600(4) 0.00628(4) 0.00486(4) 0.00109(3) 0.00040(3) 0.00025(3)
O4 0.00796(3) 0.00943(4) 0.00521(3) 0.00105(3) -0.00025(2) 0.00090(3)
O2 0.00618(3) 0.01021(4) 0.00557(3) 0.00151(3) 0.00085(2) 0.00121(3)
O1 0.00628(3) 0.01050(4) 0.00579(4) 0.00176(3) 0.00069(2) 0.00151(3)
O3 0.00851(3) 0.01043(4) 0.00468(3) 0.00113(3) 0.00057(2) 0.00213(3)
O6 0.00822(3) 0.00818(4) 0.00801(4) 0.00085(3) -0.00035(3) 0.00090(3)
O7 0.00932(4) 0.00754(4) 0.00765(4) 0.00222(3) 0.00026(3) 0.00042(3)
O5 0.00855(3) 0.00856(4) 0.00732(4) 0.00224(3) 0.00084(3) 0.00161(3)
C1 0.00631(4) 0.00648(4) 0.00470(4) 0.00113(3) 0.00047(3) 0.00072(3)
H3 0.0109 0.0376 0.0191 0.0063 -0.001 0.005
H2 0.0144 0.0345 0.016 0.0044 0.0058 0.0075
H6 0.0208 0.0264 0.024 0.0074 -0.0054 0.0085
H7 0.031 0.0116 0.0298 0.0008 -0.0001 0.0054
H9 0.0298 0.0251 0.0157 0.0088 0.0054 0.002
H8 0.0276 0.0153 0.0193 -0.0013 0.0002 0.0023
H4 0.0131 0.0285 0.022 0.0073 -0.0023 0.0047
H5 0.0188 0.0297 0.0181 0.0075 0.0077 0.0057
H1 0.0157 0.0214 0.0157 0.0047 0.0034 0.0047
loop_
_atom_type_symbol
_atom_type_description
_atom_type_scat_dispersion_real
_atom_type_scat_dispersion_imag
_atom_type_scat_source
C C 0 0 'Hirshfeld partitioning of a quantum chemical wavefunction.'
H H 0 0 'Hirshfeld partitioning of a quantum chemical wavefunction.'
Na Na 0 0 'Hirshfeld partitioning of a quantum chemical wavefunction.'
O O 0 0 'Hirshfeld partitioning of a quantum chemical wavefunction.'
loop_
_geom_angle_atom_site_label_1
_geom_angle_atom_site_label_2
_geom_angle_atom_site_label_3
_geom_angle
_geom_angle_site_symmetry_1
_geom_angle_site_symmetry_2
_geom_angle_site_symmetry_3
_geom_angle_publ_flag
Na1 O3 C1 141.722(10) . . . yes
Na1 O6 H6 131.2(3) . . . yes
Na1 O6 H7 116.1(3) . . . yes
Na1 O7 H9 128.6(3) . . . yes
Na1 O7 H8 109.8(3) . . . yes
Na1 O5 H4 115.9(3) . . . yes
Na1 O5 H5 108.3(3) . . . yes
O3 Na1 O6 99.662(5) . . . yes
O3 Na1 O7 82.403(5) . . . yes
O3 Na1 O5 92.042(5) . . . yes
O6 Na1 O7 91.234(5) . . . yes
O6 Na1 O5 98.094(5) . . . yes
O7 Na1 O5 169.848(5) . . . yes
O4 C4 O2 122.901(14) . . . yes
O1 C1 O3 120.918(12) . . . yes
O4 C4 C3 116.927(12) . . . yes
O2 C4 C3 120.171(12) . . . yes
O1 C1 C2 120.557(12) . . . yes
O3 C1 C2 118.524(13) . . . yes
C1 O1 H1 110.0(3) . . . yes
C2 C3 C4 130.360(13) . . . yes
C3 C2 C1 130.540(13) . . . yes
C2 C3 H3 117.1(2) . . . yes
C3 C2 H2 117.84(19) . . . yes
C4 C3 H3 112.6(2) . . . yes
C1 C2 H2 111.62(19) . . . yes
H6 O6 H7 102.9(4) . . . yes
H9 O7 H8 105.4(4) . . . yes
H4 O5 H5 106.5(4) . . . yes
loop_
_geom_bond_atom_site_label_1
_geom_bond_atom_site_label_2
_geom_bond_distance
_geom_bond_site_symmetry_1
_geom_bond_site_symmetry_2
_geom_bond_publ_flag
Na1 O3 2.36645(14) . . yes
Na1 O6 2.39367(13) . . yes
Na1 O7 2.39412(14) . . yes
Na1 O5 2.36863(14) . . yes
O4 C4 1.25162(16) . . yes
O2 C4 1.27092(17) . . yes
O1 C1 1.30210(18) . . yes
O3 C1 1.22969(17) . . yes
O1 H1 1.099(5) . . yes
O6 H6 0.961(4) . . yes
O6 H7 0.974(4) . . yes
O7 H9 0.966(4) . . yes
O7 H8 0.974(4) . . yes
O5 H4 0.978(4) . . yes
O5 H5 0.964(4) . . yes
C2 C3 1.34544(19) . . yes
C2 C1 1.49378(19) . . yes
C3 C4 1.4993(2) . . yes
C2 H2 1.097(4) . . yes
C3 H3 1.080(3) . . yes
