#------------------------------------------------------------------------------
#$Date: 2020-04-21 02:34:28 +0300 (Tue, 21 Apr 2020) $
#$Revision: 250962 $
#$URL: file:///home/coder/svn-repositories/cod/cif/7/24/03/7240344.cif $
#------------------------------------------------------------------------------
#
# This file is available in the Crystallography Open Database (COD),
# http://www.crystallography.net/
#
# All data on this site have been placed in the public domain by the
# contributors.
#
data_7240344
loop_
_publ_author_name
'Tu, Jing'
'Chen, Hongjuan'
'Tian, Hongju'
'Yu, Xiangyong'
'Zheng, Baishu'
'Zhang, Shaowei'
'Ma, Pengtao'
_publ_section_title
;
 Temperature-Induced Structural Transformations Accompanied by Changes in
 Magnetic Properties of Two Copper Coordination Polymers
;
_journal_name_full               CrystEngComm
_journal_paper_doi               10.1039/D0CE00391C
_journal_year                    2020
_chemical_formula_moiety         'C12 H13 Cu2 N O11'
_chemical_formula_sum            'C12 H13 Cu2 N O11'
_chemical_formula_weight         474.31
_space_group_crystal_system      triclinic
_space_group_IT_number           2
_space_group_name_Hall           '-P 1'
_space_group_name_H-M_alt        'P -1'
_atom_sites_solution_hydrogens   mixed
_audit_creation_date             2019-09-06
_audit_creation_method
;
Olex2 1.2
(compiled 2018.05.29 svn.r3508 for OlexSys, GUI svn.r5506)
;
_audit_update_record
;
2019-10-07 deposited with the CCDC.	2020-04-20 downloaded from the CCDC.
;
_cell_angle_alpha                73.946(2)
_cell_angle_beta                 89.605(2)
_cell_angle_gamma                87.875(2)
_cell_formula_units_Z            2
_cell_length_a                   7.5140(4)
_cell_length_b                   9.0832(5)
_cell_length_c                   11.5882(7)
_cell_measurement_reflns_used    943
_cell_measurement_temperature    296(2)
_cell_measurement_theta_max      27.45
_cell_measurement_theta_min      3.27
_cell_volume                     759.54(7)
_computing_cell_refinement       'SAINT v8.37A (Bruker, 2015)'
_computing_data_reduction        'SAINT v8.37A (Bruker, 2015)'
_computing_molecular_graphics    'Olex2 (Dolomanov et al., 2009)'
_computing_publication_material  'Olex2 (Dolomanov et al., 2009)'
_computing_structure_refinement  'ShelXL (Sheldrick, 2015)'
_computing_structure_solution    'ShelXT (Sheldrick, 2015)'
_diffrn_ambient_temperature      296.15
_diffrn_measured_fraction_theta_full 0.983
_diffrn_measured_fraction_theta_max 0.983
_diffrn_measurement_device_type  'Bruker APEX-II CCD'
_diffrn_measurement_method       '\f and \w scans'
_diffrn_radiation_type           MoK\a
_diffrn_radiation_wavelength     0.71073
_diffrn_reflns_av_R_equivalents  0.0355
_diffrn_reflns_av_unetI/netI     0.0501
_diffrn_reflns_Laue_measured_fraction_full 0.983
_diffrn_reflns_Laue_measured_fraction_max 0.983
_diffrn_reflns_limit_h_max       5
_diffrn_reflns_limit_h_min       -8
_diffrn_reflns_limit_k_max       7
_diffrn_reflns_limit_k_min       -10
_diffrn_reflns_limit_l_max       13
_diffrn_reflns_limit_l_min       -13
_diffrn_reflns_number            5698
_diffrn_reflns_point_group_measured_fraction_full 0.983
_diffrn_reflns_point_group_measured_fraction_max 0.983
_diffrn_reflns_theta_full        25.008
_diffrn_reflns_theta_max         25.008
_diffrn_reflns_theta_min         1.829
_diffrn_standards_number         0
_exptl_absorpt_coefficient_mu    2.866
_exptl_absorpt_correction_T_max  0.7456
_exptl_absorpt_correction_T_min  0.6623
_exptl_absorpt_correction_type   multi-scan
_exptl_absorpt_process_details
;
SADABS-2016/2 (Bruker,2016/2) was used for absorption correction.
wR2(int) was 0.0544 before and 0.0427 after correction.
The Ratio of minimum to maximum transmission is 0.8883.
The \l/2 correction factor is Not present.
;
_exptl_crystal_colour            Green
_exptl_crystal_density_diffrn    2.074
_exptl_crystal_description       Sheet
_exptl_crystal_F_000             476
_exptl_crystal_size_max          0.28
_exptl_crystal_size_mid          0.12
_exptl_crystal_size_min          0.06
_exptl_transmission_factor_max   0.7456
_exptl_transmission_factor_min   0.6623
_refine_diff_density_max         0.565
_refine_diff_density_min         -0.529
_refine_diff_density_rms         0.104
_refine_ls_extinction_method     none
_refine_ls_goodness_of_fit_ref   1.044
_refine_ls_hydrogen_treatment    constr
_refine_ls_matrix_type           full
_refine_ls_number_parameters     238
_refine_ls_number_reflns         2630
_refine_ls_number_restraints     1
_refine_ls_restrained_S_all      1.045
_refine_ls_R_factor_all          0.0506
_refine_ls_R_factor_gt           0.0374
_refine_ls_shift/su_max          0.001
_refine_ls_shift/su_mean         0.000
_refine_ls_structure_factor_coef Fsqd
_refine_ls_weighting_details
'w=1/[\s^2^(Fo^2^)+(0.0411P)^2^+0.6534P] where P=(Fo^2^+2Fc^2^)/3'
_refine_ls_weighting_scheme      calc
_refine_ls_wR_factor_gt          0.0844
_refine_ls_wR_factor_ref         0.0929
_reflns_Friedel_coverage         0.000
_reflns_number_gt                2080
_reflns_number_total             2630
_reflns_threshold_expression     'I > 2\s(I)'
_cod_data_source_file            d0ce00391c2.cif
_cod_data_source_block           z20180412a_0m
_cod_depositor_comments
;
The following automatic conversions were performed:

data item '_exptl_absorpt_correction_type' value 'Multi-scan' was
changed to 'multi-scan' in accordance with the
/home/data/users/saulius/crontab/automatic-downloads/rss-feeds/RSC/lib/dictionaries/cif_core.dic
dictionary named 'cif_core.dic' version 2.4.2 last updated on
2011-04-26.

Automatic conversion script
Id: cif_fix_values 7556 2019-12-06 15:28:31Z antanas 
;
_cod_database_code               7240344
_shelx_shelxl_version_number     2018/3
_shelx_space_group_comment
;
The symmetry employed for this shelxl refinement is uniquely defined
by the following loop, which should always be used as a source of
symmetry information in preference to the above space-group names.
They are only intended as comments.
;
_shelx_estimated_absorpt_t_max   0.847
_shelx_estimated_absorpt_t_min   0.501
_olex2_refinement_description
;
1. Fixed Uiso
 At 1.2 times of:
  All C(H) groups, All C(H,H) groups
 At 1.5 times of:
  All O(H,H) groups
2. Rigid bond restraints
 Cu1, O9
 with sigma for 1-2 distances of 0.002 and sigma for 1-3 distances of 0.002
3.a Rotating group:
 O9(H9A,H9B), O10(H10A,H10B), O11(H11A,H11B)
3.b Secondary CH2 refined with riding coordinates:
 C2(H2A,H2B), C3(H3A,H3B)
3.c Aromatic/amide H refined with riding coordinates:
 C8(H8), C10(H10), C12(H12)
;
_shelx_res_file
;
TITL z20180412a_0m_a.res in P-1
    z20180412a_0m.res
    created by SHELXL-2018/3 at 21:39:05 on 06-Sep-2019
REM Old TITL Z20180412A_0m in P-1
REM SHELXT solution in P-1
REM R1 0.131, Rweak 0.004, Alpha 0.057, Orientation as input
REM Formula found by SHELXT: C12 N6 O6 Cu2
CELL 0.71073 7.514 9.0832 11.5882 73.946 89.605 87.875
ZERR 2 0.0004 0.0005 0.0007 0.002 0.002 0.002
LATT 1
SFAC C H Cu N O
UNIT 24 26 4 2 22
EQIV $1 1-X,1-Y,1-Z
DELU 0.002 0.002 Cu1 O9

L.S. 4 0 0
PLAN  5
SIZE 0.28 0.12 0.06
TEMP 23
FREE Cu2 H9a_$1
HTAB
BOND $H
list 4
fmap 2 53
acta
OMIT -3 50.02
REM <olex2.extras>
REM <HklSrc "%.\\Z20180412A_0m.hkl">
REM </olex2.extras>

WGHT    0.041100    0.653400
FVAR       0.46879
CU1   3    0.659163    0.613879    0.219658    11.00000    0.01687    0.02495 =
         0.01699   -0.01264    0.00260   -0.00491
CU2   3    0.025329    0.164789    0.766837    11.00000    0.02643    0.02723 =
         0.02233   -0.01563    0.01076   -0.01354
O1    5    0.918579    0.619689    0.250252    11.00000    0.01899    0.01907 =
         0.02126   -0.00711   -0.00021   -0.00465
O2    5    1.137511    0.532283    0.382224    11.00000    0.01981    0.04358 =
         0.02911   -0.01534   -0.00114   -0.01177
O3    5    0.687610    0.562528    0.068893    11.00000    0.02830    0.03021 =
         0.01842   -0.01214   -0.00283    0.00208
O4    5    0.807413    0.417521   -0.038238    11.00000    0.03147    0.04822 =
         0.01990   -0.02324    0.00185   -0.00109
O5    5    0.348531    0.005406    0.140246    11.00000    0.02650    0.03844 =
         0.02427   -0.02115    0.00852   -0.01313
O6    5    0.119588   -0.008970    0.266703    11.00000    0.02514    0.03956 =
         0.03203   -0.02526    0.01388   -0.01958
O7    5    0.171692    0.156248    0.630980    11.00000    0.02690    0.03497 =
         0.02421   -0.01863    0.01521   -0.01784
O8    5    0.389118    0.318362    0.638561    11.00000    0.02324    0.03915 =
         0.02219   -0.02066    0.00966   -0.01633
O9    5    0.690450    0.878673    0.115764    11.00000    0.02945    0.03206 =
         0.02829   -0.00822    0.00381    0.00153
AFIX   7
H9A   2    0.776078    0.917234    0.147246    11.00000   -1.50000
H9B   2    0.592129    0.930593    0.120432    11.00000   -1.50000
AFIX   0
O10   5    0.404741    0.590454    0.213718    11.00000    0.01907    0.07707 =
         0.02583   -0.02807    0.00038   -0.00592
AFIX   7
H10A  2    0.368729    0.622316    0.141329    11.00000   -1.50000
H10B  2    0.352592    0.642815    0.255336    11.00000   -1.50000
AFIX   0
O11   5   -0.089428    0.155966    0.917903    11.00000    0.03233    0.02930 =
         0.02605   -0.01458    0.01083   -0.01198
AFIX   7
H11A  2   -0.186598    0.104836    0.925512    11.00000   -1.50000
H11B  2   -0.117768    0.247906    0.922373    11.00000   -1.50000
AFIX   0
N1    4    0.778073    0.346281    0.284740    11.00000    0.02009    0.02324 =
         0.01357   -0.00952    0.00409   -0.00747
C1    1    0.999450    0.512549    0.333800    11.00000    0.01907    0.02699 =
         0.01980   -0.01702    0.00913   -0.00823
C2    1    0.913950    0.359619    0.370247    11.00000    0.01906    0.02438 =
         0.01623   -0.00528   -0.00136   -0.00352
AFIX  23
H2A   2    1.004860    0.279089    0.376614    11.00000   -1.20000
H2B   2    0.860154    0.345311    0.448731    11.00000   -1.20000
AFIX   0
C3    1    0.854812    0.331617    0.171824    11.00000    0.01771    0.02073 =
         0.02812   -0.00948    0.00373   -0.00322
AFIX  23
H3A   2    0.838242    0.228263    0.166571    11.00000   -1.20000
H3B   2    0.981923    0.346333    0.172970    11.00000   -1.20000
AFIX   0
C4    1    0.774625    0.444663    0.060329    11.00000    0.01599    0.02879 =
         0.02113   -0.01450    0.00696   -0.01045
C5    1    0.274596    0.030456    0.231143    11.00000    0.02154    0.02082 =
         0.01750   -0.00455    0.00425   -0.00670
C6    1    0.311282    0.227504    0.592062    11.00000    0.01828    0.02474 =
         0.01883   -0.00961    0.00068   -0.00072
C7    1    0.621575    0.263769    0.330345    11.00000    0.01986    0.01575 =
         0.01724   -0.00608    0.00246   -0.00534
C8    1    0.530374    0.185533    0.262460    11.00000    0.02153    0.02147 =
         0.01490   -0.00992    0.00643   -0.00626
AFIX  43
H8    2    0.574485    0.182069    0.188039    11.00000   -1.20000
AFIX   0
C9    1    0.373107    0.112299    0.305553    11.00000    0.01977    0.01615 =
         0.01713   -0.00763    0.00144   -0.00436
C10   1    0.305135    0.118234    0.415343    11.00000    0.01758    0.02032 =
         0.01476   -0.00596    0.00512   -0.00564
AFIX  43
H10   2    0.203463    0.065854    0.445794    11.00000   -1.20000
AFIX   0
C11   1    0.391147    0.203962    0.480023    11.00000    0.01665    0.02265 =
         0.01289   -0.00738    0.00195   -0.00363
C12   1    0.547195    0.275364    0.437013    11.00000    0.02016    0.02225 =
         0.02021   -0.01355    0.00054   -0.00554
AFIX  43
H12   2    0.603148    0.332289    0.480743    11.00000   -1.20000
AFIX   0
HKLF 4




REM  z20180412a_0m_a.res in P-1
REM wR2 = 0.0929, GooF = S = 1.044, Restrained GooF = 1.045 for all data
REM R1 = 0.0374 for 2080 Fo > 4sig(Fo) and 0.0506 for all 2630 data
REM 238 parameters refined using 1 restraints

END

WGHT      0.0411      0.6533

REM Instructions for potential hydrogen bonds
HTAB O9 O7_$1
HTAB O9 O11_$1
EQIV $3 x, y+1, z
HTAB O9 O5_$3
EQIV $4 -x+1, -y+1, -z
HTAB O10 O4_$4
EQIV $5 x-1, y, z
HTAB O10 O2_$5
EQIV $2 -x, -y, -z+1
HTAB O11 O5_$2
EQIV $6 x-1, y, z+1
HTAB O11 O4_$6
EQIV $7 -x+2, -y+1, -z+1
HTAB C2 O2_$7

REM Highest difference peak  0.565,  deepest hole -0.529,  1-sigma level  0.104
Q1    1   0.6757  0.9140  0.0243  11.00000  0.05    0.57
Q2    1   0.3381  0.5674  0.2814  11.00000  0.05    0.53
Q3    1   0.3538  0.5469  0.1672  11.00000  0.05    0.53
Q4    1   0.0858 -0.0850  0.2331  11.00000  0.05    0.45
Q5    1   0.6915  0.2931  0.3101  11.00000  0.05    0.45
;
_shelx_res_checksum              71866
_shelx_hkl_file
;
  -1   0   0   56.89    2.70
  -2   0   0   14.30    2.30
  -2   0   0   16.40    2.20
  -3   0   0 1939.91   29.30
  -3   0   0 1972.60   30.00
  -3   0   0 1980.70   25.90
  -3   0   0 1955.80   25.00
  -4   0   0  411.96   15.70
  -4   0   0  376.86   13.50
  -4   0   0  391.06    9.90
  -4   0   0  396.26    9.80
  -4   0   0  381.06   13.40
  -5   0   0   14.20    4.30
  -5   0   0   19.00    4.30
  -6   0   0  352.06   19.00
  -6   0   0  394.66   15.90
  -7   0   0   15.10    4.60
  -7   0   0   12.30    5.60
  -8   0   0    8.40    5.90
  -9   0   0   55.89    7.50
  -9   0   0   42.30   11.30
  -9   1   0    8.20    7.10
  -8   1   0    9.50    6.40
  -8   1   0   49.30    9.50
  -7   1   0  466.85   21.00
  -7   1   0  424.76   12.30
  -7   1   0  435.86   24.90
  -6   1   0   55.49    9.90
  -6   1   0   36.30    7.10
  -6   1   0   53.79    6.60
  -5   1   0   90.09   10.30
  -5   1   0   88.19    7.10
  -5   1   0   86.19   11.60
   4  -1   0 1776.42   36.60
  -4   1   0 1790.92   35.10
  -4   1   0 1753.92   31.30
  -4   1   0 1748.13   38.00
  -4   1   0 1755.22   35.00
   3  -1   0   20.00    4.30
  -3   1   0   13.30    3.10
  -3   1   0   10.80    3.20
   2  -1   0  222.28    9.40
  -2   1   0  220.98    8.60
   1  -1   0  862.61   15.90
   0  -1   0  278.17    6.20
  -3  -1   0    2.40    1.10
  -3  -1   0    1.70    1.00
  -4  -1   0  356.06    9.70
  -4  -1   0  346.97   13.10
  -4  -1   0  332.97    9.50
  -5  -1   0   38.30    4.50
  -5  -1   0   38.80    4.40
  -5  -1   0   33.50    5.80
  -6  -1   0  210.68    9.00
  -6  -1   0  195.58   13.40
  -6  -1   0  206.98    8.80
  -7  -1   0   29.40    7.40
  -7  -1   0   25.70    3.90
  -8  -1   0    2.90    4.10
  -9  -1   0   92.59   15.60
  -9   2   0   20.90   11.60
  -9   2   0    4.70    6.40
  -8   2   0  268.27   13.30
  -8   2   0  259.77   18.80
  -8   2   0  235.28   21.30
  -7   2   0    2.60    4.80
  -7   2   0    0.00    2.90
  -7   2   0    0.40    3.40
  -6   2   0   64.19   11.90
  -6   2   0   67.89   10.50
  -6   2   0   52.79    8.20
  -5   2   0   72.49    8.70
  -5   2   0   50.19    8.90
  -5   2   0   66.29    9.20
   4  -2   0  384.16   17.10
  -4   2   0  399.36   16.40
  -4   2   0  407.46   19.40
   3  -2   0   41.80    6.40
   3  -2   0   25.70    5.30
  -3   2   0   31.00    5.00
   2  -2   0    2.00    2.00
   2  -2   0    5.90    2.40
  -2   2   0    7.50    2.70
  -2   2   0    4.40    2.00
   1  -2   0  382.96   11.60
   1  -2   0  394.66   12.50
   0  -2   0    1.80    1.10
   0  -2   0    1.20    0.90
  -3  -2   0    8.50    1.80
  -4  -2   0   54.99    4.80
  -5  -2   0  681.83   19.60
  -6  -2   0   27.50    5.70
  -7  -2   0    9.20    4.70
  -8  -2   0  289.87   19.50
  -9  -2   0    4.50    5.30
  -9   3   0    3.90    6.90
  -9   3   0   17.50    9.70
  -8   3   0   35.70    9.20
  -8   3   0   39.60   11.40
  -8   3   0   58.79   10.20
  -7   3   0    0.30    5.00
  -7   3   0    0.50    3.70
  -7   3   0    0.10    4.00
  -6   3   0   37.90    7.40
  -6   3   0   59.19   11.90
  -6   3   0   42.20    9.30
  -5   3   0  343.07   17.80
  -5   3   0  343.87   21.10
  -5   3   0  348.77   19.60
   4  -3   0    2.00    2.50
   4  -3   0    1.30    2.40
  -4   3   0    2.90    2.80
  -4   3   0    2.10    2.90
   3  -3   0   11.50    3.80
   3  -3   0   14.00    4.10
  -3   3   0   13.10    4.00
   2  -3   0 2253.87   41.40
   2  -3   0 2242.28   39.70
  -2   3   0 2236.48   40.00
  -2   3   0 2316.47   40.30
   1  -3   0   96.29    6.60
   1  -3   0   93.39    6.90
   0  -3   0   85.09    5.10
   0  -3   0   88.79    5.80
  -3  -3   0   72.39    3.50
  -4  -3   0 2226.28   29.40
  -5  -3   0    1.60    1.80
  -6  -3   0   42.70    6.60
  -7  -3   0  481.55   20.10
  -8  -3   0   23.60    7.80
  -9  -3   0    2.20    4.60
  -8   4   0    1.50    5.50
  -8   4   0    4.50    5.80
  -8   4   0    7.40    6.10
  -7   4   0   -4.20    4.50
  -7   4   0   -3.60    4.50
  -7   4   0   -1.50    2.50
  -6   4   0  140.39   16.00
  -6   4   0  144.89   17.30
  -6   4   0  160.78   20.20
  -5   4   0    3.10    4.10
  -5   4   0   -2.20    2.80
  -5   4   0    2.10    4.80
   4  -4   0   56.59   10.10
   4  -4   0   66.99   10.60
  -4   4   0   60.39    9.70
  -4   4   0   37.70    8.60
   3  -4   0  494.25   21.40
  -3   4   0  495.55   20.90
   2  -4   0    4.60    2.80
   2  -4   0    1.70    2.00
  -2   4   0    1.60    1.90
  -2   4   0    4.00    3.20
   1  -4   0   82.29    6.90
   1  -4   0   74.69    8.90
   1  -4   0   91.69    7.80
   0  -4   0 1399.66   24.40
   0  -4   0 1354.16   27.10
   0  -4   0 1344.97   29.50
  -1  -4   0    3.60    2.10
  -2  -4   0   12.30    2.80
  -3  -4   0  302.97    8.70
  -4  -4   0  289.97    8.60
  -4  -4   0  292.07    9.10
  -5  -4   0    3.00    1.90
  -6  -4   0    5.60    2.80
  -7  -4   0  466.55   18.10
  -8  -4   0  100.79   11.70
  -9  -4   0    1.60    3.70
  -8   5   0   14.80    9.00
  -8   5   0    4.10    4.60
  -7   5   0  111.59   14.50
  -7   5   0  137.09   19.20
  -6   5   0    7.30    6.30
  -6   5   0    8.10    4.90
   5  -5   0    2.00    3.60
  -5   5   0   -0.20    4.00
  -5   5   0    1.40    3.40
   4  -5   0   71.19   11.10
   4  -5   0   71.99   10.80
  -4   5   0  100.89   13.80
  -4   5   0   67.29   11.30
   3  -5   0   29.60    7.10
   3  -5   0   17.60    6.10
   3  -5   0   22.70    5.80
  -3   5   0   20.80    6.10
   2  -5   0    2.50    2.50
   2  -5   0    9.80    4.10
   2  -5   0    7.10    3.80
  -2   5   0   -1.70    2.00
  -2   5   0    9.80    4.40
   1  -5   0  109.79    9.30
   1  -5   0   66.69    7.80
   1  -5   0   98.09   11.50
  -1   5   0   85.79    9.80
   0  -5   0  870.31   19.10
   0  -5   0  841.12   22.80
   0  -5   0  902.61   20.20
   0  -5   0  865.21   25.70
  -1  -5   0  127.19    8.80
  -2  -5   0    4.60    2.40
  -3  -5   0  652.13   16.00
  -3  -5   0  629.64   15.70
  -3  -5   0  659.73   15.90
  -4  -5   0    3.40    1.90
  -4  -5   0    3.30    1.80
  -5  -5   0   12.80    3.00
  -6  -5   0  407.66   13.20
  -7  -5   0    9.80    3.40
  -8  -5   0   16.70    5.40
  -8   6   0   -1.10    7.30
  -8   6   0    4.40    5.20
  -7   6   0   15.00    9.00
  -7   6   0   27.00    9.10
  -6   6   0    6.80    5.70
  -6   6   0    8.00    7.90
   5  -6   0   -3.90    3.60
  -5   6   0   -3.50    3.00
   4  -6   0  158.18   18.10
   4  -6   0  146.49   16.50
  -4   6   0  164.08   17.70
   3  -6   0   10.90    6.00
   3  -6   0   10.20    5.40
   3  -6   0    9.70    4.70
  -3   6   0    6.90    4.70
   2  -6   0   82.09   10.30
   2  -6   0  108.39   14.50
   2  -6   0  105.49   13.80
   1  -6   0 1062.69   28.40
   1  -6   0 1083.39   31.80
   1  -6   0 1082.29   34.50
   0  -6   0  253.27   13.30
   0  -6   0  207.28   13.90
   0  -6   0  233.78   10.60
  -1  -6   0  240.18   13.70
  -2  -6   0  647.74   20.90
  -3  -6   0    3.20    2.60
  -4  -6   0    8.60    2.90
  -5  -6   0  227.48   10.00
  -6  -6   0    0.50    2.10
  -7  -6   0   24.10    4.70
  -8  -6   0  174.48   10.00
  -7   7   0    5.80    5.40
  -6   7   0   16.40    7.70
   5  -7   0  169.68   19.80
  -5   7   0  176.08   20.70
   4  -7   0    3.60    4.60
   4  -7   0    8.70    6.00
   3  -7   0    0.00    2.90
   3  -7   0    9.40    5.70
   3  -7   0    6.10    4.90
   2  -7   0   72.69   11.80
   2  -7   0   82.39   14.00
   2  -7   0   69.19   10.00
   1  -7   0   47.30   10.00
   1  -7   0   51.19    9.60
   1  -7   0   41.30    7.30
   0  -7   0  121.19   14.30
   0  -7   0   95.99    6.90
  -1  -7   0  245.48   15.30
  -2  -7   0    6.80    4.00
  -3  -7   0   -0.80    2.50
  -4  -7   0   85.89    9.00
  -5  -7   0  110.09    8.20
  -6  -7   0   40.10    5.40
   6  -8   0   55.99   14.30
  -6   8   0   35.90   13.00
   5  -8   0   30.40    9.40
   4  -8   0    6.60    6.40
   4  -8   0   11.30    6.00
   3  -8   0   72.39   13.70
   3  -8   0   70.29   11.80
   3  -8   0   82.99   16.60
   2  -8   0    1.30    2.60
   2  -8   0    0.70    3.70
   2  -8   0   -1.10    3.10
   1  -8   0    1.10    3.00
   1  -8   0    0.70    3.30
   1  -8   0    2.20    3.80
   0  -8   0   60.89    5.20
   0  -8   0   80.59   12.50
  -1  -8   0  128.79   15.10
  -2  -8   0  145.69   12.70
  -3  -8   0   68.29    9.90
  -4  -8   0  322.07   16.10
  -5  -8   0  105.09   10.60
  -6  -8   0    6.20    3.30
   5  -9   0   14.70    7.60
   4  -9   0    6.00    4.60
   4  -9   0    3.00    5.60
   3  -9   0  132.49   16.50
   3  -9   0  130.29   18.90
   2  -9   0  126.99   14.80
   2  -9   0   95.19   14.10
   2  -9   0  126.59   19.40
   1  -9   0   20.50    6.00
   1  -9   0   13.40    6.10
   1  -9   0   26.70    9.60
   0  -9   0  137.19   18.50
  -1  -9   0   54.79   11.30
  -2  -9   0   97.59   14.00
  -3  -9   0   57.29   10.20
  -4  -9   0   24.40    6.70
  -5  -9   0   29.70    6.40
  -6  -9   0   50.99    7.50
   4 -10   0   56.49   14.80
   4 -10   0   32.00    8.70
   3 -10   0    1.50    4.80
   3 -10   0   -0.10    4.90
   2 -10   0   22.00    9.90
   2 -10   0   27.00    9.10
   2 -10   0   21.60    7.60
   1 -10   0   81.49    9.10
   1 -10   0   75.89   15.70
   0 -10   0   -1.70    4.10
  -1 -10   0   35.20    9.80
  -2 -10   0    6.40    5.40
  -3 -10   0   33.50    9.10
  -4 -10   0   17.50    6.50
   2 -11   0   18.10    8.80
   1 -11   0   52.59   13.60
   0 -11   0    2.20    6.10
  -1 -11   0   37.60   11.10
  -2 -11   0  105.69   16.90
  -1 -11   1    7.20    6.40
   0 -11   1    3.00    5.50
  -4 -10   1    0.60    4.90
  -3 -10   1  114.59   16.00
  -2 -10   1    8.70    5.50
  -1 -10   1   64.09   13.20
   0 -10   1   70.29   15.20
   1 -10   1    1.30    3.90
   1 -10   1    0.50    5.30
   2 -10   1   -0.60    5.50
   2 -10   1   -0.90    5.80
   3 -10   1   13.00    6.00
   3 -10   1    8.10    7.00
  -5  -9   1    1.60    3.80
  -4  -9   1  160.88   14.40
  -3  -9   1   17.00    6.70
  -2  -9   1   63.69   11.80
  -1  -9   1    7.90    5.80
   0  -9   1    1.50    4.10
   1  -9   1   51.29   11.30
   1  -9   1   44.00    8.40
   2  -9   1   -0.80    3.60
   2  -9   1   -0.10    4.30
   2  -9   1   -1.20    4.70
   3  -9   1   38.60   10.60
   3  -9   1   56.19   11.00
   4  -9   1   41.20   10.60
   4  -9   1   34.20   11.50
   5  -9   1    3.10    6.70
  -6  -8   1   33.00    7.00
  -5  -8   1    2.90    3.90
  -4  -8   1  109.59   12.90
  -3  -8   1   33.60    7.90
  -2  -8   1   66.89   10.90
  -1  -8   1  278.47   18.80
   0  -8   1  253.57   18.70
   0  -8   1  246.38   10.80
   1  -8   1   15.10    5.30
   1  -8   1   16.60    6.90
   2  -8   1  178.98   20.70
   2  -8   1  178.58   19.40
   2  -8   1  181.08   14.60
   3  -8   1   16.40    6.50
   3  -8   1   31.70    9.40
   4  -8   1    8.20    6.80
   4  -8   1   14.80    6.20
   5  -8   1   32.40    8.70
   6  -8   1   -0.80    5.70
  -7  -7   1  245.68   12.10
  -6  -7   1   -2.80    2.70
  -5  -7   1  341.97   16.30
  -4  -7   1   51.69    8.10
  -3  -7   1   24.40    6.00
  -2  -7   1  361.06   18.40
  -1  -7   1   17.80    5.60
   0  -7   1   90.29    7.50
   0  -7   1  126.09   15.60
   1  -7   1  317.17   20.60
   1  -7   1  311.57   16.40
   1  -7   1  289.47   17.80
   2  -7   1   76.49   13.00
   2  -7   1  106.09   12.60
   2  -7   1  120.79   15.60
   3  -7   1    7.90    5.50
   3  -7   1    5.50    3.50
   3  -7   1    1.90    4.60
   4  -7   1   37.40    9.40
   4  -7   1   39.00   11.10
  -5   7  -1    0.80    5.00
   5  -7   1   12.80    6.10
  -6   7  -1    4.90    5.90
  -7   7  -1    1.80    5.30
  -8  -6   1   36.40    6.80
  -7  -6   1   -7.50    3.20
  -6  -6   1  354.66   14.70
  -5  -6   1  138.09    9.70
  -4  -6   1  153.88   10.00
  -3  -6   1  129.99    9.60
  -2  -6   1    5.00    3.50
  -1  -6   1   69.69    9.30
   0  -6   1  125.09    8.60
   0  -6   1  109.99   13.20
   1  -6   1   34.50    6.70
   1  -6   1   22.70    6.60
   1  -6   1   37.60    7.80
   2  -6   1  276.97   19.30
   2  -6   1  265.57   17.70
   2  -6   1  330.47   17.90
  -3   6  -1   42.20   10.60
   3  -6   1   26.00    7.70
   3  -6   1   35.80    7.90
   3  -6   1   28.40    8.30
  -4   6  -1   31.90    8.90
   4  -6   1   28.20    8.30
   4  -6   1   43.70   10.20
  -5   6  -1   63.89   12.70
   5  -6   1   56.69   11.30
  -6   6  -1    1.60    4.60
  -7   6  -1   69.69   15.20
  -8  -5   1   27.80    6.60
  -7  -5   1  169.48   10.80
  -6  -5   1   72.29    8.00
  -5  -5   1  233.88   11.50
  -4  -5   1   78.29    6.70
  -3  -5   1  221.58   10.80
  -2  -5   1  222.08   11.50
  -1  -5   1   10.10    3.50
   0  -5   1  946.01   22.70
   0  -5   1  927.61   28.20
  -1   5  -1  246.28   14.30
  -1   5  -1  271.17   15.40
   1  -5   1  259.17   15.70
   1  -5   1  245.98   14.40
   1  -5   1  266.77   13.60
  -2   5  -1    3.40    3.40
  -2   5  -1    8.60    3.90
   2  -5   1    1.80    2.70
   2  -5   1    8.90    4.30
   2  -5   1    4.50    2.90
  -3   5  -1  702.93   28.70
  -3   5  -1  694.63   27.80
   3  -5   1  699.73   28.40
   3  -5   1  684.23   26.80
   3  -5   1  697.53   30.20
  -4   5  -1  190.78   15.60
   4  -5   1  163.38   17.10
   4  -5   1  182.88   15.80
  -5   5  -1    3.50    4.40
  -5   5  -1    2.00    3.00
   5  -5   1   -1.30    3.90
  -6   5  -1   39.20    9.20
  -6   5  -1   47.30   11.80
  -7   5  -1   16.40    6.30
  -7   5  -1   21.60    8.90
  -8   5  -1    4.90    5.00
  -8   5  -1    3.80    7.10
  -9  -4   1   70.59   11.60
  -8  -4   1    1.80    3.70
  -7  -4   1  180.88   12.20
  -6  -4   1   92.09    8.00
  -5  -4   1   13.10    3.60
  -4  -4   1  946.81   24.80
  -4  -4   1  919.71   21.20
  -3  -4   1  388.46   12.60
  -2  -4   1    4.50    2.20
  -1  -4   1 1490.85   29.60
   0   4  -1  470.35   16.80
   0  -4   1  491.95   15.00
   0  -4   1  495.15   18.20
   0  -4   1  507.65   17.10
  -1   4  -1    9.30    3.30
  -1   4  -1    8.00    3.30
   1  -4   1    7.60    3.30
   1  -4   1   12.40    4.50
   1  -4   1    6.00    2.60
  -2   4  -1   30.30    6.30
  -2   4  -1   23.90    5.50
   2  -4   1   23.70    5.60
   2  -4   1   22.30    5.40
  -3   4  -1   26.30    6.90
  -3   4  -1   27.00    6.20
   3  -4   1   29.10    6.10
   3  -4   1   26.70    6.80
  -4   4  -1  295.27   19.70
  -4   4  -1  293.27   17.80
  -4   4  -1  307.57   19.00
   4  -4   1  291.57   17.50
   4  -4   1  291.77   18.30
  -5   4  -1  158.18   16.40
  -5   4  -1  194.38   17.50
  -5   4  -1  182.68   18.90
  -6   4  -1   12.70    7.70
  -6   4  -1    6.40    5.30
  -6   4  -1    3.50    3.50
  -7   4  -1   57.99   13.60
  -7   4  -1   57.29   10.30
  -7   4  -1   66.19   13.00
  -8   4  -1    9.20    7.50
  -8   4  -1   26.90    9.90
  -8   4  -1   13.80    6.90
  -9  -3   1    0.80    4.40
  -8  -3   1  189.48   14.70
  -7  -3   1  239.58   14.80
  -6  -3   1   24.90    5.50
  -5  -3   1  611.14   18.20
  -4  -3   1    2.70    2.10
  -3  -3   1  212.08    8.80
  -2  -3   1  121.79    6.30
   0   3  -1 1056.19   22.80
   0  -3   1 1054.49   22.70
   0  -3   1 1047.00   20.80
  -1   3  -1  230.78   11.10
  -1   3  -1  223.18   11.30
   1  -3   1  221.58   10.50
   1  -3   1  221.48   11.40
  -2   3  -1  389.96   16.00
  -2   3  -1  388.56   16.50
   2  -3   1  408.96   16.10
   2  -3   1  389.16   16.50
  -3   3  -1  102.29   10.80
  -3   3  -1  114.59    9.60
   3  -3   1  123.99   12.70
   3  -3   1  117.99    9.40
  -4   3  -1  267.27   17.60
  -4   3  -1  276.47   15.50
  -4   3  -1  270.37   16.50
   4  -3   1  279.37   16.50
   4  -3   1  291.57   16.50
  -5   3  -1  191.78   15.20
  -5   3  -1  173.28   13.00
  -5   3  -1  170.88   18.50
  -6   3  -1   35.20    9.50
  -6   3  -1   44.40    8.20
  -6   3  -1   30.30    7.70
  -7   3  -1   -0.50    5.00
  -7   3  -1   -6.80    3.00
  -7   3  -1    2.10    4.40
  -8   3  -1   15.90    8.60
  -8   3  -1   35.00    8.20
  -8   3  -1   26.80    8.80
  -9   3  -1   52.79   13.70
  -9   3  -1   75.59   10.00
  -9  -2   1    6.40    8.50
  -8  -2   1    0.90    3.70
  -7  -2   1  170.48   13.70
  -6  -2   1    3.20    3.00
  -5  -2   1  152.38    9.80
  -4  -2   1  525.55   15.50
  -3  -2   1 1845.72   28.20
   0   2  -1  976.10   19.00
   0  -2   1  973.90   17.80
  -1   2  -1 9834.62  101.99
  -1   2  -1 9999.00   97.69
   1  -2   1 9385.66   97.09
   1  -2   1 9965.10   95.89
  -2   2  -1  694.73   19.10
  -2   2  -1  701.03   20.00
   2  -2   1  672.73   18.70
   2  -2   1  690.13   19.90
  -3   2  -1    0.50    1.50
  -3   2  -1    0.70    1.90
   3  -2   1    4.30    2.80
   3  -2   1    0.90    1.60
  -4   2  -1 1082.99   30.30
  -4   2  -1 1044.50   27.50
  -4   2  -1 1080.59   32.10
   4  -2   1 1019.60   30.10
   4  -2   1 1075.09   29.70
  -5   2  -1   12.70    4.90
  -5   2  -1   14.30    4.20
  -5   2  -1   21.70    6.50
  -6   2  -1   24.90    5.90
  -6   2  -1   23.00    7.90
  -6   2  -1   31.90    7.50
  -7   2  -1  219.48   19.20
  -7   2  -1  188.78   12.90
  -7   2  -1  204.68   16.30
  -8   2  -1   31.20    8.00
  -8   2  -1   22.50    8.80
  -8   2  -1   31.80    6.10
  -9   2  -1    0.90    5.90
  -9  -1   1   58.19   12.50
  -8  -1   1   35.70    9.20
  -7  -1   1   11.20    4.80
  -7  -1   1    6.90    2.80
  -6  -1   1  211.48   14.10
  -6  -1   1  230.58    9.60
  -5  -1   1  670.53   16.00
  -5  -1   1  672.33   21.80
  -5  -1   1  690.83   16.50
  -4  -1   1  103.29    5.80
  -4  -1   1  100.79    7.60
  -3  -1   1  833.62   15.50
  -3  -1   1  832.82   18.50
  -2  -1   1   16.60    2.30
  -1  -1   1 1054.89   11.00
  -1  -1   1 1060.99   15.10
   0   1  -1 1782.42   23.40
  -1   1  -1 2618.54   34.10
   1  -1   1 2608.04   34.20
  -2   1  -1  207.88    8.80
  -2   1  -1  207.38    9.40
   2  -1   1  203.88    9.40
  -3   1  -1 1011.70   24.20
   3  -1   1 1024.10   24.60
  -4   1  -1  109.99    8.60
  -4   1  -1  109.79    7.70
  -4   1  -1  109.79    8.80
  -4   1  -1  112.89    9.70
   4  -1   1  102.99    8.80
  -5   1  -1  140.29   12.10
  -5   1  -1  129.89    8.90
  -5   1  -1  138.59   10.30
  -6   1  -1  252.47   15.10
  -6   1  -1  245.98   17.30
  -6   1  -1  253.37   11.90
  -7   1  -1   55.79    5.50
  -7   1  -1   59.29   11.40
  -7   1  -1   56.89    9.30
  -8   1  -1  203.78   15.50
  -8   1  -1  171.68   19.70
  -9   1  -1    6.80    4.80
  -9   1  -1   -0.70    5.50
  -9   0   1   13.50    4.70
  -9   0   1    9.80    6.60
  -8   0   1    1.80    3.30
  -8   0   1    1.00    4.60
  -7   0   1  570.74   20.00
  -7   0   1  611.74   27.70
  -6   0   1  114.49    9.10
  -6   0   1  112.89   12.70
  -5   0   1   36.00    7.40
  -5   0   1   31.30    2.50
  -5   0   1   34.60    2.70
  -5   0   1   34.70    5.40
  -4   0   1  250.57    7.80
  -4   0   1  239.08   12.40
  -4   0   1  241.68   10.90
  -4   0   1  241.38    7.90
  -3   0   1    4.70    2.00
  -3   0   1    3.10    1.40
  -2   0   1   15.20    2.20
  -2   0   1   16.90    2.60
   1   0  -1  631.24   11.80
  -1   0   1  672.33   11.90
   0   0  -1    5.70    1.20
  -1   0  -1 1598.24   20.40
  -1   0  -1 1597.64   20.80
   1   0   1 1678.23   21.00
  -2   0  -1  578.14   13.20
  -2   0  -1  554.04   11.70
  -2   0  -1  573.84   13.10
  -3   0  -1  294.77   10.70
  -3   0  -1  281.47   10.50
  -3   0  -1  282.37    8.80
  -4   0  -1  682.33   13.60
  -4   0  -1  697.53   14.40
  -4   0  -1  663.83   18.10
  -4   0  -1  645.54   18.30
  -4   0  -1  665.63   21.00
  -5   0  -1    2.50    2.80
  -5   0  -1    8.00    3.10
  -5   0  -1    8.30    1.70
  -5   0  -1    5.70    1.40
  -6   0  -1  298.47   14.20
  -6   0  -1  293.67   17.70
  -7   0  -1  189.78   12.40
  -7   0  -1  178.98   15.40
  -8   0  -1   57.89   11.30
  -8   0  -1   49.80    7.80
  -9   0  -1   98.69   16.90
  -9   0  -1   86.69    9.90
  -9   1   1   29.90    7.40
  -9   1   1   26.60   10.00
  -8   1   1  228.78   15.70
  -8   1   1  194.18   21.70
  -7   1   1    4.70    4.70
  -7   1   1    4.60    2.30
  -7   1   1    7.20    4.30
  -6   1   1   30.80    7.10
  -6   1   1   33.80    5.30
  -6   1   1   31.50    6.70
  -5   1   1  136.59   11.50
  -5   1   1  139.99    8.70
   4  -1  -1  303.87   14.40
  -4   1   1  285.47   11.90
  -4   1   1  297.77   13.80
  -4   1   1  296.77   15.10
   3  -1  -1 1215.88   26.20
  -3   1   1 1168.48   23.30
  -3   1   1 1124.59   26.20
  -3   1   1 1150.58   23.10
   2  -1  -1   33.00    4.60
  -2   1   1   37.40    4.60
   1  -1  -1 2283.87   29.50
   0  -1  -1 1182.58   15.30
  -2  -1  -1 2265.17   21.50
  -2  -1  -1 2315.27   21.20
  -3  -1  -1 1323.37   17.80
  -3  -1  -1 1345.37   18.50
  -4  -1  -1  696.33   14.30
  -4  -1  -1  719.83   19.20
  -4  -1  -1  687.03   14.60
  -5  -1  -1  181.68    7.80
  -5  -1  -1  186.68    8.20
  -5  -1  -1  175.88   11.10
  -6  -1  -1  192.88    9.30
  -6  -1  -1  208.58    9.00
  -6  -1  -1  199.78   13.50
  -7  -1  -1    0.30    2.10
  -7  -1  -1    1.40    3.60
  -8  -1  -1  332.27   21.40
  -9  -1  -1    2.30    5.20
  -9   2   1  -13.40    7.10
  -9   2   1    4.50    6.50
  -8   2   1   51.19   12.30
  -8   2   1   57.19    7.50
  -8   2   1   31.60    8.10
  -7   2   1   66.09    8.50
  -7   2   1   62.69   12.60
  -7   2   1   56.09    9.90
  -6   2   1   -1.70    2.50
  -6   2   1    2.10    3.60
  -6   2   1    3.00    2.90
  -5   2   1  328.57   15.50
  -5   2   1  364.36   20.00
   4  -2  -1  273.87   15.00
   4  -2  -1  263.87   13.90
  -4   2   1  266.27   13.20
  -4   2   1  260.47   15.40
   3  -2  -1    2.00    1.80
   3  -2  -1   -0.50    1.40
  -3   2   1   -0.20    1.60
  -3   2   1    1.00    1.30
   2  -2  -1   91.29    6.60
   2  -2  -1   83.29    6.70
  -2   2   1   85.79    6.60
   1  -2  -1 1866.11   28.20
   1  -2  -1 1822.12   29.20
   0  -2  -1  216.78    7.10
   0  -2  -1  226.38    6.30
  -3  -2  -1  196.18    6.90
  -4  -2  -1 1225.38   22.10
  -5  -2  -1   84.39    7.20
  -6  -2  -1   54.69    7.90
  -7  -2  -1   44.70    8.20
  -8  -2  -1   89.29   12.80
  -9  -2  -1   86.39   13.40
  -9   3   1   45.70    8.10
  -9   3   1   42.90   12.80
  -8   3   1   82.49   13.70
  -8   3   1   76.79   10.90
  -8   3   1   85.09   15.90
  -7   3   1   21.10    7.00
  -7   3   1   36.40   10.50
  -7   3   1   23.20    6.40
  -6   3   1  169.68   12.90
  -6   3   1  162.38   17.50
  -6   3   1  176.58   19.90
  -5   3   1   52.09    8.00
  -5   3   1   58.69   11.10
   4  -3  -1    4.90    2.90
   4  -3  -1    8.30    3.50
  -4   3   1   10.00    4.70
  -4   3   1    5.90    3.30
   3  -3  -1  164.58   11.10
   3  -3  -1  177.98   11.80
  -3   3   1  197.08   11.90
   2  -3  -1   19.40    4.40
   2  -3  -1   28.10    5.20
  -2   3   1   24.50    5.00
   1  -3  -1  231.68   10.60
   1  -3  -1  255.67   10.70
   0  -3  -1 1158.78   18.70
   0  -3  -1 1178.18   21.20
  -4  -3  -1 1185.38   17.70
  -4  -3  -1 1168.88   17.50
  -5  -3  -1  118.39    7.00
  -6  -3  -1  302.87   13.50
  -7  -3  -1  181.08   12.50
  -8  -3  -1  170.38   13.70
  -9  -3  -1    2.00    4.40
  -9   4   1   -9.00    4.80
  -9   4   1    9.80    7.80
  -8   4   1   35.90   10.40
  -8   4   1   37.70   11.20
  -8   4   1   56.69   10.60
  -7   4   1    2.10    5.80
  -7   4   1    7.30    5.70
  -7   4   1    4.90    3.90
  -6   4   1   26.50    8.00
  -6   4   1    8.00    5.80
  -6   4   1   18.10    6.00
  -5   4   1   57.29    9.70
  -5   4   1   71.99   12.30
   4  -4  -1   94.79   12.20
   4  -4  -1  100.59   12.60
  -4   4   1  100.79   11.90
  -4   4   1   85.89   10.80
  -4   4   1   88.69   12.30
   3  -4  -1  143.59   11.30
   3  -4  -1  162.28   12.00
  -3   4   1  141.89   11.20
   2  -4  -1    5.90    3.10
   2  -4  -1    2.10    2.50
  -2   4   1    5.40    3.30
   1  -4  -1  186.18    9.80
   1  -4  -1  171.98   10.30
   0  -4  -1 2631.24   41.90
   0  -4  -1 2498.05   33.50
   0  -4  -1 2561.64   38.10
  -1  -4  -1 3052.99   40.90
  -2  -4  -1  287.17    8.40
  -5  -4  -1    1.10    1.30
  -5  -4  -1    1.30    1.60
  -6  -4  -1  347.67   12.80
  -7  -4  -1  200.38   11.50
  -8  -4  -1   40.20    7.60
  -9  -4  -1   58.29    9.80
  -8   5   1   34.00   11.70
  -8   5   1   28.50    8.10
  -7   5   1   52.29   12.40
  -7   5   1   65.39   11.10
  -6   5   1   62.49   12.40
  -6   5   1   73.79   11.70
   5  -5  -1    1.00    4.00
  -5   5   1    3.70    3.90
   4  -5  -1  301.87   19.50
   4  -5  -1  327.57   19.60
  -4   5   1  317.67   19.40
  -4   5   1  346.17   19.90
   3  -5  -1  186.58   13.40
   3  -5  -1  203.38   14.70
   3  -5  -1  167.28   14.60
  -3   5   1  160.88   13.30
   2  -5  -1   16.00    5.30
   2  -5  -1   20.10    5.30
   2  -5  -1   19.40    5.30
  -2   5   1   15.50    5.00
   1  -5  -1  261.27   12.60
   1  -5  -1  261.37   13.90
   1  -5  -1  266.57   15.30
   0  -5  -1   64.39    5.00
   0  -5  -1   66.69    5.20
   0  -5  -1   73.09    8.10
   0  -5  -1   56.59    7.70
  -1  -5  -1   33.00    5.50
  -2  -5  -1  356.96   12.20
  -3  -5  -1  360.16    9.80
  -3  -5  -1  366.76   10.10
  -4  -5  -1   75.29    3.50
  -6  -5  -1   32.40    3.90
  -7  -5  -1  163.78    9.00
  -8  -5  -1   86.89    9.30
  -8   6   1   48.30   13.20
  -8   6   1   42.20    9.70
  -7   6   1   68.69   14.80
  -7   6   1   46.30   10.80
  -6   6   1   -3.00    4.70
  -6   6   1   -2.60    3.60
   5  -6  -1  207.08   21.10
  -5   6   1  189.38   19.80
   4  -6  -1   26.80    7.30
   4  -6  -1   26.20    7.90
  -4   6   1   17.40    7.00
   3  -6  -1   84.99   12.40
   3  -6  -1   72.79   11.30
   3  -6  -1   65.19   11.70
  -3   6   1   68.79   10.60
  -3   6   1   87.89   12.70
   2  -6  -1   28.50    6.60
   2  -6  -1   35.90    8.00
   2  -6  -1   32.60    7.80
   1  -6  -1   16.60    5.40
   1  -6  -1   19.20    5.40
   1  -6  -1   29.10    5.80
   0  -6  -1   29.50    4.40
   0  -6  -1   32.10    6.90
   0  -6  -1   26.60    5.30
  -1  -6  -1  110.19    9.00
  -2  -6  -1   78.19    8.60
  -3  -6  -1  465.25   14.50
  -4  -6  -1  240.18    8.60
  -8  -6  -1  153.18    7.90
  -7   7   1   -0.10    5.70
  -6   7   1   17.20    7.80
   5  -7  -1   20.70    8.30
  -5   7   1   18.40    7.70
   4  -7  -1   68.69   13.50
   4  -7  -1   66.69   11.50
   3  -7  -1   -1.60    3.00
   3  -7  -1    3.40    3.50
   3  -7  -1    3.00    4.10
   2  -7  -1  148.69   12.20
   2  -7  -1  167.68   18.00
   2  -7  -1  172.68   19.40
   1  -7  -1  444.06   21.20
   1  -7  -1  460.95   18.60
   1  -7  -1  458.95   23.70
   0  -7  -1   32.10    4.60
   0  -7  -1   35.30    6.60
   0  -7  -1   25.60    6.60
  -1  -7  -1  221.58   14.30
  -2  -7  -1  153.48   11.00
  -3  -7  -1   31.20    5.80
  -4  -7  -1   33.40    5.30
  -5  -7  -1  260.97    9.60
   6  -8  -1    9.00    7.30
  -6   8   1    9.60    7.00
   5  -8  -1   72.99   13.80
   4  -8  -1   28.80    9.20
   4  -8  -1   31.00    9.40
   3  -8  -1   81.39   14.60
   3  -8  -1   83.39   12.70
   3  -8  -1   51.39   11.50
   2  -8  -1   15.00    5.30
   2  -8  -1   16.10    6.70
   2  -8  -1   15.50    6.10
   1  -8  -1    3.20    3.80
   1  -8  -1    1.70    3.30
   1  -8  -1    7.40    3.70
   0  -8  -1  201.48    7.30
   0  -8  -1  226.08   14.30
   0  -8  -1  222.48   16.50
  -1  -8  -1   98.09   13.00
  -2  -8  -1   66.79    9.80
  -3  -8  -1   84.09   10.50
  -4  -8  -1    3.80    3.00
  -5  -8  -1    1.40    2.50
   5  -9  -1   16.00    7.10
   4  -9  -1   48.80   11.00
   4  -9  -1   59.29   13.50
   3  -9  -1   30.60    7.70
   3  -9  -1   20.00    8.20
   2  -9  -1   14.10    6.50
   2  -9  -1   15.30    7.00
   2  -9  -1   16.30    6.30
   1  -9  -1  156.98   17.20
   1  -9  -1  143.09   10.90
   1  -9  -1  106.69   16.00
   0  -9  -1    1.80    3.40
  -1  -9  -1   70.29   11.70
  -2  -9  -1   59.09   10.90
  -3  -9  -1  209.08   14.60
  -4  -9  -1   54.99    9.10
  -5  -9  -1   11.60    4.30
  -6  -9  -1   34.00    4.80
   4 -10  -1    2.80    7.30
   4 -10  -1   -1.70    4.70
   3 -10  -1   43.60   11.10
   3 -10  -1   72.19   12.00
   2 -10  -1    1.00    4.10
   2 -10  -1    8.10    5.90
   2 -10  -1    8.40    7.20
   1 -10  -1   63.39   13.40
   1 -10  -1   52.49   10.10
   1 -10  -1   75.69    8.60
   0 -10  -1  176.18   21.50
  -1 -10  -1   12.40    6.50
  -2 -10  -1  112.29   16.00
  -3 -10  -1  108.19   14.70
  -4 -10  -1   -2.10    4.30
  -5 -10  -1   73.59   10.00
   2 -11  -1   16.10    6.60
   2 -11  -1   16.60    9.30
   1 -11  -1   22.20    9.80
   0 -11  -1   -1.20    4.90
  -1 -11  -1   41.90   11.60
  -2 -11  -1   80.19   14.70
  -3 -11  -1   -1.30    4.90
  -3 -10   2    6.30    7.00
  -2 -10   2   19.40    8.10
  -1 -10   2   10.90    6.90
   0 -10   2    8.50    6.80
   1 -10   2   75.79   15.80
   1 -10   2   71.49    9.30
   2 -10   2   -4.50    6.00
   2 -10   2    3.30    6.70
   3 -10   2    3.70    6.20
  -5  -9   2   18.20    6.60
  -4  -9   2   73.79   12.40
  -3  -9   2  180.98   16.30
  -2  -9   2    2.90    4.60
  -1  -9   2    9.10    6.00
   0  -9   2  166.68   21.30
   1  -9   2    2.70    4.10
   1  -9   2    7.30    4.70
   2  -9   2   17.30    7.30
   2  -9   2   30.40    8.80
   3  -9   2   51.19   11.10
   3  -9   2   47.10   11.60
   4  -9   2   -0.80    4.70
   4  -9   2    1.60    6.50
  -6  -8   2    8.10    4.90
  -5  -8   2   67.09   11.10
  -4  -8   2  225.88   16.40
  -3  -8   2   13.80    5.40
  -2  -8   2   70.09   11.60
  -1  -8   2   90.69   13.90
   0  -8   2  152.68    9.70
   0  -8   2  188.18   16.90
   1  -8   2    4.40    4.50
   1  -8   2    3.30    4.50
   2  -8   2    0.90    2.70
   2  -8   2    0.90    4.20
   2  -8   2    1.20    3.90
   3  -8   2   67.89   11.70
   3  -8   2   64.99   12.80
   4  -8   2   10.70    8.10
   4  -8   2    7.20    5.30
   5  -8   2    2.20    5.60
   6  -8   2   32.00   10.00
  -7  -7   2   19.90    5.70
  -6  -7   2   62.99    9.80
  -5  -7   2   26.40    6.40
  -4  -7   2  168.98   13.10
  -3  -7   2   -0.60    3.10
  -2  -7   2   13.30    5.10
  -1  -7   2  255.37   17.40
   0  -7   2  134.69   16.20
   0  -7   2  116.29    9.30
   1  -7   2    4.80    4.50
   1  -7   2    0.80    3.60
   2  -7   2  274.87   17.70
   2  -7   2  287.57   19.70
   2  -7   2  246.08   20.10
   3  -7   2    3.70    4.40
   3  -7   2    7.70    5.00
   4  -7   2    1.50    5.60
   4  -7   2    7.80    4.40
  -5   7  -2   60.69   12.50
   5  -7   2   63.09   12.90
  -6   7  -2    8.30    5.90
  -7   7  -2    0.60    5.30
  -8  -6   2  191.98   13.50
  -7  -6   2    0.50    2.90
  -6  -6   2   30.60    6.50
  -5  -6   2  463.05   20.00
  -4  -6   2    8.30    4.20
  -3  -6   2    0.90    2.70
  -2  -6   2  418.36   19.30
  -1  -6   2   16.90    5.20
   0  -6   2  227.58   15.90
   0  -6   2  239.38   12.60
   1  -6   2  848.12   32.40
   1  -6   2  833.22   29.90
   1  -6   2  842.92   27.10
   2  -6   2    0.10    3.00
   2  -6   2    0.70    2.40
   2  -6   2    2.10    3.60
   3  -6   2   12.10    5.80
   3  -6   2   14.90    5.90
  -4   6  -2  449.26   25.70
   4  -6   2  394.96   23.50
   4  -6   2  392.06   24.80
  -5   6  -2    2.60    4.60
   5  -6   2   -0.80    3.20
  -6   6  -2    1.10    4.60
  -7   6  -2   16.00   10.50
  -7   6  -2   31.80   10.20
  -8  -5   2    2.10    3.90
  -7  -5   2   41.90    7.60
  -6  -5   2  414.76   18.20
  -5  -5   2   -0.10    2.60
  -4  -5   2  137.69   10.40
  -3  -5   2  502.15   18.70
  -2  -5   2    4.20    2.70
  -1  -5   2   20.10    2.80
  -1  -5   2   23.40    5.80
  -1  -5   2   24.30    3.00
   0  -5   2  185.18   10.80
   0  -5   2  186.58   13.10
   1  -5   2   72.99   10.60
   1  -5   2   54.09    7.90
   1  -5   2   78.49   10.20
  -2   5  -2   79.89   11.30
  -2   5  -2  117.19   18.10
   2  -5   2   87.79   11.00
   2  -5   2   99.79   13.30
   2  -5   2   91.49   11.70
  -3   5  -2   24.20    7.10
  -3   5  -2   13.20    5.30
   3  -5   2   30.70    8.00
   3  -5   2   34.30    8.10
   3  -5   2   23.30    7.20
  -4   5  -2  244.98   17.90
   4  -5   2  233.18   18.00
   4  -5   2  218.88   17.10
  -5   5  -2   -2.80    2.60
  -5   5  -2    1.60    4.20
  -6   5  -2    0.50    3.70
  -6   5  -2    6.00    6.00
  -7   5  -2   32.00    8.70
  -7   5  -2   29.60   10.60
  -8   5  -2    7.20    4.80
  -8   5  -2   -0.50    7.10
  -9  -4   2    3.70    4.70
  -8  -4   2    4.10    5.60
  -7  -4   2   65.49    9.80
  -6  -4   2   -2.10    2.50
  -5  -4   2    9.10    3.90
  -4  -4   2    4.60    2.90
  -3  -4   2  593.84   18.60
  -2  -4   2  833.72   22.40
  -1  -4   2    4.90    2.50
  -1  -4   2    1.90    1.30
  -1  -4   2    4.70    1.60
   0   4  -2  932.81   25.80
   0  -4   2  929.51   23.50
   0  -4   2  978.30   27.30
  -1   4  -2   86.19   10.20
  -1   4  -2   53.79    7.60
   1  -4   2   54.99    7.50
   1  -4   2   54.69    7.80
   1  -4   2   60.29    9.00
  -2   4  -2 1696.93   41.50
  -2   4  -2 1724.23   40.20
   2  -4   2 1775.02   39.50
   2  -4   2 1725.43   40.90
  -3   4  -2  722.63   28.40
  -3   4  -2  731.83   26.90
   3  -4   2  767.12   27.50
   3  -4   2  823.72   29.40
  -4   4  -2   88.19   13.30
  -4   4  -2  108.29   14.30
  -4   4  -2  112.09   14.20
   4  -4   2  127.79   15.30
   4  -4   2   75.39   11.50
  -5   4  -2   58.29    9.70
  -5   4  -2   62.49   12.30
  -5   4  -2   92.99   14.10
  -6   4  -2  231.38   24.70
  -6   4  -2  226.18   19.20
  -6   4  -2  228.88   17.10
  -7   4  -2   38.90    9.10
  -7   4  -2   21.00    9.80
  -7   4  -2   39.80   10.80
  -8   4  -2    1.70    7.80
  -8   4  -2    0.30    5.60
  -8   4  -2   -9.10    5.50
  -9  -3   2   -0.20    4.40
  -8  -3   2    8.90    4.50
  -7  -3   2  154.48   12.80
  -6  -3   2  124.89   10.40
  -5  -3   2  196.18   11.80
  -4  -3   2 1678.03   33.60
  -3  -3   2    6.00    2.70
  -2  -3   2  408.76   14.20
  -1  -3   2 2527.45   40.00
  -1  -3   2 2504.65   30.50
  -1  -3   2 2500.55   31.50
   0   3  -2  733.13   20.80
   0  -3   2  719.23   19.20
  -1   3  -2   21.70    4.60
  -1   3  -2   25.10    5.30
   1  -3   2   25.90    5.00
   1  -3   2   22.10    4.80
  -2   3  -2 2880.41   50.79
  -2   3  -2 2922.81   49.40
   2  -3   2 2773.62   48.70
   2  -3   2 2875.21   50.99
  -3   3  -2  207.68   13.00
  -3   3  -2  232.68   14.50
   3  -3   2  204.78   13.20
   3  -3   2  221.88   14.40
  -4   3  -2  125.29   10.70
  -4   3  -2  120.69   13.10
  -4   3  -2  125.69   14.70
   4  -3   2  123.09   13.50
   4  -3   2  110.99   12.30
  -5   3  -2  504.75   24.30
  -5   3  -2  474.35   21.80
  -5   3  -2  437.36   24.70
  -6   3  -2   79.99   13.00
  -6   3  -2   81.39   13.90
  -6   3  -2   73.19   10.90
  -7   3  -2   37.20    9.70
  -7   3  -2   10.10    9.10
  -7   3  -2   32.20   10.40
  -8   3  -2   94.89   17.40
  -8   3  -2   81.19   13.30
  -8   3  -2   76.89   11.70
  -9   3  -2   37.40    8.00
  -9   3  -2   28.90   11.80
  -9  -2   2   35.60   10.20
  -8  -2   2  173.58   15.50
  -7  -2   2   14.90    5.40
  -6  -2   2  287.87   15.90
  -5  -2   2  851.51   24.70
  -4  -2   2   59.89    7.40
  -4  -2   2   61.89    3.70
  -3  -2   2   12.80    2.30
  -3  -2   2   12.50    3.30
  -2  -2   2  174.38   10.40
  -2  -2   2  185.78    7.30
  -1  -2   2  517.55   11.70
  -1  -2   2  490.95   13.10
   0   2  -2    3.90    2.10
   0  -2   2    5.70    2.30
  -1   2  -2  960.30   23.40
   1  -2   2  965.00   23.00
   1  -2   2  987.40   22.70
  -2   2  -2  326.67   13.50
  -2   2  -2  318.37   14.10
   2  -2   2  321.27   14.40
   2  -2   2  340.97   14.10
  -3   2  -2    2.40    2.10
  -3   2  -2    3.20    2.50
   3  -2   2    2.50    2.20
   3  -2   2    3.10    2.50
  -4   2  -2  114.39   12.10
  -4   2  -2   91.39   11.90
  -4   2  -2  120.29    9.50
   4  -2   2  123.89   10.20
   4  -2   2   85.49   10.50
  -5   2  -2  144.59   11.20
  -5   2  -2  137.39   14.40
  -5   2  -2  140.89   15.80
  -6   2  -2    2.20    3.30
  -6   2  -2    1.40    3.80
  -7   2  -2    2.20    4.40
  -7   2  -2   16.50    7.90
  -7   2  -2    7.80    4.80
  -8   2  -2  265.07   23.30
  -8   2  -2  237.18   18.30
  -8   2  -2  263.67   13.90
  -9   2  -2   -0.10    6.60
  -9  -1   2   69.39   13.50
  -8  -1   2   47.50   10.70
  -7  -1   2  103.29    7.10
  -7  -1   2  117.29   14.40
  -6  -1   2  102.59    7.10
  -6  -1   2  114.69   12.80
  -5  -1   2   75.29    9.30
  -5  -1   2   84.59    6.50
  -4  -1   2   34.70    4.80
  -4  -1   2   34.20    5.90
  -3  -1   2   38.80    4.90
  -3  -1   2   40.20    5.70
  -2  -1   2    2.30    1.40
  -2  -1   2    2.30    1.10
  -2  -1   2    2.10    1.00
   1   1  -2   29.90    4.00
  -1  -1   2   21.80    2.80
  -1  -1   2   24.80    3.60
   0   1  -2  577.74   14.70
   0  -1   2  558.64   14.00
  -1   1  -2 1093.29   22.20
   1  -1   2 1120.59   21.60
   1  -1   2 1062.69   21.80
  -2   1  -2  378.86   13.90
  -2   1  -2  374.56   13.20
   2  -1   2  398.56   14.40
  -3   1  -2  168.18    9.50
  -3   1  -2  175.68   10.40
  -3   1  -2  192.98   11.90
   3  -1   2  182.78   10.80
  -4   1  -2 1214.18   30.60
  -4   1  -2 1308.47   34.10
  -4   1  -2 1273.27   28.50
   4  -1   2 1271.97   31.70
  -5   1  -2   58.59    8.80
  -5   1  -2   38.20    7.90
  -5   1  -2   58.89    7.80
  -6   1  -2   26.20    5.20
  -6   1  -2   13.50    4.60
  -6   1  -2   18.00    6.70
  -7   1  -2  211.68    9.80
  -7   1  -2  242.28   15.90
  -7   1  -2  207.78   18.20
  -8   1  -2    9.10    7.00
  -8   1  -2   14.30    6.10
  -9   1  -2   53.89    9.80
  -9   1  -2   45.50   12.90
  -9   0   2  134.39   19.70
  -9   0   2  115.89    9.80
  -8   0   2   55.79   11.80
  -8   0   2   56.99    8.30
  -7   0   2    7.10    3.80
  -7   0   2    1.30    3.60
  -6   0   2   90.09   12.20
  -5   0   2   -0.80    1.20
  -5   0   2   -0.20    1.00
  -5   0   2    1.40    2.70
  -4   0   2  107.79    6.30
  -4   0   2  106.89    5.90
  -4   0   2  118.19    8.10
  -4   0   2  115.89    9.10
  -3   0   2  611.54   18.20
  -3   0   2  577.24   13.90
  -3   0   2  575.84   16.40
   2   0  -2  454.15   13.30
  -2   0   2  450.85   13.00
  -2   0   2  440.56   11.60
   1   0  -2  285.57    9.50
  -1   0   2  244.28    8.00
   0   0  -2 4373.06   48.10
  -1   0  -2  146.29    6.50
  -1   0  -2  140.09    6.80
   1   0   2  148.79    6.80
  -2   0  -2  624.24   14.60
  -2   0  -2  606.24   15.20
  -2   0  -2  613.34   15.70
  -3   0  -2 1983.90   35.60
  -3   0  -2 1982.80   32.70
  -3   0  -2 1989.00   33.00
  -3   0  -2 1983.80   29.70
  -4   0  -2  264.57    9.70
  -4   0  -2  258.37   12.00
  -4   0  -2  254.07    9.10
  -4   0  -2  250.27   13.50
  -4   0  -2  268.27   12.00
  -5   0  -2  122.69    5.60
  -5   0  -2  122.39   10.70
  -5   0  -2  117.29    5.90
  -5   0  -2  152.38   10.00
  -6   0  -2  307.57   18.50
  -6   0  -2  292.27   14.90
  -7   0  -2  130.79   16.60
  -7   0  -2   91.89   10.60
  -8   0  -2   29.00    6.50
  -8   0  -2   21.00    7.60
  -9   0  -2   15.00    4.60
  -9   0  -2    1.70    5.40
  -9   1   2    9.20    5.80
  -9   1   2   15.10    8.00
  -8   1   2   44.70    9.00
  -8   1   2   20.70    8.10
  -7   1   2  383.76   12.20
  -7   1   2  400.36   19.70
  -7   1   2  386.66   23.50
  -6   1   2  101.99    7.70
  -6   1   2   82.89   12.10
  -5   1   2  415.56   20.50
  -5   1   2  421.76   15.30
   4  -1  -2  922.71   26.10
  -4   1   2  908.11   25.30
  -4   1   2  940.41   27.50
  -4   1   2  885.41   22.00
  -4   1   2  939.91   22.50
   3  -1  -2  169.68    9.80
  -3   1   2  162.58    8.80
   2  -1  -2    6.80    2.50
  -2   1   2    7.50    2.30
   1  -1  -2  456.45   12.60
  -1   1   2  441.86   11.90
   0  -1  -2  519.35   11.80
   0  -1  -2  510.75   11.10
  -1  -1  -2  581.74   11.50
  -1  -1  -2  607.54    9.60
  -1  -1  -2  583.44   11.70
  -2  -1  -2    5.60    1.50
  -2  -1  -2    4.00    1.50
  -3  -1  -2 1588.34   23.10
  -3  -1  -2 1579.44   27.40
  -3  -1  -2 1615.34   24.10
  -4  -1  -2   -0.40    1.90
  -4  -1  -2   -0.60    1.00
  -4  -1  -2    0.20    1.00
  -5  -1  -2    4.40    1.90
  -5  -1  -2   11.50    3.00
  -5  -1  -2    6.50    3.20
  -6  -1  -2  207.38    9.80
  -6  -1  -2  223.08   14.50
  -7  -1  -2   15.20    5.80
  -7  -1  -2   15.80    3.50
  -8  -1  -2    1.50    4.50
  -9  -1  -2  102.69   16.20
  -9   2   2    7.30    7.80
  -8   2   2  113.09   14.50
  -8   2   2  113.49    9.60
  -8   2   2  124.59   18.80
  -7   2   2   53.49    7.70
  -7   2   2   39.60   10.50
  -7   2   2   47.90    9.20
  -6   2   2   -1.40    3.50
  -6   2   2    1.50    2.70
  -5   2   2   83.19   11.50
  -5   2   2   75.09    8.90
   4  -2  -2  380.16   17.20
   4  -2  -2  352.16   17.10
  -4   2   2  373.06   15.70
  -4   2   2  372.56   18.70
  -4   2   2  393.16   16.30
   3  -2  -2    9.90    3.50
   3  -2  -2    6.70    2.70
  -3   2   2   10.10    3.60
   2  -2  -2   42.70    5.90
   2  -2  -2   35.30    5.20
  -2   2   2   42.80    5.60
   1  -2  -2  248.58   10.10
   1  -2  -2  222.48    9.20
   0  -2  -2   14.80    2.60
   0  -2  -2   18.10    2.60
  -1  -2  -2  338.17    7.20
  -3  -2  -2  145.29    6.30
  -4  -2  -2  104.09    6.60
  -5  -2  -2  610.14   19.00
  -6  -2  -2    8.00    3.90
  -7  -2  -2    0.60    3.40
  -8  -2  -2  346.87   21.00
  -9  -2  -2    2.90    5.20
  -9   3   2    7.70    7.90
  -9   3   2    8.20    5.00
  -8   3   2   36.70    7.80
  -8   3   2   40.00   11.90
  -8   3   2   25.30    8.30
  -7   3   2    0.00    4.80
  -7   3   2   -2.90    3.20
  -6   3   2   23.80    6.40
  -6   3   2   15.00    6.40
  -5   3   2  436.76   20.00
  -5   3   2  430.06   23.20
   4  -3  -2  163.58   12.00
   4  -3  -2  185.48   13.40
  -4   3   2  151.98   13.00
  -4   3   2  158.88   11.60
   3  -3  -2  373.46   17.30
   3  -3  -2  399.86   16.90
  -3   3   2  388.36   17.00
   2  -3  -2  181.38   10.30
   2  -3  -2  171.78   10.60
  -2   3   2  187.18   10.60
   1  -3  -2    7.90    2.70
   1  -3  -2    4.90    1.90
   0  -3  -2   50.39    5.30
   0  -3  -2   49.70    3.90
  -1  -3  -2  351.46    7.80
  -3  -3  -2  446.86    8.00
  -4  -3  -2  685.83   13.80
  -4  -3  -2  670.93   19.20
  -5  -3  -2   19.00    3.90
  -6  -3  -2  179.88   10.60
  -7  -3  -2  141.69   11.30
  -8  -3  -2  156.28   13.50
  -9  -3  -2    6.70    5.60
  -9   4   2   86.59   12.70
  -9   4   2  102.49   19.70
  -8   4   2    2.30    5.70
  -8   4   2    7.30    7.00
  -8   4   2    4.00    5.10
  -7   4   2   22.00    6.60
  -7   4   2   20.70    8.50
  -6   4   2  284.47   18.40
  -6   4   2  295.77   22.00
  -5   4   2   -0.50    2.60
  -5   4   2   -0.70    3.70
  -5   4   2   -1.00    3.20
   4  -4  -2  294.17   17.90
   4  -4  -2  301.77   17.70
  -4   4   2  327.47   17.90
  -4   4   2  321.27   19.80
   3  -4  -2  123.59   12.80
   3  -4  -2   96.19   11.60
  -3   4   2  121.49   13.00
   2  -4  -2   57.89    8.40
   2  -4  -2   49.60    7.40
  -2   4   2   58.39    8.00
   1  -4  -2  289.97   13.30
   1  -4  -2  284.77   12.50
   0  -4  -2  543.75   15.80
   0  -4  -2  535.85   13.30
   0  -4  -2  572.74   17.50
  -1  -4  -2  387.96   12.70
  -1  -4  -2  371.36    9.60
  -2  -4  -2  129.79    5.70
  -5  -4  -2   50.49    4.10
  -5  -4  -2   39.70    3.50
  -6  -4  -2    6.00    2.60
  -7  -4  -2  496.45   18.00
  -8  -4  -2   -2.00    3.30
  -9  -4  -2    0.60    3.80
  -8   5   2   18.00    6.30
  -8   5   2   22.10    9.70
  -7   5   2  113.89   17.70
  -7   5   2   85.59   13.40
  -6   5   2    9.70    4.70
   5  -5  -2   75.89   12.00
  -5   5   2   66.99   10.80
  -5   5   2   83.49   12.80
   4  -5  -2  252.37   17.00
   4  -5  -2  223.78   16.70
  -4   5   2  259.67   16.90
  -4   5   2  255.47   17.30
   3  -5  -2   98.29   14.10
   3  -5  -2  109.59   13.00
   3  -5  -2  110.49   12.40
  -3   5   2   96.79   11.80
   2  -5  -2   17.20    5.40
   2  -5  -2   23.70    5.90
   2  -5  -2   29.90    6.50
  -2   5   2   28.10    6.40
   1  -5  -2    7.10    3.20
   1  -5  -2    7.90    3.70
   1  -5  -2    5.60    2.70
   0  -5  -2 1377.36   23.90
   0  -5  -2 1358.96   28.30
   0  -5  -2 1387.06   32.10
   0  -5  -2 1406.36   24.00
  -1  -5  -2  379.76   14.60
  -1  -5  -2  398.66   11.40
  -2  -5  -2   68.19    5.30
  -3  -5  -2 1262.77   19.50
  -3  -5  -2 1280.07   19.50
  -6  -5  -2  175.38    6.90
  -7  -5  -2   11.70    3.30
  -8  -5  -2   23.90    5.30
  -8   6   2    7.80    5.50
  -8   6   2    1.40    7.80
  -7   6   2  186.18   23.90
  -7   6   2  110.79   15.70
  -6   6   2    0.70    4.30
   5  -6  -2    9.50    5.60
  -5   6   2    9.80    5.60
   4  -6  -2  708.53   30.10
   4  -6  -2  744.03   32.00
  -4   6   2  684.03   30.20
  -4   6   2  730.93   30.60
   3  -6  -2    7.50    4.90
   3  -6  -2    7.60    4.90
   3  -6  -2   10.50    4.90
  -3   6   2   11.20    6.00
   2  -6  -2    9.60    4.80
   2  -6  -2   11.90    4.40
   2  -6  -2   17.60    6.00
   1  -6  -2  296.27   15.60
   1  -6  -2  271.37   16.70
   1  -6  -2  287.77   13.80
   0  -6  -2  273.37   10.30
   0  -6  -2  253.47   14.80
   0  -6  -2  294.97   13.90
   0  -6  -2  271.47   10.10
  -1  -6  -2  208.98   12.10
  -1  -6  -2  209.48    9.10
  -2  -6  -2  229.28   11.40
  -3  -6  -2   49.70    5.70
  -4  -6  -2   88.69    4.80
  -4  -6  -2   95.29    5.00
  -7   7   2   -4.10    4.10
  -6   7   2    5.40    5.90
   5  -7  -2  304.77   21.60
  -5   7   2  317.77   23.10
   4  -7  -2    5.30    5.00
   4  -7  -2    1.40    3.80
   3  -7  -2    1.40    3.90
   3  -7  -2    5.20    4.30
   3  -7  -2   -2.30    2.60
   2  -7  -2  175.88   15.60
   2  -7  -2  134.19   14.90
   2  -7  -2  145.79   11.90
   1  -7  -2  103.59    8.90
   1  -7  -2   85.69   12.20
   1  -7  -2  112.89   12.70
   0  -7  -2  174.48    7.90
   0  -7  -2  194.28   14.20
   0  -7  -2  193.38   12.30
  -1  -7  -2   77.59   10.20
  -2  -7  -2   56.19    8.00
  -3  -7  -2  148.39    9.40
  -4  -7  -2  149.79    8.00
   6  -8  -2    1.80    7.80
  -6   8   2    6.50    5.50
   5  -8  -2    4.40    5.40
   4  -8  -2   -2.40    3.10
   4  -8  -2   -0.60    3.30
   3  -8  -2   38.00   10.80
   3  -8  -2   19.00    6.50
   3  -8  -2   27.10    8.60
   2  -8  -2  218.68   14.70
   2  -8  -2  143.39   16.00
   2  -8  -2  232.28   19.30
   1  -8  -2   22.70    5.40
   1  -8  -2   16.70    5.90
   1  -8  -2   25.50    7.80
   0  -8  -2    0.70    3.00
   0  -8  -2    3.20    3.40
  -1  -8  -2  336.57   18.90
  -2  -8  -2   82.09   11.20
  -3  -8  -2   -0.80    2.30
  -4  -8  -2  414.06   15.80
  -5  -8  -2   19.40    3.70
   5  -9  -2    5.30    5.60
   4  -9  -2   -0.40    3.50
   4  -9  -2    2.70    5.70
   3  -9  -2  204.98   25.20
   3  -9  -2  158.18   16.80
   3  -9  -2  131.49   17.10
   2  -9  -2    4.90    5.40
   2  -9  -2   10.50    5.00
   2  -9  -2    8.30    5.20
   1  -9  -2    1.40    4.00
   1  -9  -2    3.90    3.10
   1  -9  -2    4.00    4.20
   0  -9  -2  302.77   20.90
   0  -9  -2  320.27   17.20
  -1  -9  -2   28.20    7.60
  -2  -9  -2   44.20    8.90
  -3  -9  -2  470.45   21.10
  -4  -9  -2   -1.70    2.80
  -5  -9  -2   19.70    4.50
   4 -10  -2  120.09   19.10
   4 -10  -2   86.89   14.20
   3 -10  -2   -3.00    3.90
   3 -10  -2   -0.50    5.20
   2 -10  -2    2.10    5.30
   2 -10  -2   -0.20    4.30
   2 -10  -2   -2.10    4.30
   1 -10  -2   81.79   12.30
   1 -10  -2   96.69   17.20
   1 -10  -2   78.29    8.40
   0 -10  -2   24.90    8.70
  -1 -10  -2    4.00    5.20
  -2 -10  -2    5.70    5.40
  -3 -10  -2   38.00    8.80
  -4 -10  -2   -3.70    3.30
  -5 -10  -2   15.90    5.40
   2 -11  -2   -1.10    4.60
   2 -11  -2    4.10    7.00
   1 -11  -2   67.79   14.80
   0 -11  -2    5.20    5.90
  -1 -11  -2    0.50    4.20
  -2 -11  -2  154.98   18.90
  -3 -11  -2    1.00    4.90
  -3 -10   3  171.68   21.60
  -2 -10   3    4.10    5.40
  -1 -10   3    0.30    6.00
   0 -10   3  114.49   19.20
   1 -10   3    1.10    4.50
   1 -10   3   -2.90    5.50
   2 -10   3   25.90    8.50
  -5  -9   3   -2.40    4.50
  -4  -9   3   64.39   12.90
  -3  -9   3   -1.20    3.80
  -2  -9   3    9.50    6.00
  -1  -9   3   31.40   10.50
   0  -9   3   32.40   10.90
   0  -9   3   21.80    4.30
   1  -9   3   13.70    7.80
   1  -9   3   16.40    6.70
   2  -9   3  -10.00    4.90
   2  -9   3   -0.10    6.60
   3  -9   3   45.00   10.50
   4  -9   3   21.70   10.10
   4  -9   3   21.90    9.10
  -6  -8   3   45.10   10.50
  -5  -8   3   -0.60    4.00
  -4  -8   3  150.48   17.80
  -3  -8   3   30.30    8.90
  -2  -8   3    0.40    3.40
  -1  -8   3  205.38   17.90
   0  -8   3   68.09   12.90
   0  -8   3   76.19    8.80
   1  -8   3    0.00    3.50
   1  -8   3    2.40    5.00
   2  -8   3  240.38   21.70
   2  -8   3  201.28   16.50
   3  -8   3    9.10    6.60
   3  -8   3   27.80    8.20
   4  -8   3   19.60    8.00
   4  -8   3   24.30   11.10
   5  -8   3   91.99   16.40
  -7  -7   3   23.90    7.60
  -6  -7   3   10.90    5.90
  -5  -7   3  419.66   22.40
  -4  -7   3   51.09    9.70
  -3  -7   3   -2.30    2.20
  -2  -7   3  157.68   14.00
  -1  -7   3    4.10    3.50
   0  -7   3   29.20    6.00
   0  -7   3   25.50    7.90
   1  -7   3  204.98   15.00
   1  -7   3  180.58   20.60
   2  -7   3   18.00    8.00
   2  -7   3   13.40    5.60
   3  -7   3    7.30    5.00
   3  -7   3    7.30    5.30
   4  -7   3    6.40    5.60
  -5   7  -3    2.50    6.30
   5  -7   3   -2.40    3.90
  -6   7  -3   13.80    7.20
  -7  -6   3    4.20    4.10
  -6  -6   3  136.29   14.90
  -5  -6   3    3.20    4.00
  -4  -6   3   65.19   10.70
  -3  -6   3  162.78   13.20
  -2  -6   3   74.49   10.80
  -1  -6   3   15.60    5.80
  -1  -6   3   14.60    3.00
   0  -6   3  100.69   13.80
   0  -6   3  112.79    9.70
   1  -6   3   89.89   11.10
   1  -6   3  102.79   15.00
   2  -6   3   -0.70    2.50
   2  -6   3    5.70    4.70
   2  -6   3   -0.50    3.20
   3  -6   3   -2.90    3.00
   3  -6   3    7.20    4.00
  -4   6  -3  227.38   18.80
   4  -6   3  207.38   21.50
  -5   6  -3   47.00   11.20
   5  -6   3   65.99   13.10
  -6   6  -3    6.50    5.70
  -7   6  -3   61.29   13.40
  -8  -5   3   23.90    7.60
  -7  -5   3   11.80    5.10
  -6  -5   3   32.30    7.70
  -5  -5   3  164.18   13.10
  -4  -5   3    1.40    2.90
  -3  -5   3  650.53   23.80
  -2  -5   3  256.77   15.10
  -1  -5   3   43.10    5.40
  -1  -5   3   47.70    8.40
   0  -5   3  757.92   23.70
   0  -5   3  755.12   28.60
   1  -5   3  116.39   14.00
   1  -5   3  136.39   11.20
  -2   5  -3   -1.70    2.10
   2  -5   3    0.70    3.00
   2  -5   3   -1.80    2.30
   2  -5   3   -1.00    2.90
  -3   5  -3 1114.99   37.30
   3  -5   3 1137.89   38.60
   3  -5   3 1182.88   37.60
  -4   5  -3   10.20    6.40
  -4   5  -3    7.40    5.10
   4  -5   3   14.80    6.20
  -5   5  -3   17.20    6.60
  -5   5  -3    7.00    6.40
  -6   5  -3  198.48   21.30
  -6   5  -3  182.48   21.90
  -7   5  -3    0.20    6.50
  -7   5  -3    5.40    5.80
  -8   5  -3   -1.80    4.10
  -8  -4   3    3.00    4.80
  -7  -4   3   73.69   11.00
  -6  -4   3    5.00    4.20
  -5  -4   3  172.38   12.80
  -4  -4   3  685.13   24.10
  -3  -4   3  266.77   14.40
  -2  -4   3    2.20    1.90
  -1  -4   3  732.23   17.50
  -1  -4   3  746.83   18.70
  -1  -4   3  746.53   24.40
   0   4  -3    0.20    2.10
   0  -4   3   -0.80    1.50
   0  -4   3    0.00    1.90
  -1   4  -3  205.18   13.20
  -1   4  -3  206.48   14.10
   1  -4   3  191.68   12.40
   1  -4   3  185.18   13.90
  -2   4  -3   64.59   10.40
  -2   4  -3   67.59   10.00
   2  -4   3   61.69    9.80
   2  -4   3  108.09   14.10
   2  -4   3   70.39   10.10
  -3   4  -3   27.00    7.00
  -3   4  -3   25.70    6.50
   3  -4   3   17.60    5.90
   3  -4   3   20.70    6.50
  -4   4  -3   13.20    5.00
  -4   4  -3   27.20    8.00
   4  -4   3   27.50    7.80
  -5   4  -3  119.89   16.30
  -5   4  -3  133.79   15.60
  -6   4  -3   91.49   15.20
  -6   4  -3   70.39   12.30
  -7   4  -3   52.79   11.70
  -7   4  -3   60.79   10.80
  -8   4  -3   30.70    9.20
  -8   4  -3   44.10   13.10
  -9  -3   3   10.00    6.20
  -8  -3   3  237.98   18.40
  -7  -3   3   12.20    4.90
  -6  -3   3   40.00    7.70
  -5  -3   3  389.06   18.40
  -4  -3   3   -0.50    2.10
  -4  -3   3    1.40    1.10
  -3  -3   3   41.00    4.90
  -3  -3   3   37.30    6.70
  -2  -3   3   43.10    2.40
  -2  -3   3   46.20    2.50
  -2  -3   3   40.70    5.50
  -2  -3   3   48.40    7.00
   1   3  -3  168.48   10.60
  -1  -3   3  155.88    9.30
  -1  -3   3  158.48    8.40
  -1  -3   3  168.58   10.60
   0   3  -3   34.90    6.20
   0  -3   3   40.90    6.20
   0  -3   3   37.50    6.90
  -1   3  -3  220.38   12.30
  -1   3  -3  199.98   12.40
  -2   3  -3  387.26   17.30
  -2   3  -3  388.96   18.60
   2  -3   3  388.46   17.60
   2  -3   3  415.56   18.80
  -3   3  -3  893.81   28.40
  -3   3  -3  905.51   32.10
  -3   3  -3  894.31   30.40
   3  -3   3  950.00   30.90
   3  -3   3  905.01   29.40
  -4   3  -3   29.10    7.80
  -4   3  -3   19.10    7.10
  -4   3  -3   35.40    7.70
   4  -3   3   30.50    7.30
  -5   3  -3  241.88   19.00
  -5   3  -3  214.28   15.60
  -5   3  -3  223.18   17.20
  -6   3  -3   11.50    6.20
  -6   3  -3    4.50    4.90
  -6   3  -3    1.60    3.00
  -7   3  -3   85.59   14.00
  -7   3  -3   87.49   15.70
  -7   3  -3  102.99   13.50
  -8   3  -3  131.79   17.20
  -8   3  -3  121.69   20.40
  -8   3  -3  105.69   13.50
  -9  -2   3   13.90    6.60
  -8  -2   3  127.39   16.30
  -7  -2   3  238.48   17.10
  -6  -2   3    1.80    2.00
  -6  -2   3    3.60    1.70
  -6  -2   3    8.40    4.70
  -5  -2   3  277.67   10.30
  -5  -2   3  276.17   15.30
  -4  -2   3  468.75   14.40
  -4  -2   3  517.65   19.40
  -3  -2   3    3.30    2.30
  -3  -2   3    4.20    2.20
  -2  -2   3  117.39    5.40
  -2  -2   3  127.59    8.90
  -2  -2   3  124.09    7.70
  -2  -2   3  119.69    5.40
   1   2  -3  545.75   17.40
  -1  -2   3  556.94   15.40
  -1  -2   3  555.04   16.70
   0   2  -3  178.68   10.40
   0  -2   3  171.98    9.70
  -1   2  -3 2230.98   40.80
  -1   2  -3 2292.97   39.80
   1  -2   3 2232.28   39.60
  -2   2  -3  471.75   17.90
  -2   2  -3  473.05   18.60
   2  -2   3  505.65   19.20
   2  -2   3  473.15   18.00
  -3   2  -3  120.69    9.70
  -3   2  -3  128.89   11.50
  -3   2  -3  128.29   10.60
   3  -2   3  116.19   10.10
   3  -2   3  111.19    9.70
  -4   2  -3  866.01   27.50
  -4   2  -3  906.11   29.40
  -4   2  -3  855.51   31.20
   4  -2   3  918.81   29.80
  -5   2  -3  182.18   14.30
  -5   2  -3  179.28   15.60
  -5   2  -3  185.08   12.90
  -6   2  -3   36.10    8.70
  -6   2  -3   34.10    7.50
  -6   2  -3   35.60    9.60
  -7   2  -3  222.08   20.00
  -7   2  -3  187.28   16.00
  -7   2  -3  184.28   14.60
  -8   2  -3    8.90    6.90
  -8   2  -3   -3.10    3.90
  -8   2  -3    2.50    4.70
  -9   2  -3    6.00    7.30
  -9  -1   3   23.60    8.80
  -8  -1   3   13.40    6.40
  -8  -1   3   14.60    3.70
  -7  -1   3    3.60    2.60
  -7  -1   3   -0.70    3.30
  -6  -1   3  396.46   20.60
  -5  -1   3  400.16   18.70
  -4  -1   3   24.10    4.70
  -4  -1   3   14.10    4.10
  -3  -1   3  666.93   13.50
  -3  -1   3  670.23   20.90
  -3  -1   3  699.13   14.50
  -3  -1   3  680.43   19.00
  -2  -1   3  136.19    8.20
  -2  -1   3  146.49    6.80
   1   1  -3   48.90    6.30
  -1  -1   3   42.50    5.30
   0   1  -3   30.60    4.80
   0  -1   3   39.50    5.60
  -1   1  -3   60.39    7.30
  -1   1  -3   79.09    8.10
   1  -1   3   49.30    5.90
  -2   1  -3  721.13   21.40
  -2   1  -3  713.53   20.30
   2  -1   3  697.03   19.90
   2  -1   3  684.63   20.50
  -3   1  -3  379.26   15.30
  -3   1  -3  356.56   15.90
  -3   1  -3  355.86   16.90
   3  -1   3  378.46   16.50
   3  -1   3  383.96   16.00
  -4   1  -3  207.58   14.10
  -4   1  -3  174.18   11.80
  -4   1  -3  177.48   10.90
  -5   1  -3  152.38   16.30
  -5   1  -3  138.79   10.20
  -5   1  -3  142.69   11.60
  -6   1  -3    4.60    4.60
  -6   1  -3    4.00    3.40
  -6   1  -3   -1.60    2.50
  -7   1  -3   37.10   10.10
  -7   1  -3   35.20    5.80
  -7   1  -3   42.10    9.10
  -8   1  -3    6.40    5.20
  -8   1  -3    1.40    5.20
  -9   1  -3   12.50    7.30
  -9   0   3   16.90    8.10
  -9   0   3   31.60    6.50
  -8   0   3    8.10    4.30
  -8   0   3   -0.50    3.90
  -7   0   3  177.88   19.30
  -6   0   3   56.19   10.10
  -5   0   3   22.30    3.60
  -5   0   3   19.90    5.70
  -4   0   3  462.05   13.60
  -4   0   3  447.26   16.90
  -4   0   3  440.66   14.20
  -4   0   3  458.35   18.90
   3   0  -3   68.29    7.90
  -3   0   3   70.89    5.40
  -3   0   3   62.29    7.70
  -3   0   3   55.39    6.90
   2   0  -3   43.70    6.00
  -2   0   3   39.20    6.30
  -2   0   3   31.30    4.30
   1   0  -3  601.74   17.00
  -1   0   3  593.44   15.50
   0   0  -3   13.00    3.10
   0   0  -3   12.20    3.20
   0   0   3   11.30    3.00
  -1   0  -3   22.20    4.00
  -1   0  -3   13.50    3.20
  -2   0  -3  193.38    9.20
  -2   0  -3  183.38   10.70
  -2   0  -3  183.58    9.60
   2   0   3  205.48   10.00
  -3   0  -3 1217.98   26.50
  -3   0  -3 1243.78   27.50
  -3   0  -3 1176.58   24.50
  -3   0  -3 1272.07   29.80
   3   0   3 1241.18   28.00
  -4   0  -3  226.08    9.50
  -4   0  -3  208.78   13.00
  -4   0  -3  230.08   10.30
  -4   0  -3  209.88   11.80
  -4   0  -3  210.18   11.60
  -5   0  -3   39.00    5.00
  -5   0  -3   25.90    6.30
  -5   0  -3   32.00    6.30
  -6   0  -3  390.36   17.80
  -6   0  -3  391.56   21.30
  -7   0  -3  128.69   16.40
  -7   0  -3  113.79   11.90
  -8   0  -3   33.10    9.50
  -8   0  -3   36.40    7.40
  -9   0  -3  121.69   10.50
  -9   0  -3   78.79   15.00
  -9   1   3   34.30   11.60
  -9   1   3   18.40    7.40
  -8   1   3   54.49   12.10
  -8   1   3   69.99   11.10
  -7   1   3   20.20    3.80
  -7   1   3   12.10    5.90
  -6   1   3   38.80    5.90
  -6   1   3   37.40    8.50
  -5   1   3   29.10    5.40
  -5   1   3   17.60    5.80
   4  -1  -3  744.43   24.10
  -4   1   3  715.73   20.60
  -4   1   3  709.43   25.10
   3  -1  -3  494.85   18.00
  -3   1   3  467.55   15.70
  -3   1   3  482.95   18.80
   2  -1  -3  504.15   16.50
  -2   1   3  491.45   15.20
   1  -1  -3 2313.07   36.10
   1  -1  -3 2430.16   35.50
  -1   1   3 2357.66   34.90
   0  -1  -3  891.31   19.40
   0  -1  -3  929.91   18.80
  -1  -1  -3    0.50    1.20
  -1  -1  -3    2.30    1.40
  -2  -1  -3  566.84   11.80
  -2  -1  -3  553.74   14.20
  -2  -1  -3  576.14   15.10
  -3  -1  -3  939.91   22.80
  -3  -1  -3  934.51   11.70
  -3  -1  -3  916.91   20.60
  -3  -1  -3  920.21   19.20
  -3  -1  -3  933.41   12.00
  -4  -1  -3    0.40    1.80
  -4  -1  -3    2.40    1.80
  -4  -1  -3    0.60    1.40
  -5  -1  -3  628.74   18.20
  -5  -1  -3  644.74   17.50
  -5  -1  -3  649.34   22.90
  -6  -1  -3   12.60    5.00
  -6  -1  -3   22.10    4.50
  -7  -1  -3   -0.30    3.40
  -7  -1  -3    0.00    2.30
  -8  -1  -3  178.18   19.60
  -9  -1  -3    2.20    5.00
  -9   2   3   -3.70    5.20
  -8   2   3  191.28   11.70
  -8   2   3  234.78   17.70
  -8   2   3  178.68   21.90
  -7   2   3    3.30    4.30
  -7   2   3    7.50    5.20
  -6   2   3   -0.40    3.00
  -6   2   3    3.90    2.80
  -5   2   3 1070.99   35.70
  -5   2   3 1087.89   29.30
  -5   2   3 1004.70   28.40
   4  -2  -3  447.26   19.10
   4  -2  -3  443.06   19.80
  -4   2   3  458.95   18.10
  -4   2   3  425.76   20.30
   3  -2  -3  205.68   12.00
   3  -2  -3  207.68   12.30
  -3   2   3  199.18   11.20
   2  -2  -3   90.19    7.50
   2  -2  -3   97.49    7.50
  -2   2   3  119.59    8.30
   1  -2  -3    6.20    2.40
   1  -2  -3    7.60    2.40
  -1   2   3    5.80    2.50
   0  -2  -3  421.46   12.90
   0  -2  -3  424.56   12.00
  -1  -2  -3  228.88    8.20
  -1  -2  -3  228.48    6.30
  -2  -2  -3    0.00    0.80
  -2  -2  -3   -0.80    0.70
  -3  -2  -3   12.90    1.80
  -3  -2  -3   14.90    3.20
  -3  -2  -3   12.80    1.80
  -4  -2  -3  178.98    9.60
  -5  -2  -3   25.90    5.20
  -6  -2  -3    2.50    3.30
  -7  -2  -3  107.69   13.40
  -8  -2  -3  105.19   14.10
  -9  -2  -3   68.99   12.70
  -9   3   3  127.99   12.40
  -9   3   3   69.19   15.20
  -8   3   3   14.00    5.80
  -8   3   3    4.40    6.80
  -8   3   3   18.40    7.20
  -7   3   3    6.40    5.30
  -7   3   3   -2.40    2.70
  -6   3   3  147.49   18.50
  -6   3   3   95.39   11.60
  -5   3   3   27.10    6.40
  -5   3   3   34.20    8.60
  -5   3   3   37.00    7.50
   4  -3  -3   38.30    7.30
   4  -3  -3   65.49   10.20
  -4   3   3   53.29    8.10
  -4   3   3   47.50    9.20
   3  -3  -3  642.74   22.30
   3  -3  -3  636.24   22.90
  -3   3   3  672.73   22.20
   2  -3  -3  215.58   11.60
   2  -3  -3  212.08   12.00
  -2   3   3  200.88   11.60
   1  -3  -3    4.60    1.90
   1  -3  -3    0.90    1.70
  -1   3   3    4.60    2.30
   0  -3  -3  474.25   14.40
   0  -3  -3  480.45   12.90
  -1  -3  -3  275.97    8.70
  -2  -3  -3 1097.49   20.40
  -3  -3  -3    1.20    1.30
  -4  -3  -3  543.15   14.70
  -5  -3  -3  371.16   13.80
  -6  -3  -3  246.18   13.00
  -7  -3  -3  212.48   13.80
  -8  -3  -3   55.99   10.10
  -9  -3  -3   -1.60    5.10
  -8   4   3  115.69   14.40
  -8   4   3  115.19   19.00
  -8   4   3   93.29   15.60
  -7   4   3   28.50    7.70
  -7   4   3   11.90    7.10
  -6   4   3   92.59   12.60
  -6   4   3   77.49   13.60
  -5   4   3  102.49   13.10
  -5   4   3   70.39   10.50
  -5   4   3   88.99   14.00
   4  -4  -3   93.29   11.50
   4  -4  -3  115.99   13.90
  -4   4   3  111.39   13.40
  -4   4   3  146.49   17.10
   3  -4  -3 1026.60   30.20
   3  -4  -3 1046.60   31.90
  -3   4   3  997.30   29.80
   2  -4  -3  182.18   11.50
   2  -4  -3  176.68   12.00
  -2   4   3  166.28   11.40
   1  -4  -3   20.80    4.80
   1  -4  -3   26.80    5.00
   1  -4  -3   16.60    4.90
   0  -4  -3  480.75   15.60
   0  -4  -3  464.15   13.20
   0  -4  -3  465.75   16.70
  -1  -4  -3  586.04   16.60
  -1  -4  -3  601.34   13.80
  -2  -4  -3  184.78    8.10
  -3  -4  -3 1089.79   19.20
  -4  -4  -3  586.74   13.00
  -4  -4  -3  591.74   13.30
  -5  -4  -3  228.88    9.30
  -6  -4  -3   74.09    6.50
  -7  -4  -3   83.89    9.60
  -8  -4  -3   -6.00    3.10
  -8   5   3  126.39   16.40
  -8   5   3  113.09   18.80
  -7   5   3  235.88   18.50
  -6   5   3  132.29   15.60
   5  -5  -3   17.90    7.00
  -5   5   3   19.50    6.60
  -5   5   3   20.60    6.40
   4  -5  -3  761.52   31.00
   4  -5  -3  791.22   30.30
  -4   5   3  811.02   30.90
   3  -5  -3  135.69   11.70
   3  -5  -3  165.78   16.90
   3  -5  -3  119.89   14.50
  -3   5   3  132.29   14.20
   2  -5  -3  125.29   14.00
   2  -5  -3  117.39   12.50
   2  -5  -3  130.79   10.30
  -2   5   3  125.49   10.80
   1  -5  -3  870.31   28.20
   1  -5  -3  892.01   26.10
   1  -5  -3  861.11   23.80
  -1   5   3  868.91   28.90
   0  -5  -3    0.10    1.20
   0  -5  -3    2.50    1.60
   0  -5  -3    0.40    1.20
   0  -5  -3    1.50    1.70
  -1  -5  -3  213.48   11.30
  -1  -5  -3  231.38    9.00
  -2  -5  -3  500.15   14.90
  -3  -5  -3   21.90    3.50
  -3  -5  -3   26.80    3.80
  -4  -5  -3   40.90    3.50
  -4  -5  -3   41.50    3.60
  -5  -5  -3   93.09    5.10
  -5  -5  -3   97.09    5.00
  -6  -5  -3   24.30    3.90
  -7  -5  -3   32.30    5.30
  -8  -5  -3   27.50    5.80
  -8   6   3   29.50    7.90
  -8   6   3   30.60   12.00
  -7   6   3   49.10   10.50
  -6   6   3   19.90    7.60
   5  -6  -3  308.67   21.90
  -5   6   3  276.97   20.50
  -5   6   3  306.37   20.90
   4  -6  -3  172.98   17.60
   4  -6  -3  194.08   16.60
  -4   6   3  164.98   18.00
   3  -6  -3  110.79   13.30
   3  -6  -3   98.99   14.10
   3  -6  -3  127.19   15.60
  -3   6   3  133.09   15.70
   2  -6  -3  147.09   11.70
   2  -6  -3  165.58   13.30
   2  -6  -3  166.08   18.00
   1  -6  -3   91.99   11.80
   1  -6  -3  112.29   12.50
   1  -6  -3   92.69    8.10
   0  -6  -3  315.57   13.50
   0  -6  -3  301.77   16.10
   0  -6  -3  276.07   13.40
   0  -6  -3  299.37   10.70
  -1  -6  -3   30.30    5.90
  -1  -6  -3   31.30    4.50
  -2  -6  -3   96.89    7.70
  -3  -6  -3  247.48   10.40
  -4  -6  -3  163.48    6.90
  -4  -6  -3  164.38    7.00
  -8  -6  -3  125.69    7.40
  -7   7   3   12.20    6.30
  -6   7   3   32.70    9.70
   5  -7  -3  160.48   19.90
  -5   7   3   93.39   14.70
  -5   7   3  112.69   16.90
   4  -7  -3  109.59   16.60
   4  -7  -3   83.99   12.70
   3  -7  -3    4.90    3.80
   3  -7  -3    1.60    3.70
   3  -7  -3   -2.80    3.20
   2  -7  -3  232.48   17.70
   2  -7  -3  254.47   17.40
   2  -7  -3  217.08   14.40
   1  -7  -3  305.47   19.20
   1  -7  -3  289.57   14.40
   1  -7  -3  317.27   17.30
   0  -7  -3   77.09    9.20
   0  -7  -3   64.89   10.10
   0  -7  -3   88.19    5.70
  -1  -7  -3  329.97   12.50
  -1  -7  -3  317.17   16.70
  -2  -7  -3  207.08   12.40
  -3  -7  -3   51.09    7.00
  -4  -7  -3  721.33   17.70
   6  -8  -3   92.69   15.40
  -6   8   3   75.29   13.40
   5  -8  -3   16.30    7.40
   4  -8  -3    0.90    3.40
   4  -8  -3    5.20    5.00
   3  -8  -3  290.17   18.80
   3  -8  -3  254.57   21.20
   3  -8  -3  291.17   20.80
   2  -8  -3   29.50    8.80
   2  -8  -3   33.20    8.60
   2  -8  -3   25.10    6.40
   1  -8  -3   36.60    7.60
   1  -8  -3   55.39   11.10
   1  -8  -3   48.00    7.30
   0  -8  -3  314.07   16.50
   0  -8  -3  374.16   21.10
  -1  -8  -3    2.00    2.10
  -1  -8  -3    3.60    3.50
  -2  -8  -3   10.50    4.70
  -3  -8  -3  150.78   10.90
  -4  -8  -3    1.30    2.30
  -5  -8  -3   13.20    3.10
   6  -9  -3   10.20    6.90
   5  -9  -3   19.70    7.30
   4  -9  -3  151.48   18.30
   4  -9  -3  136.09   19.70
   3  -9  -3    1.80    3.70
   3  -9  -3    3.50    5.20
   3  -9  -3    3.70    5.50
   2  -9  -3   -3.40    3.50
   2  -9  -3    9.30    4.80
   2  -9  -3    1.10    3.70
   1  -9  -3  166.48   14.40
   1  -9  -3  182.68   11.40
   1  -9  -3  214.48   23.00
   0  -9  -3   21.90    5.90
   0  -9  -3   17.80    6.80
  -1  -9  -3  146.79   16.50
  -2  -9  -3   42.90    9.00
  -3  -9  -3  179.38   13.40
  -4  -9  -3  325.67   15.80
  -5  -9  -3    0.50    2.90
   4 -10  -3   29.10    8.80
   4 -10  -3   52.39   13.20
   3 -10  -3   62.99   12.80
   3 -10  -3   94.69   13.40
   2 -10  -3    0.80    4.60
   2 -10  -3   -3.90    5.40
   2 -10  -3    2.60    4.90
   1 -10  -3  149.29   20.00
   1 -10  -3  152.18   16.50
   1 -10  -3  167.68   10.10
   0 -10  -3   95.29   15.30
   0 -10  -3   95.49   11.90
  -1 -10  -3    2.10    4.50
  -2 -10  -3  245.58   18.40
  -3 -10  -3  118.99   14.50
  -4 -10  -3    5.90    4.60
  -5 -10  -3  121.69   10.00
   3 -11  -3   -9.60    5.50
   2 -11  -3   43.50   13.00
   2 -11  -3   35.70    7.90
   1 -11  -3    6.30    7.30
   0 -11  -3    6.30    5.70
  -1 -11  -3   62.09   12.70
  -2 -11  -3   24.80    8.70
  -3 -11  -3    3.80    5.20
  -1 -10   4   15.80    9.00
   0 -10   4   -0.20    5.80
  -4  -9   4   79.19   14.70
  -3  -9   4  180.88   21.90
  -2  -9   4    0.20    4.40
  -1  -9   4   64.79   13.70
   0  -9   4   38.50   11.80
   0  -9   4   69.09    7.80
   1  -9   4   11.90    6.20
   1  -9   4   11.60    7.90
   2  -9   4   20.60    8.40
   3  -9   4   33.90    9.50
  -5  -8   4   53.09   11.70
  -4  -8   4  152.98   18.50
  -3  -8   4   31.30    9.60
  -2  -8   4    9.80    6.20
  -1  -8   4   -1.10    4.40
   0  -8   4    3.50    4.80
   0  -8   4    0.60    3.30
   1  -8   4    4.20    5.50
   1  -8   4   11.40    5.70
   2  -8   4    1.50    5.40
   2  -8   4   -4.00    3.20
   3  -8   4   27.80    8.70
   4  -8   4    1.50    6.00
   5  -8   4    7.70    7.20
  -6  -7   4    7.20    6.10
  -5  -7   4   -0.50    4.30
  -4  -7   4  116.39   16.00
  -3  -7   4    1.40    3.10
  -2  -7   4   85.69   14.00
  -1  -7   4  186.58    8.40
  -1  -7   4  204.38   17.40
   0  -7   4   38.90    7.70
   0  -7   4   38.20    9.80
   1  -7   4  169.58   21.50
   1  -7   4  115.99   13.40
   2  -7   4  104.39   14.90
   2  -7   4   82.79   15.50
   3  -7   4   62.39   12.40
   4  -7   4  147.29   18.80
   5  -7   4   36.70    9.70
  -6   7  -4   16.60    8.50
  -7  -6   4   -3.60    4.10
  -6  -6   4   26.40    8.40
  -5  -6   4   48.00   10.00
  -4  -6   4   39.50    9.50
  -3  -6   4  200.58   15.50
  -2  -6   4  388.46   21.80
  -1  -6   4   20.10    6.80
  -1  -6   4   33.40    5.40
   0  -6   4  115.89   15.20
   0  -6   4  115.39   12.00
   1  -6   4  174.98   14.00
   1  -6   4  180.68   20.70
   2  -6   4   48.40   10.00
   2  -6   4   24.20    8.00
   3  -6   4   60.89   12.40
   3  -6   4   65.79   12.10
  -4   6  -4  133.29   18.30
   4  -6   4  132.09   17.70
  -5   6  -4   48.70   12.00
   5  -6   4   31.10    9.40
  -6   6  -4   14.60    7.60
  -7   6  -4   -0.80    5.40
  -8  -5   4    0.30    4.80
  -7  -5   4  146.59   16.30
  -6  -5   4   61.19   10.90
  -5  -5   4    0.50    3.60
  -4  -5   4  166.48   14.20
  -3  -5   4  143.99   12.40
  -2  -5   4   -0.40    1.70
  -1  -5   4   53.59    9.50
  -1  -5   4   61.59    7.50
   0  -5   4  266.97   17.80
   0  -5   4  293.07   15.70
   1  -5   4   55.29   10.60
   1  -5   4   58.39   10.20
   2  -5   4    3.30    3.80
   2  -5   4    3.10    3.60
  -3   5  -4    4.80    4.00
   3  -5   4    1.20    3.80
   3  -5   4    2.60    3.70
  -4   5  -4  426.96   25.20
   4  -5   4  437.26   25.30
  -5   5  -4    0.20    4.70
  -5   5  -4    1.30    5.30
  -6   5  -4    9.70    7.40
  -6   5  -4   11.20    6.80
  -7   5  -4   31.70    9.70
  -7   5  -4   28.60   10.90
  -8  -4   4   30.70    9.20
  -7  -4   4    9.60    5.50
  -6  -4   4  107.59   14.00
  -5  -4   4    3.20    3.80
  -4  -4   4    1.80    2.60
  -3  -4   4  286.67   17.00
  -2  -4   4   11.70    2.30
  -2  -4   4    8.60    3.80
  -2  -4   4   14.40    2.50
  -1  -4   4   40.30    6.40
  -1  -4   4   46.00    8.40
   0  -4   4  553.44   23.50
   0  -4   4  564.44   21.20
  -1   4  -4    3.00    3.00
  -1   4  -4   24.60    6.70
   1  -4   4   11.70    4.90
   1  -4   4   23.20    6.20
  -2   4  -4  198.28   15.40
  -2   4  -4  203.78   14.70
   2  -4   4  191.68   15.40
   2  -4   4  192.78   14.30
  -3   4  -4  371.16   21.90
  -3   4  -4  341.47   20.00
   3  -4   4  340.27   20.10
   3  -4   4  328.67   20.20
  -4   4  -4    1.70    4.40
  -4   4  -4    3.30    3.70
   4  -4   4   -1.70    2.70
  -5   4  -4  168.08   18.70
  -5   4  -4  148.39   17.70
  -6   4  -4   84.79   15.10
  -6   4  -4   70.69   12.10
  -7   4  -4   13.40    6.00
  -7   4  -4   10.00    6.20
  -8  -3   4    8.30    5.80
  -7  -3   4   70.09   11.70
  -6  -3   4   43.30    9.30
  -5  -3   4  220.88    9.30
  -5  -3   4  210.88   14.90
  -4  -3   4  815.92   28.20
  -3  -3   4  234.68   14.50
  -2  -3   4  531.75   21.10
  -2  -3   4  571.64   14.20
  -2  -3   4  515.85   18.10
  -2  -3   4  527.55   13.80
  -2  -3   4  572.04   14.50
   1   3  -4  219.98   13.30
  -1  -3   4  220.18   12.10
  -1  -3   4  197.68   13.00
  -1  -3   4  212.98   11.10
   0   3  -4   47.20    8.20
   0   3  -4   59.39    8.40
   0  -3   4   31.10    5.90
   0  -3   4   53.19    9.00
  -1   3  -4  125.99   10.40
  -1   3  -4  101.99   11.60
   1  -3   4  133.19   14.10
   1  -3   4  127.29   10.50
  -2   3  -4  218.68   14.70
  -2   3  -4  218.08   14.30
   2  -3   4  185.88   13.20
  -3   3  -4    7.30    4.60
  -3   3  -4    5.30    5.10
  -3   3  -4    4.30    3.80
  -3   3  -4    5.70    3.40
   3  -3   4    4.80    3.30
   3  -3   4    1.40    3.30
  -4   3  -4   14.50    6.20
  -4   3  -4   27.70    7.40
  -4   3  -4   32.50    8.70
   4  -3   4   31.50    7.90
  -5   3  -4   20.10    7.20
  -5   3  -4   14.10    5.70
  -5   3  -4   14.80    6.70
  -6   3  -4   26.70    7.20
  -6   3  -4   33.70    9.50
  -6   3  -4   39.20   11.20
  -7   3  -4   48.60    9.50
  -7   3  -4   15.40    8.90
  -7   3  -4   39.20   10.80
  -8   3  -4    6.70    7.50
  -8   3  -4   -1.00    5.50
  -8   3  -4   -1.30    6.40
  -9  -2   4  102.39   16.20
  -8  -2   4  161.28   18.50
  -7  -2   4   20.10    6.80
  -6  -2   4  158.58   13.60
  -5  -2   4  466.25   21.80
  -4  -2   4   14.80    4.50
  -3  -2   4  206.08   13.10
  -3  -2   4  202.18    7.10
  -3  -2   4  202.88   11.50
  -3  -2   4  197.68    7.10
   2   2  -4   33.20    6.10
  -2  -2   4   25.40    5.40
  -2  -2   4   50.19    7.30
  -2  -2   4   32.00    4.40
   1   2  -4  205.58   11.90
  -1  -2   4  180.38   10.20
  -1  -2   4  192.48   11.90
   0   2  -4  143.19   10.30
   0   2  -4  144.69    9.90
   0  -2   4  145.99   10.00
  -1   2  -4    1.60    2.30
  -1   2  -4    6.40    3.00
   1  -2   4    4.30    2.80
  -2   2  -4   76.19    9.80
  -2   2  -4   60.69    8.80
   2  -2   4   84.49   10.50
  -3   2  -4  121.29   10.30
  -3   2  -4  101.89   11.90
  -3   2  -4  124.39   13.90
  -3   2  -4   97.69   12.30
   3  -2   4   98.49   11.50
   3  -2   4  124.29   13.30
  -4   2  -4    7.00    3.90
  -4   2  -4   14.20    5.50
  -4   2  -4   13.00    4.90
  -5   2  -4  311.97   21.20
  -5   2  -4  352.06   18.40
  -5   2  -4  334.77   20.20
  -6   2  -4    1.00    4.40
  -6   2  -4   -0.10    4.00
  -6   2  -4    7.50    3.90
  -7   2  -4   13.40    7.40
  -7   2  -4   27.60    8.80
  -7   2  -4    5.70    5.00
  -8   2  -4   95.89   18.50
  -8   2  -4   81.29   10.60
  -8   2  -4   78.69   13.70
  -9  -1   4   37.70   10.90
  -8  -1   4  170.08   20.20
  -8  -1   4  166.08    9.90
  -7  -1   4   21.40    7.50
  -6  -1   4   34.50    8.10
  -5  -1   4  268.67   16.80
  -4  -1   4   97.69   11.90
  -4  -1   4   98.79    5.50
  -4  -1   4   91.09    5.70
   3   1  -4   -0.10    2.10
  -3  -1   4    0.80    1.30
  -3  -1   4   -0.30    1.40
  -3  -1   4    0.90    1.90
  -3  -1   4    1.50    2.10
   2   1  -4  478.65   17.90
  -2  -1   4  506.05   19.20
  -2  -1   4  514.55   15.50
  -2  -1   4  473.85   17.40
   1   1  -4  167.88   10.60
  -1  -1   4  168.78    9.60
   0   1  -4   14.20    4.10
   0   1  -4   13.70    3.90
   0  -1   4    7.80    3.00
  -1   1  -4  488.75   17.60
  -1   1  -4  487.75   18.30
   1  -1   4  461.55   17.10
  -2   1  -4  250.97   13.10
  -2   1  -4  253.77   13.70
   2  -1   4  251.27   13.10
  -3   1  -4  338.37   17.20
  -3   1  -4  326.37   16.50
  -3   1  -4  291.57   14.70
  -3   1  -4  298.87   16.70
   3  -1   4  321.17   16.10
   3  -1   4  366.26   16.60
  -4   1  -4  831.22   25.60
  -4   1  -4  813.52   27.70
  -4   1  -4  785.22   29.30
  -5   1  -4    0.30    2.30
  -5   1  -4   -2.50    2.60
  -5   1  -4   -0.80    2.50
  -6   1  -4   51.79    9.70
  -6   1  -4   48.70   10.80
  -6   1  -4   56.49    8.60
  -7   1  -4  132.09    9.40
  -7   1  -4  117.89   16.60
  -7   1  -4  128.39   15.20
  -8   1  -4   12.70    6.90
  -8   1  -4    5.20    6.60
  -9   1  -4   24.40   10.60
  -9   0   4  116.19   11.50
  -9   0   4   91.69   16.60
  -8   0   4   -3.50    3.30
  -8   0   4    6.70    5.60
  -7   0   4   36.80    9.60
  -6   0   4   55.99    4.00
  -6   0   4   48.10    9.70
  -5   0   4   -0.10    1.70
  -5   0   4   -0.10    1.90
  -5   0   4    2.30    3.40
  -4   0   4  491.65   21.40
  -4   0   4  487.95   15.90
   3   0  -4  957.60   26.70
  -3   0   4  923.11   25.60
  -3   0   4  935.61   28.00
  -3   0   4  957.10   22.90
   2   0  -4  731.23   22.00
  -2   0   4  756.32   20.10
   1   0  -4  169.98   10.30
   1   0  -4  176.98   10.00
  -1   0   4  180.58    9.80
   0   0  -4  497.85   17.20
   0   0  -4  523.55   17.00
   0   0   4  498.05   16.60
  -1   0  -4   13.60    3.70
  -1   0  -4   17.50    4.30
   1   0   4   17.10    4.10
  -2   0  -4   57.79    7.20
  -2   0  -4   60.89    7.40
  -3   0  -4   28.20    6.00
  -3   0  -4   25.40    5.80
  -3   0  -4   22.50    4.60
  -3   0  -4   31.70    5.80
  -3   0  -4   21.20    4.80
   3   0   4   21.20    4.90
  -4   0  -4    2.40    2.90
  -4   0  -4   -1.40    1.70
  -4   0  -4    3.40    2.40
  -5   0  -4  161.18   13.50
  -5   0  -4  179.78   12.60
  -5   0  -4  193.38    9.90
  -6   0  -4   12.50    4.90
  -6   0  -4    6.90    2.00
  -6   0  -4    5.30    4.00
  -7   0  -4  158.38   13.30
  -7   0  -4  173.88   19.10
  -8   0  -4   33.30    9.80
  -8   0  -4   34.70    7.50
  -9   0  -4   -1.80    5.20
  -9   0  -4  -13.40    3.80
  -9   1   4   -3.40    4.70
  -8   1   4   75.49   14.30
  -7   1   4  199.48   10.00
  -7   1   4  198.98   22.10
  -6   1   4   -6.80    2.10
  -6   1   4    3.60    4.10
  -5   1   4  136.99   15.90
  -5   1   4  122.39    9.20
  -4   1   4  628.74   24.90
  -4   1   4  603.44   19.80
   3  -1  -4   21.60    5.10
   3  -1  -4   20.70    5.20
  -3   1   4   21.40    4.60
  -3   1   4   19.30    5.10
   2  -1  -4 1269.87   28.70
   2  -1  -4 1235.08   29.50
  -2   1   4 1249.57   27.30
   1  -1  -4  674.13   19.30
   1  -1  -4  651.23   19.70
  -1   1   4  685.43   19.30
   0  -1  -4  179.28    9.80
   0  -1  -4  187.48    9.50
   0   1   4  186.48    9.80
  -1  -1  -4  787.52   20.60
  -1  -1  -4  786.32   19.10
  -2  -1  -4   29.00    5.30
  -2  -1  -4   28.60    4.60
  -2  -1  -4   23.00    3.80
  -2  -1  -4   28.50    5.10
  -3  -1  -4 2125.19   39.40
  -3  -1  -4 2167.48   40.10
  -3  -1  -4 2142.79   35.60
  -3  -1  -4 2214.88   30.60
  -3  -1  -4 2191.98   38.10
  -3  -1  -4 2164.88   29.30
  -4  -1  -4   37.10    6.20
  -4  -1  -4   30.10    5.10
  -4  -1  -4   32.10    2.40
  -4  -1  -4   32.10    2.40
  -4  -1  -4   28.00    5.80
  -5  -1  -4  159.98   12.50
  -5  -1  -4  141.69    9.80
  -6  -1  -4  405.06   21.30
  -6  -1  -4  429.96   16.90
  -7  -1  -4  260.17   13.10
  -7  -1  -4  278.07   19.30
  -8  -1  -4    0.90    2.60
  -8  -1  -4   -1.80    3.90
  -9  -1  -4  104.59   16.90
  -9   2   4   44.70   12.70
  -8   2   4   26.00    9.90
  -8   2   4   47.80    7.00
  -7   2   4  225.28   19.70
  -7   2   4  272.37   15.20
  -6   2   4   91.69   14.00
  -6   2   4   92.59   10.70
  -5   2   4    1.50    2.70
  -5   2   4   -0.10    3.50
   4  -2  -4 1021.80   35.90
   4  -2  -4 1015.60   30.60
  -4   2   4 1014.10   28.20
  -4   2   4  973.00   32.50
   3  -2  -4    4.50    3.00
   3  -2  -4    5.80    2.90
  -3   2   4    6.10    3.80
  -3   2   4    9.60    3.80
   2  -2  -4  457.45   17.20
   2  -2  -4  462.15   18.00
  -2   2   4  453.75   16.90
   1  -2  -4 1610.24   31.10
   1  -2  -4 1644.34   32.70
  -1   2   4 1582.14   31.30
   0  -2  -4   72.09    7.60
   0  -2  -4   74.49    5.80
  -1  -2  -4   11.20    2.90
  -1  -2  -4   15.00    2.90
  -2  -2  -4 1058.49   14.60
  -2  -2  -4 1046.60   14.40
  -2  -2  -4 1070.29   21.30
  -2  -2  -4 1039.10   20.90
  -2  -2  -4 1015.10   24.50
  -3  -2  -4    3.70    2.30
  -3  -2  -4   10.30    2.60
  -3  -2  -4    7.70    2.20
  -4  -2  -4   18.70    4.60
  -4  -2  -4   20.10    3.40
  -4  -2  -4   13.90    3.90
  -4  -2  -4   20.20    3.20
  -5  -2  -4  625.74   22.30
  -5  -2  -4  605.84   13.20
  -5  -2  -4  608.64   12.80
  -6  -2  -4  397.66   19.50
  -7  -2  -4    7.20    4.30
  -8  -2  -4  215.78   17.80
  -9  -2  -4    1.70    6.00
  -9   3   4    7.10    7.40
  -9   3   4   -6.30    4.50
  -8   3   4  228.08   16.40
  -8   3   4  247.78   27.20
  -7   3   4   47.60   11.40
  -7   3   4   65.49   10.20
  -6   3   4   74.29   13.50
  -6   3   4   49.30    8.40
  -6   3   4   39.40    8.20
  -5   3   4 1055.59   32.90
  -5   3   4 1059.69   38.20
   4  -3  -4   13.00    4.60
   4  -3  -4   16.90    5.50
  -4   3   4   24.40    7.40
  -4   3   4   23.50    6.10
   3  -3  -4  234.18   14.50
   3  -3  -4  251.47   14.40
  -3   3   4  252.97   14.40
   2  -3  -4 1575.34   34.50
   2  -3  -4 1600.24   35.80
  -2   3   4 1666.03   35.50
   1  -3  -4  314.47   13.30
   1  -3  -4  321.77   14.20
  -1   3   4  319.67   13.90
   0  -3  -4   38.00    4.90
   0  -3  -4   30.60    4.70
  -1  -3  -4   13.70    2.30
  -1  -3  -4   10.10    2.50
  -1  -3  -4   15.30    2.50
  -1  -3  -4   11.10    3.40
  -2  -3  -4  701.43   14.50
  -2  -3  -4  691.13   19.00
  -2  -3  -4  715.73   14.50
  -3  -3  -4  449.76   15.00
  -4  -3  -4  258.57   11.60
  -5  -3  -4   10.00    3.50
  -5  -3  -4    9.30    3.40
  -6  -3  -4   37.20    7.00
  -7  -3  -4    3.20    3.90
  -8  -3  -4   29.70    7.80
  -9  -3  -4  -11.90    4.70
  -8   4   4   -0.40    6.20
  -8   4   4    1.00    4.60
  -7   4   4    3.80    4.30
  -7   4   4   10.80    7.40
  -6   4   4  595.24   26.90
  -6   4   4  523.15   25.40
  -6   4   4  580.54   31.40
  -5   4   4    3.40    4.40
  -5   4   4    7.80    5.00
   4  -4  -4  193.98   15.10
   4  -4  -4  190.08   14.20
  -4   4   4  231.88   15.80
  -4   4   4  202.58   16.20
   3  -4  -4 1096.39   33.50
   3  -4  -4 1076.89   31.60
  -3   4   4 1143.29   32.50
   2  -4  -4   66.09    8.70
   2  -4  -4  101.19   11.10
  -2   4   4   77.89    9.60
   1  -4  -4  264.27   13.60
   1  -4  -4  252.07   12.20
   1  -4  -4  260.77   14.60
  -1   4   4  269.67   13.50
   0  -4  -4  203.48   10.60
   0  -4  -4  201.78   11.60
   0  -4  -4  203.68    9.40
  -1  -4  -4  313.27   13.60
  -1  -4  -4  326.67   11.50
  -2  -4  -4   95.79    3.90
  -2  -4  -4   85.39    6.90
  -2  -4  -4   89.79    3.70
  -3  -4  -4    2.70    2.10
  -4  -4  -4  605.24   17.10
  -5  -4  -4  123.69    8.10
  -6  -4  -4   79.59    8.70
  -6  -4  -4   92.59    8.00
  -7  -4  -4  218.18   13.30
  -7  -4  -4  189.78   12.20
  -8  -4  -4    0.30    3.80
  -9  -4  -4   34.70    8.80
  -9  -4  -4   29.80    8.00
  -8   5   4    2.60    4.40
  -7   5   4    6.90    4.30
  -6   5   4   40.70    8.80
  -6   5   4   45.50   10.60
   5  -5  -4   42.40    9.70
  -5   5   4   38.00    9.10
   4  -5  -4    1.30    3.20
   4  -5  -4    3.70    3.40
  -4   5   4   10.00    5.70
   3  -5  -4   74.59   11.10
   3  -5  -4   80.29   12.00
   3  -5  -4   74.99   10.40
  -3   5   4  104.59   13.00
   2  -5  -4   -1.70    1.80
   2  -5  -4    1.70    2.70
   2  -5  -4    1.90    2.00
  -2   5   4    0.60    3.20
   1  -5  -4   93.59    8.10
   1  -5  -4  114.79   13.20
   1  -5  -4   88.19   10.00
  -1   5   4  106.19   11.70
   0  -5  -4 2069.39   32.80
   0  -5  -4 2052.89   38.40
   0  -5  -4 2076.49   42.20
   0  -5  -4 2018.60   33.00
  -1  -5  -4   40.90    6.60
  -1  -5  -4   46.90    5.60
  -2  -5  -4  170.58    9.70
  -3  -5  -4 1265.37   25.30
  -4  -5  -4   54.99    6.20
  -5  -5  -4  258.87   11.10
  -6  -5  -4  314.97   13.00
  -7  -5  -4    3.10    2.50
  -8  -5  -4   24.10    5.60
  -8   6   4   21.90    7.70
  -7   6   4   35.30    9.10
  -6   6   4    4.90    5.80
  -6   6   4   25.30    8.20
   5  -6  -4   45.20   10.20
  -5   6   4   29.30    8.70
   4  -6  -4  857.21   35.00
   4  -6  -4  863.51   33.60
  -4   6   4  831.82   33.50
   3  -6  -4   11.20    5.20
   3  -6  -4   11.40    5.40
   3  -6  -4    6.90    4.30
  -3   6   4    4.80    4.70
   2  -6  -4  132.09   11.40
   2  -6  -4  114.49   13.40
   2  -6  -4  158.88   17.70
   1  -6  -4  859.01   27.80
   1  -6  -4  838.92   24.50
   1  -6  -4  814.32   29.80
   0  -6  -4   95.39   11.20
   0  -6  -4   98.19    6.60
   0  -6  -4   96.69    8.30
  -1  -6  -4   95.99   10.70
  -1  -6  -4   77.89    6.20
  -2  -6  -4  429.36   16.40
  -3  -6  -4  116.39    7.90
  -4  -6  -4   37.70    5.10
  -5  -6  -4   98.29    6.10
  -6  -6  -4   98.79    6.40
  -7  -6  -4   51.89    5.80
  -8  -6  -4   28.40    5.60
  -7   7   4    1.20    5.00
  -6   7   4   15.30    7.80
  -6   7   4   17.70    8.10
   5  -7  -4  231.78   19.90
  -5   7   4  193.68   21.60
   4  -7  -4   61.69   12.00
   4  -7  -4  101.19   15.40
   3  -7  -4  110.59   16.60
   3  -7  -4  113.89   15.00
   3  -7  -4  123.39   15.80
   2  -7  -4  412.26   22.00
   2  -7  -4  395.76   23.60
   2  -7  -4  407.06   19.40
   1  -7  -4   36.90    8.50
   1  -7  -4   27.10    5.70
   1  -7  -4   40.40    7.90
   0  -7  -4   83.89    9.70
   0  -7  -4   87.49   12.10
   0  -7  -4   79.99    5.60
  -1  -7  -4  127.49    8.30
  -1  -7  -4  120.89   10.60
  -2  -7  -4  256.27   14.10
  -3  -7  -4   42.50    6.60
  -4  -7  -4   16.30    4.00
  -5  -7  -4  319.47   10.40
   6  -8  -4   13.30    7.20
  -6   8   4    2.30    5.50
  -6   8   4   -4.60    6.10
   5  -8  -4   33.70    9.40
   4  -8  -4   24.60    8.40
   4  -8  -4   41.70   10.30
   3  -8  -4   30.30    7.40
   3  -8  -4   44.70   10.70
   3  -8  -4   23.20    8.30
   2  -8  -4  408.56   23.20
   2  -8  -4  376.86   19.30
   2  -8  -4  405.46   25.50
   1  -8  -4   32.70    7.80
   1  -8  -4   -9.10    5.20
   1  -8  -4   24.90    7.60
   0  -8  -4   18.80    5.30
   0  -8  -4   15.60    6.00
  -1  -8  -4  245.58   16.40
  -1  -8  -4  255.07   11.80
  -2  -8  -4    3.30    3.60
  -3  -8  -4  122.89   10.30
  -4  -8  -4  553.94   18.50
  -5  -8  -4   71.49    5.80
   5  -9  -4   -4.80    4.60
   4  -9  -4    5.80    5.90
   4  -9  -4    1.90    4.60
   3  -9  -4  123.79   18.90
   3  -9  -4  156.08   16.90
   3  -9  -4  101.69   15.00
   2  -9  -4   13.00    6.30
   2  -9  -4   10.30    5.10
   1  -9  -4   23.60    8.20
   1  -9  -4   28.80    5.60
   1  -9  -4   24.60    6.80
   0  -9  -4  346.97   22.40
   0  -9  -4  343.77   18.20
  -1  -9  -4   21.10    6.90
  -1  -9  -4   18.10    4.40
  -2  -9  -4   61.39   10.70
  -3  -9  -4  462.25   21.20
  -4  -9  -4   26.80    6.20
  -5  -9  -4    6.90    3.50
   4 -10  -4  200.78   24.20
   4 -10  -4  219.78   23.00
   3 -10  -4   10.10    7.30
   3 -10  -4   10.10    5.60
   2 -10  -4   46.40   12.40
   2 -10  -4   47.40    9.20
   2 -10  -4   45.60   10.50
   1 -10  -4   46.10    6.30
   1 -10  -4   41.00    9.10
   1 -10  -4   55.39   13.10
   0 -10  -4  105.09   12.20
   0 -10  -4  131.09   18.90
  -1 -10  -4    0.30    3.70
  -2 -10  -4    9.40    6.10
  -3 -10  -4  140.09   15.50
  -4 -10  -4    4.40    3.90
  -5 -10  -4   11.80    4.60
   3 -11  -4   -1.70    5.80
   2 -11  -4   -2.40    5.80
   2 -11  -4    4.90    4.80
   1 -11  -4   61.79   14.80
   1 -11  -4   63.49   13.10
   0 -11  -4    3.00    5.10
   0 -11  -4    3.40    4.50
  -1 -11  -4   20.50    8.50
  -2 -11  -4  157.08   19.60
  -3 -11  -4    5.20    5.00
  -3  -9   5    3.70    5.40
  -2  -9   5    4.20    5.60
  -1  -9   5   -0.40    5.70
   0  -9   5   71.29   15.60
   0  -9   5   39.40    7.10
   1  -9   5    5.80    6.30
   1  -9   5    2.00    6.10
   2  -9   5    1.80    6.60
  -5  -8   5    1.40    5.20
  -4  -8   5   50.79   12.40
  -3  -8   5  104.49   17.20
  -2  -8   5   17.50    7.40
  -1  -8   5  160.18   21.80
   0  -8   5   17.50    8.20
   0  -8   5   13.80    5.20
   1  -8   5    1.40    4.90
   1  -8   5    8.60    6.00
   2  -8   5   45.80   10.90
   3  -8   5   10.50    6.30
   4  -8   5    5.00    6.10
  -6  -7   5   38.80   11.40
  -5  -7   5   89.69   15.70
  -4  -7   5   -0.20    4.10
  -3  -7   5   19.20    7.80
  -2  -7   5   68.69   13.50
  -1  -7   5    3.10    4.40
  -1  -7   5    4.00    2.90
   0  -7   5    1.80    4.30
   0  -7   5    5.80    4.70
   1  -7   5   94.29   13.20
   1  -7   5   89.09   15.20
   2  -7   5    2.50    4.70
   3  -7   5   -0.60    3.90
   4  -7   5    0.40    5.00
   5  -7   5   95.49   16.80
  -7  -6   5    0.80    5.10
  -6  -6   5   57.29   12.10
  -5  -6   5   35.80    9.80
  -4  -6   5    0.10    3.60
  -3  -6   5    4.90    4.20
  -2  -6   5  142.89   17.90
  -1  -6   5    1.30    4.00
  -1  -6   5    3.40    2.70
   0  -6   5   37.50    8.70
   0  -6   5   52.49    8.80
   1  -6   5   84.79   11.90
   1  -6   5  117.69   17.40
   2  -6   5    2.30    3.40
   3  -6   5   11.20    5.60
  -4   6  -5   84.59   18.00
   4  -6   5  101.09   15.70
  -5   6  -5   27.70   10.00
  -6   6  -5   -1.20    5.20
  -7  -5   5    4.40    5.20
  -6  -5   5   53.19   10.90
  -5  -5   5   43.90    9.70
  -4  -5   5    7.30    4.40
  -3  -5   5  394.56   22.90
  -2  -5   5  306.77   19.50
  -2  -5   5  294.27    9.90
  -1  -5   5   65.09    8.80
  -1  -5   5   68.69   11.60
   0  -5   5  461.15   21.00
   0  -5   5  414.56   23.70
   1  -5   5   89.69   14.00
   1  -5   5   88.29   12.10
   2  -5   5   -4.00    2.50
   2  -5   5    3.70    4.00
  -3   5  -5  283.87   21.00
   3  -5   5  235.78   18.60
  -4   5  -5   63.69   12.50
   4  -5   5   61.39   12.70
  -5   5  -5   -1.40    3.80
  -6   5  -5   13.90    8.40
  -6   5  -5   16.60    8.00
  -7   5  -5    9.60    8.90
  -7   5  -5    8.10    5.90
  -8  -4   5   10.00    6.40
  -7  -4   5  181.98   19.70
  -6  -4   5    6.30    4.80
  -5  -4   5   18.10    6.50
  -4  -4   5  598.54   27.00
  -3  -4   5   71.39   11.20
  -2  -4   5   21.70    6.60
  -2  -4   5   16.40    3.80
  -1  -4   5  122.99    9.80
  -1  -4   5   99.99   13.00
   0  -4   5    4.20    2.70
   0  -4   5   -0.60    2.20
  -1   4  -5    1.40    3.50
   1  -4   5    5.10    3.80
   1  -4   5    6.90    3.90
  -2   4  -5   20.80    6.40
   2  -4   5   14.80    5.60
   2  -4   5   -0.10    3.10
  -3   4  -5   26.80    8.10
  -3   4  -5   22.30    7.70
   3  -4   5   33.10    8.60
  -4   4  -5    9.50    5.20
  -4   4  -5    9.90    5.30
   4  -4   5    1.60    4.10
  -5   4  -5    0.50    3.50
  -5   4  -5    0.80    4.90
  -6   4  -5   70.19   14.20
  -6   4  -5   96.19   15.00
  -7   4  -5   -5.90    3.80
  -7   4  -5  -11.80    6.00
  -8  -3   5  301.37   22.40
  -7  -3   5    7.00    5.50
  -6  -3   5    9.60    5.30
  -5  -3   5  106.19   14.10
  -4  -3   5   30.40    7.60
  -3  -3   5   46.40    8.40
  -3  -3   5   50.49    4.10
  -3  -3   5   46.30    4.90
  -3  -3   5   44.00    3.80
  -2  -3   5   37.10    5.80
  -2  -3   5   24.60    6.50
  -1  -3   5  151.78   10.70
  -1  -3   5  164.28   12.80
   0   3  -5   95.89   12.30
   0   3  -5   83.69   10.50
   0  -3   5  109.29   13.40
   0  -3   5   87.29   10.90
  -1   3  -5    9.90    4.90
  -1   3  -5    8.20    3.80
   1  -3   5    9.80    4.30
   1  -3   5   10.00    4.20
  -2   3  -5  309.57   19.20
  -2   3  -5  306.97   17.90
   2  -3   5  314.27   19.20
   2  -3   5  292.37   17.50
  -3   3  -5   42.00    9.80
  -3   3  -5   33.00    8.10
  -3   3  -5   25.00    6.90
   3  -3   5   35.80    8.40
  -4   3  -5    2.30    4.10
  -4   3  -5    0.10    3.00
  -4   3  -5   -0.60    4.00
  -4   3  -5   -2.00    4.10
  -5   3  -5  157.78   20.60
  -5   3  -5  142.79   18.30
  -5   3  -5  168.88   19.70
  -5   3  -5  154.48   16.70
  -6   3  -5    1.10    5.30
  -6   3  -5   -1.90    3.50
  -6   3  -5   -4.30    4.90
  -7   3  -5    7.30    6.80
  -7   3  -5    0.20    5.80
  -7   3  -5    7.20    5.60
  -8   3  -5   61.09   11.20
  -8   3  -5   43.60   13.80
  -8  -2   5  161.28   19.60
  -7  -2   5   11.50    6.40
  -6  -2   5    0.40    4.10
  -5  -2   5  218.68   16.50
  -4  -2   5  237.58    6.30
  -4  -2   5  244.18    6.10
  -4  -2   5  234.48   16.10
  -3  -2   5  183.08   13.80
  -3  -2   5  174.18    8.80
  -2  -2   5 1334.87   36.70
  -2  -2   5 1309.57   28.90
   1   2  -5  397.26   18.60
   1   2  -5  406.56   17.90
  -1  -2   5  385.16   19.30
  -1  -2   5  392.46   16.80
   0   2  -5   46.10    8.20
   0   2  -5   43.10    7.80
   0  -2   5   31.90    7.00
   0  -2   5   46.90    7.90
  -1   2  -5  435.36   19.10
  -1   2  -5  405.96   19.50
   1  -2   5  429.76   19.30
  -2   2  -5   31.10    7.50
  -2   2  -5   15.70    5.00
   2  -2   5   15.20    5.00
  -3   2  -5    0.40    2.40
  -3   2  -5    1.10    3.60
  -3   2  -5    0.50    2.70
   3  -2   5   -1.30    2.20
  -4   2  -5  400.06   22.20
  -4   2  -5  400.76   23.10
  -4   2  -5  395.46   23.00
  -4   2  -5  396.26   20.20
  -5   2  -5   35.50    9.60
  -5   2  -5   54.29   11.10
  -5   2  -5   46.20    8.70
  -6   2  -5   -0.10    4.40
  -6   2  -5   -1.00    3.00
  -6   2  -5    2.10    4.50
  -7   2  -5  101.79   12.50
  -7   2  -5   95.09   17.80
  -7   2  -5   96.39   14.80
  -8   2  -5    4.10    4.80
  -8   2  -5    8.40    7.60
  -8   2  -5    2.50    5.90
  -9  -1   5  120.39   18.70
  -8  -1   5   28.40    5.80
  -8  -1   5   20.20    8.20
  -7  -1   5   16.10    7.00
  -6  -1   5  573.94   27.50
  -5  -1   5    5.30    1.80
  -5  -1   5    9.40    5.10
  -4  -1   5  173.98    8.70
  -4  -1   5  186.08   14.30
  -3  -1   5  765.92   27.80
  -3  -1   5  762.32   20.90
   2   1  -5   25.50    5.90
  -2  -1   5   22.20    5.80
  -2  -1   5   19.20    4.40
   1   1  -5   59.49    8.40
   1   1  -5   76.29    9.60
  -1  -1   5   61.59    9.30
  -1  -1   5   60.99    8.00
   0   1  -5 1262.67   31.50
   0   1  -5 1272.77   32.80
   0  -1   5 1217.08   30.70
  -1   1  -5  151.58   11.30
  -1   1  -5  154.78   10.90
   1  -1   5  151.18   11.00
  -2   1  -5   50.69    7.60
  -2   1  -5   77.49   10.60
  -2   1  -5   28.70    6.60
   2  -1   5   64.69    9.20
  -3   1  -5  278.37   16.20
  -3   1  -5  271.67   17.00
  -3   1  -5  266.17   14.90
   3  -1   5  262.37   15.50
  -4   1  -5  472.75   23.60
  -4   1  -5  492.95   20.60
  -4   1  -5  458.95   21.80
  -5   1  -5   45.40    9.00
  -5   1  -5   65.69   12.10
  -5   1  -5   33.80    7.00
  -6   1  -5   -1.70    2.80
  -6   1  -5    5.20    4.10
  -6   1  -5    1.90    4.10
  -7   1  -5  212.68   24.20
  -7   1  -5  195.18   16.70
  -7   1  -5  167.98   11.20
  -8   1  -5    0.20    5.40
  -8   1  -5  -12.90    4.30
  -9   0   5   31.70   11.00
  -8   0   5    2.20    5.10
  -7   0   5  177.98   20.50
  -6   0   5   25.30    4.20
  -6   0   5   28.20    8.00
  -5   0   5   28.00    5.00
  -5   0   5   14.30    5.50
  -4   0   5  457.85   22.00
  -4   0   5  460.85   16.70
   3   0  -5  132.29   15.40
   3   0  -5  122.69   10.30
  -3   0   5  104.49    8.30
  -3   0   5   97.19   11.80
   2   0  -5  155.78   11.00
   2   0  -5  135.49   10.70
  -2   0   5  160.38   10.20
  -2   0   5  183.78   12.80
   1   0  -5    0.40    1.60
   1   0  -5    0.60    1.80
  -1   0   5    0.30    1.90
   0   0  -5  548.65   19.50
   0   0  -5  563.34   20.60
   0   0   5  562.44   19.80
  -1   0  -5   36.80    6.20
  -1   0  -5   40.40    6.80
   1   0   5   43.90    7.20
  -2   0  -5   62.69    8.20
  -2   0  -5   74.59    9.60
  -2   0  -5   55.19    8.60
   2   0   5   87.29   10.00
  -3   0  -5  249.48   13.20
  -3   0  -5  242.58   14.10
  -3   0  -5  251.17   15.00
   3   0   5  221.98   17.50
  -4   0  -5  142.69   12.40
  -4   0  -5  152.28   10.40
  -4   0  -5  174.08   13.60
  -4   0  -5  157.38   12.10
  -5   0  -5   21.00    6.00
  -5   0  -5   10.60    5.20
  -5   0  -5    1.30    3.20
  -5   0  -5   15.50    4.00
  -6   0  -5  244.78   10.20
  -6   0  -5  267.17   16.60
  -6   0  -5  259.27   19.20
  -7   0  -5  168.78   13.90
  -7   0  -5  135.79   17.80
  -8   0  -5   53.19    9.70
  -8   0  -5   64.49   13.60
  -9   0  -5   92.39   17.40
  -9   1   5   -6.20    5.30
  -8   1   5  109.89   18.50
  -7   1   5   99.79    8.20
  -7   1   5   85.49   14.40
  -6   1   5    1.90    2.40
  -6   1   5    0.40    2.30
  -6   1   5    2.90    4.40
  -5   1   5   14.50    6.20
  -5   1   5    9.30    3.90
  -4   1   5 1508.25   34.10
  -4   1   5 1469.85   40.60
   3  -1  -5  141.39   11.10
   3  -1  -5  155.18   11.80
  -3   1   5  148.29   10.40
  -3   1   5  141.39   12.00
   2  -1  -5  167.18   11.40
   2  -1  -5  170.58   11.60
  -2   1   5  174.68   11.00
   1  -1  -5 4434.66   62.19
   1  -1  -5 4320.57   63.39
  -1   1   5 4327.57   62.19
   0  -1  -5    1.60    1.90
   0  -1  -5    4.20    2.70
   0   1   5    0.40    1.80
  -1  -1  -5   33.00    5.60
  -1  -1  -5   35.50    6.20
  -2  -1  -5  277.57   13.20
  -2  -1  -5  286.77   12.40
  -2  -1  -5  278.17   13.90
  -2  -1  -5  275.37   14.60
  -3  -1  -5  441.06   16.80
  -3  -1  -5  446.66   14.30
  -3  -1  -5  428.06   18.60
  -3  -1  -5  412.46   14.30
  -3  -1  -5  444.46   17.70
  -4  -1  -5    6.00    2.30
  -4  -1  -5    5.80    2.10
  -4  -1  -5    6.30    3.70
  -4  -1  -5    4.80    3.40
  -4  -1  -5    4.60    2.80
  -5  -1  -5  179.98   11.90
  -5  -1  -5  197.88   14.40
  -5  -1  -5  179.48   13.80
  -6  -1  -5   19.00    6.30
  -6  -1  -5   23.20    7.30
  -7  -1  -5    7.10    4.10
  -7  -1  -5   14.00    5.70
  -8  -1  -5   76.49    8.60
  -8  -1  -5   65.79   12.80
  -9  -1  -5    1.80    5.90
  -9   2   5    2.90    7.20
  -8   2   5  395.76   17.10
  -8   2   5  448.26   30.40
  -7   2   5   60.59   12.80
  -7   2   5   54.39    8.60
  -6   2   5  222.58   18.80
  -6   2   5  175.58   13.00
  -6   2   5  167.38   12.80
  -5   2   5 1423.56   36.80
  -5   2   5 1448.46   44.60
  -4   2   5   23.80    6.10
  -4   2   5   24.30    7.00
   3  -2  -5   10.30    4.20
   3  -2  -5   18.30    5.80
  -3   2   5   16.00    5.40
  -3   2   5   22.30    5.30
   2  -2  -5 2922.71   52.59
   2  -2  -5 3030.80   51.99
  -2   2   5 2952.60   50.49
   1  -2  -5   24.40    5.00
   1  -2  -5   35.40    6.40
  -1   2   5   25.20    5.10
   0  -2  -5  266.97   13.10
   0  -2  -5  272.37   12.30
   0   2   5  247.08   12.60
  -1  -2  -5  610.74   17.20
  -1  -2  -5  620.14   19.30
  -1  -2  -5  606.64   21.20
  -2  -2  -5  428.56   12.60
  -2  -2  -5  442.76   15.40
  -2  -2  -5  443.06   12.50
  -2  -2  -5  463.05   16.30
  -2  -2  -5  432.36   17.70
  -3  -2  -5   82.09    6.70
  -3  -2  -5   98.69    3.60
  -3  -2  -5   96.69    8.70
  -3  -2  -5   91.99    3.40
  -3  -2  -5   91.39    7.30
  -4  -2  -5  200.78   12.60
  -4  -2  -5  212.48   10.70
  -4  -2  -5  221.78   10.10
  -5  -2  -5  138.59    8.40
  -5  -2  -5  151.88   12.00
  -5  -2  -5  155.68   11.90
  -6  -2  -5    3.00    3.40
  -6  -2  -5    0.00    3.10
  -6  -2  -5   -1.80    1.50
  -7  -2  -5    1.50    4.00
  -8  -2  -5   18.30    7.30
  -9  -2  -5    1.20    5.40
  -8   3   5   -3.70    4.90
  -8   3   5    6.80    4.90
  -7   3   5    6.70    6.50
  -7   3   5    3.50    4.60
  -6   3   5   41.90   10.00
  -6   3   5   63.19   10.30
  -5   3   5    1.10    3.40
  -5   3   5    6.30    4.80
   4  -3  -5   90.09   12.30
  -4   3   5  120.99   15.20
  -4   3   5   79.59   10.60
   3  -3  -5  334.97   17.90
   3  -3  -5  316.17   17.10
  -3   3   5  326.27   19.20
  -3   3   5  313.57   16.90
   2  -3  -5   21.00    5.40
   2  -3  -5   17.40    5.00
  -2   3   5   28.40    5.90
   1  -3  -5  461.05   18.60
   1  -3  -5  476.35   17.80
  -1   3   5  512.85   19.00
   0  -3  -5  506.15   19.60
   0  -3  -5  514.25   16.80
   0  -3  -5  513.95   18.30
  -1  -3  -5  565.14   20.10
  -1  -3  -5  547.45   14.60
  -1  -3  -5  550.44   17.40
  -2  -3  -5   68.09    5.80
  -2  -3  -5   62.79    7.90
  -3  -3  -5   64.19    4.80
  -3  -3  -5   81.09    9.40
  -3  -3  -5   63.69    4.80
  -4  -3  -5  672.93   22.40
  -4  -3  -5  692.33   11.40
  -4  -3  -5  691.63   11.30
  -5  -3  -5  228.88   13.40
  -6  -3  -5    3.70    3.40
  -6  -3  -5   -0.50    2.70
  -7  -3  -5  241.38   16.30
  -7  -3  -5  253.07   16.50
  -8  -3  -5   34.00    8.40
  -8  -3  -5   44.70    9.70
  -9  -3  -5   19.00    7.90
  -9  -3  -5   12.80    6.90
  -8   4   5    3.40    5.30
  -7   4   5    6.30    6.60
  -7   4   5    0.10    3.00
  -6   4   5   76.69   15.10
  -6   4   5   76.49   12.30
  -5   4   5   86.49   12.80
  -5   4   5   78.89   14.30
   4  -4  -5   13.70    5.20
   4  -4  -5   13.30    5.70
  -4   4   5    5.50    5.30
  -4   4   5   13.90    5.30
   3  -4  -5  906.71   30.10
   3  -4  -5  864.11   30.70
  -3   4   5  851.11   29.50
   2  -4  -5  294.77   16.40
   2  -4  -5  268.37   15.00
   2  -4  -5  245.18   16.30
  -2   4   5  277.87   15.80
   1  -4  -5    0.40    1.70
   1  -4  -5    2.00    1.80
   1  -4  -5    1.70    2.40
  -1   4   5   -0.60    2.00
   0  -4  -5 1461.75   28.80
   0  -4  -5 1453.05   34.90
   0  -4  -5 1421.16   31.60
  -1  -4  -5   78.69    5.00
  -1  -4  -5   78.19    6.50
  -1  -4  -5   80.99    4.90
  -1  -4  -5   72.69    8.80
  -2  -4  -5    8.30    3.40
  -2  -4  -5   12.30    2.70
  -3  -4  -5 1311.97   30.20
  -4  -4  -5    8.00    3.40
  -5  -4  -5   40.90    6.90
  -6  -4  -5  288.47   15.20
  -7  -4  -5   45.00    8.10
  -8  -4  -5   -3.80    3.50
  -8   5   5    3.30    4.10
  -7   5   5  277.97   21.00
  -7   5   5  218.18   18.50
  -6   5   5    2.00    4.50
  -5   5   5   16.30    6.60
   4  -5  -5  607.14   28.20
   4  -5  -5  620.44   27.20
  -4   5   5  612.04   27.00
   3  -5  -5    1.30    2.80
   3  -5  -5    3.70    3.40
   3  -5  -5    2.60    4.00
  -3   5   5    4.60    3.90
   2  -5  -5   46.80    8.60
   2  -5  -5   39.80    9.00
   2  -5  -5   50.39    8.40
  -2   5   5   26.80    6.70
   1  -5  -5 1629.24   35.70
   1  -5  -5 1687.23   39.50
   1  -5  -5 1707.43   42.50
   0  -5  -5    1.70    2.50
   0  -5  -5    2.10    2.40
   0  -5  -5    3.90    2.30
  -1  -5  -5    6.50    2.80
  -1  -5  -5    5.30    3.10
  -2  -5  -5  934.01   25.80
  -2  -5  -5  932.91   17.00
  -3  -5  -5  279.07   13.40
  -4  -5  -5   71.79    8.40
  -5  -5  -5    6.10    3.20
  -6  -5  -5  286.97   14.60
  -7  -5  -5   41.80    7.60
  -8  -5  -5   31.80    7.50
  -7   6   5   -1.30    4.00
  -6   6   5   27.90    8.50
   5  -6  -5  218.48   18.30
  -5   6   5  211.28   22.10
   4  -6  -5   19.60    8.00
   4  -6  -5   27.50    7.50
  -4   6   5   17.40    7.00
   3  -6  -5    3.50    3.80
   3  -6  -5   13.60    6.20
   3  -6  -5   10.80    5.80
  -3   6   5   10.80    6.40
   2  -6  -5   63.29    9.30
   2  -6  -5   53.69   10.60
   2  -6  -5   54.99    9.50
   1  -6  -5  569.44   20.60
   1  -6  -5  594.24   24.10
   1  -6  -5  619.14   26.60
   0  -6  -5  173.88   11.70
   0  -6  -5  175.28    9.00
   0  -6  -5  175.18   13.50
  -1  -6  -5   48.20    8.10
  -1  -6  -5   45.80    6.40
  -2  -6  -5  266.37    6.70
  -2  -6  -5  268.97   14.20
  -3  -6  -5   89.89    9.60
  -4  -6  -5   56.99    7.10
  -5  -6  -5  434.26   15.80
  -6  -6  -5  247.68   12.30
  -7  -6  -5    1.80    3.10
  -8  -6  -5  126.99   10.50
  -7   7   5    7.60    6.10
  -6   7   5    7.10    6.30
  -6   7   5    6.50    5.30
   5  -7  -5  231.48   19.60
  -5   7   5  243.58   24.40
   4  -7  -5   45.80   11.20
   4  -7  -5   39.00    9.50
   3  -7  -5    1.60    3.90
   3  -7  -5    2.60    4.40
   3  -7  -5    2.00    4.30
   2  -7  -5  642.64   25.80
   2  -7  -5  665.93   30.90
   2  -7  -5  669.23   28.60
   1  -7  -5  173.58   11.30
   1  -7  -5  161.58   14.70
   1  -7  -5  172.98   13.40
   0  -7  -5   59.59    6.20
   0  -7  -5   60.29    9.20
   0  -7  -5   63.19   10.70
  -1  -7  -5  391.76   14.80
  -1  -7  -5  380.66   19.60
  -2  -7  -5   19.60    5.40
  -3  -7  -5    0.10    2.30
  -4  -7  -5  747.73   21.40
  -5  -7  -5   13.90    3.80
  -6  -7  -5    1.10    2.50
  -7  -7  -5  289.57    9.90
   6  -8  -5   53.59   12.30
  -6   8   5   40.20   12.60
  -6   8   5   23.90    8.70
   5  -8  -5   18.00    7.50
   4  -8  -5   13.80    7.50
   4  -8  -5    7.80    5.60
   3  -8  -5  377.46   26.00
   3  -8  -5  369.36   21.70
   3  -8  -5  359.56   23.40
   2  -8  -5   47.30   11.50
   2  -8  -5   35.50    8.60
   2  -8  -5   42.40    8.00
   1  -8  -5   12.40    4.40
   1  -8  -5    8.30    4.70
   1  -8  -5    9.80    4.90
   0  -8  -5  374.06   18.10
   0  -8  -5  370.06   21.80
   0  -8  -5  345.27    9.70
  -1  -8  -5    4.30    3.60
  -1  -8  -5    4.20    2.90
  -2  -8  -5   41.90    8.00
  -3  -8  -5  156.68   12.00
  -4  -8  -5   50.59    7.70
  -5  -8  -5    9.90    3.50
   5  -9  -5   17.40    7.30
   4  -9  -5   30.10   11.00
   4  -9  -5   19.50    7.30
   3  -9  -5   -4.00    3.80
   3  -9  -5    3.70    6.50
   3  -9  -5   -7.00    2.60
   2  -9  -5    2.30    3.90
   2  -9  -5    7.60    5.90
   2  -9  -5    6.70    4.80
   1  -9  -5   57.49   12.10
   1  -9  -5   54.89    8.30
   1  -9  -5   60.79   10.20
   0  -9  -5  135.39   13.90
   0  -9  -5  103.89   15.20
  -1  -9  -5   82.09   12.80
  -1  -9  -5   67.19    7.60
  -2  -9  -5   32.10    8.20
  -3  -9  -5  270.37   16.60
  -4  -9  -5  133.69   11.00
  -5  -9  -5   58.09    7.60
   4 -10  -5   34.60   11.10
   4 -10  -5   28.20    8.80
   3 -10  -5  129.29   15.70
   3 -10  -5  126.59   18.60
   2 -10  -5  -13.60    3.30
   2 -10  -5   -0.60    4.00
   2 -10  -5    2.00    6.20
   1 -10  -5  168.28    9.80
   1 -10  -5  150.58   16.40
   1 -10  -5  161.38   21.10
   0 -10  -5   42.50   11.50
   0 -10  -5   42.50    8.10
  -1 -10  -5    1.50    4.60
  -2 -10  -5  247.38   18.70
  -3 -10  -5   30.80    7.90
  -4 -10  -5    4.60    4.10
  -5 -10  -5  182.08   12.00
   2 -11  -5   27.20   10.80
   2 -11  -5   36.50    8.10
   1 -11  -5   17.20   10.40
   1 -11  -5   12.40    8.40
   0 -11  -5   27.50    7.50
   0 -11  -5   23.10    9.40
  -1 -11  -5    9.00    6.40
  -2 -11  -5    2.80    4.70
  -3 -11  -5    2.50    4.90
  -1  -9   6   36.80   11.70
   0  -9   6   14.10   10.10
   0  -9   6   22.30    6.20
  -4  -8   6   14.10    8.00
  -3  -8   6    6.30    6.90
  -2  -8   6    5.00    6.10
  -1  -8   6   -1.30    4.90
   0  -8   6   23.00   10.10
   0  -8   6   29.50    7.60
   1  -8   6    1.30    5.80
   1  -8   6    7.90    8.10
   2  -8   6   -1.10    4.60
   3  -8   6    1.30    5.40
  -5  -7   6    0.80    4.80
  -4  -7   6   86.09   16.00
  -3  -7   6    7.40    6.30
  -2  -7   6   80.19   15.70
  -1  -7   6  221.48   25.30
  -1  -7   6  192.68   12.30
   0  -7   6    1.90    5.80
   0  -7   6    6.20    5.10
   1  -7   6   62.59   11.60
   1  -7   6   42.10   12.40
   2  -7   6   76.69   13.50
   3  -7   6    7.40    5.60
   4  -7   6   40.90   11.20
   5  -7   6    4.60    7.10
  -6  -6   6   58.59   13.20
  -5  -6   6   41.70   11.30
  -4  -6   6    2.50    5.00
  -3  -6   6  218.78   19.70
  -2  -6   6   81.29   14.50
  -2  -6   6   60.49    4.90
  -1  -6   6    5.60    3.80
  -1  -6   6   -0.90    4.20
   0  -6   6   70.69   11.20
   0  -6   6   62.09   12.70
   1  -6   6    3.30    5.00
   1  -6   6   30.30    8.50
   2  -6   6    2.10    4.40
   3  -6   6   19.40    7.50
   4  -6   6   12.30    6.70
  -5   6  -6   -4.90    5.80
  -6   6  -6    8.80    7.70
  -7  -5   6  163.88   20.60
  -6  -5   6    8.70    5.70
  -5  -5   6   71.39   13.20
  -4  -5   6   76.29   13.10
  -3  -5   6   35.00    9.00
  -2  -5   6    4.10    4.50
  -2  -5   6    2.40    2.60
  -1  -5   6  102.39   14.90
  -1  -5   6  125.29   13.00
   0  -5   6    2.00    3.80
   0  -5   6   13.20    5.30
   1  -5   6   51.39   10.00
   1  -5   6   62.29   12.50
   2  -5   6   23.00    7.10
  -3   5  -6   20.50    8.00
   3  -5   6    8.60    5.50
  -4   5  -6  198.68   23.00
   4  -5   6  187.38   21.20
  -5   5  -6    2.20    5.60
  -6   5  -6    3.70    5.40
  -7  -4   6    0.00    3.90
  -6  -4   6   94.69   15.60
  -5  -4   6   12.40    6.30
  -4  -4   6    4.40    4.10
  -3  -4   6  523.95   26.80
  -3  -4   6  500.25   11.30
  -2  -4   6   26.20    7.80
  -2  -4   6   19.40    5.90
  -1  -4   6  257.57   15.60
  -1  -4   6  252.97   18.20
   0  -4   6  650.83   30.00
   0  -4   6  665.03   26.40
   1  -4   6   15.30    5.90
   1  -4   6   10.00    5.60
  -2   4  -6   75.29   12.50
   2  -4   6   69.39   11.70
  -3   4  -6  116.29   15.80
   3  -4   6  132.79   16.30
  -4   4  -6    3.40    4.40
  -4   4  -6   -3.20    4.80
   4  -4   6    1.50    5.70
  -5   4  -6   42.40    9.90
  -5   4  -6   46.90   11.90
  -6   4  -6   38.60   12.50
  -6   4  -6   35.30    9.80
  -7   4  -6    2.30    4.30
  -7   4  -6    2.30    7.80
  -8  -3   6   29.00   10.00
  -7  -3   6  189.88   21.70
  -6  -3   6   -0.70    3.50
  -5  -3   6  183.58   19.90
  -4  -3   6  235.68   18.10
  -3  -3   6    3.60    3.50
  -3  -3   6    7.90    2.70
  -2  -3   6  308.97   14.70
  -2  -3   6  309.07   19.60
  -1  -3   6  182.78   15.00
  -1  -3   6  191.88   13.10
   0  -3   6    0.80    2.80
   0  -3   6    1.30    3.10
  -1   3  -6   96.59   12.50
  -1   3  -6  109.89   14.30
   1  -3   6  122.39   16.00
   1  -3   6   97.49   12.30
  -2   3  -6   66.39   11.10
  -2   3  -6   85.79   12.40
   2  -3   6   79.79   12.40
  -3   3  -6   -0.60    2.80
  -3   3  -6   -1.70    3.50
   3  -3   6   -1.00    3.40
  -4   3  -6  121.79   17.00
  -4   3  -6  120.89   15.50
  -5   3  -6   61.99   11.40
  -5   3  -6   51.09   11.70
  -6   3  -6   31.30   10.30
  -6   3  -6   28.10   16.90
  -6   3  -6   10.70   10.60
  -6   3  -6   29.10    7.90
  -7   3  -6    6.20    7.90
  -7   3  -6    2.00    5.40
  -7   3  -6    0.60   10.10
  -7   3  -6   14.10    8.30
  -8   3  -6   -8.10    5.40
  -8  -2   6  118.49   17.90
  -7  -2   6    6.10    5.30
  -6  -2   6  272.07   20.60
  -5  -2   6   93.09   14.30
  -4  -2   6    6.40    2.40
  -4  -2   6    4.60    3.90
  -3  -2   6  139.09    9.30
  -3  -2   6  146.29   16.30
  -2  -2   6    3.70    3.30
  -2  -2   6    1.50    1.90
   1   2  -6  356.26   18.40
   1   2  -6  328.17   21.70
  -1  -2   6  353.16   19.90
  -1  -2   6  323.67   16.90
   0   2  -6  155.28   12.90
   0   2  -6  166.48   12.70
   0  -2   6  191.48   14.70
   0  -2   6  157.28   12.50
  -1   2  -6   48.30    9.00
  -1   2  -6   39.70    7.70
   1  -2   6   37.70    8.50
   1  -2   6   49.90    8.90
  -2   2  -6  176.98   19.00
  -2   2  -6  168.98   14.30
  -2   2  -6  153.48   13.20
   2  -2   6  183.98   14.40
  -3   2  -6  189.18   16.50
  -3   2  -6  186.08   14.60
  -3   2  -6  194.98   15.80
   3  -2   6  186.98   15.20
  -4   2  -6    2.80    4.30
  -4   2  -6    3.10    3.20
  -4   2  -6    4.30    5.20
  -5   2  -6  122.59   14.40
  -5   2  -6  126.69   18.90
  -5   2  -6  129.59   18.00
  -5   2  -6  131.99   16.50
  -6   2  -6   22.50    8.50
  -6   2  -6   21.60    8.80
  -6   2  -6   27.40    7.20
  -6   2  -6   23.90    9.30
  -7   2  -6    6.40    6.70
  -7   2  -6    7.10    6.90
  -7   2  -6    3.80    5.90
  -7   2  -6   24.20    8.80
  -8   2  -6  194.28   26.20
  -8   2  -6  172.68   23.80
  -8   2  -6  215.48   15.00
  -8  -1   6   26.70    9.10
  -7  -1   6   10.50    6.60
  -6  -1   6   85.59   14.50
  -5  -1   6  298.27   11.30
  -5  -1   6  291.17   20.20
  -4  -1   6  431.56   23.30
  -4  -1   6  420.86   15.90
  -3  -1   6  263.47   17.90
  -3  -1   6  277.77   13.70
   2   1  -6  888.91   29.10
   2   1  -6  903.91   34.60
  -2  -1   6  907.61   26.60
  -2  -1   6  835.72   30.50
   1   1  -6   -0.30    2.10
   1   1  -6    2.20    2.80
  -1  -1   6    1.50    2.20
  -1  -1   6    2.80    2.60
   0   1  -6 1388.16   36.50
   0   1  -6 1358.16   37.10
   0  -1   6 1319.97   34.90
  -1   1  -6  391.26   18.80
  -1   1  -6  347.37   18.60
   1  -1   6  413.46   19.50
  -2   1  -6   15.70    4.70
  -2   1  -6   11.50    4.60
  -2   1  -6   13.50    5.90
   2  -1   6   19.90    5.70
  -3   1  -6   36.60    9.00
  -3   1  -6   35.40    8.10
  -3   1  -6   25.60    6.00
   3  -1   6   38.80    8.80
  -4   1  -6  810.82   28.40
  -4   1  -6  844.52   31.50
  -4   1  -6  825.72   33.00
  -5   1  -6   15.90    6.70
  -5   1  -6   11.40    5.30
  -5   1  -6    6.20    4.50
  -5   1  -6    5.50    5.30
  -6   1  -6   59.89   12.10
  -6   1  -6   62.49   11.30
  -6   1  -6   60.49    9.40
  -6   1  -6   65.99   13.30
  -7   1  -6  149.19   11.00
  -7   1  -6  125.39   16.00
  -7   1  -6  170.28   22.20
  -7   1  -6  115.89   17.50
  -8   1  -6    2.60    5.30
  -8   1  -6    7.70    6.70
  -8   1  -6    3.10    6.30
  -8   0   6   78.49   15.90
  -7   0   6   91.19   15.60
  -6   0   6  269.57   12.10
  -6   0   6  288.57   12.30
  -6   0   6  303.07   22.00
  -5   0   6  467.85   25.40
  -5   0   6  452.15   17.60
  -4   0   6  846.32   25.50
  -4   0   6  870.61   33.00
  -3   0   6  697.23   23.00
  -3   0   6  689.43   28.00
   2   0  -6   84.09   11.10
   2   0  -6   54.49    8.90
  -2   0   6   84.39   10.60
  -2   0   6   57.99    9.80
   1   0  -6  881.51   27.20
   1   0  -6  841.32   28.00
  -1   0   6  842.22   26.50
   0   0  -6 1215.78   31.90
   0   0  -6 1173.18   33.40
   0   0   6 1201.08   32.20
  -1   0  -6    8.60    3.60
  -1   0  -6    5.70    3.40
   1   0   6    8.70    4.20
  -2   0  -6  323.67   17.40
  -2   0  -6  351.26   19.20
  -2   0  -6  297.37   15.60
   2   0   6  322.17   16.80
  -3   0  -6    7.60    3.30
  -3   0  -6   12.70    5.00
  -3   0  -6    2.50    3.10
  -4   0  -6  103.69   13.20
  -4   0  -6  116.99   12.00
  -4   0  -6  105.49   12.80
  -5   0  -6    0.10    3.30
  -5   0  -6    0.30    3.90
  -5   0  -6    8.50    3.50
  -5   0  -6    2.40    3.20
  -6   0  -6   19.50    6.30
  -6   0  -6   23.50    4.80
  -6   0  -6   10.30    5.70
  -6   0  -6   26.30    8.20
  -7   0  -6   16.40    7.20
  -7   0  -6   41.80   11.10
  -7   0  -6   20.70    7.40
  -8   0  -6    0.50    5.20
  -8   0  -6    5.00    6.10
  -8   1   6  190.48   23.70
  -7   1   6  311.27   24.10
  -7   1   6  297.07   13.90
  -6   1   6    4.10    4.50
  -6   1   6    3.00    3.20
  -5   1   6   20.30    5.30
  -5   1   6   15.60    6.70
  -4   1   6  241.08   17.60
  -4   1   6  262.67   15.20
   3  -1  -6   28.10    6.90
   3  -1  -6   27.20    7.00
  -3   1   6   30.40    7.70
  -3   1   6   17.00    4.80
   2  -1  -6  634.54   23.80
   2  -1  -6  698.53   25.50
  -2   1   6  644.64   23.00
  -2   1   6  659.33   26.20
   1  -1  -6  880.11   28.10
   1  -1  -6  874.11   26.80
  -1   1   6  830.82   26.30
   0  -1  -6 1090.09   29.50
   0  -1  -6 1103.39   31.10
   0   1   6 1096.59   29.90
  -1  -1  -6  150.88   10.50
  -1  -1  -6  157.48   11.50
  -1  -1  -6  150.98   12.00
   1   1   6  149.49   11.00
  -2  -1  -6   51.59    7.50
  -2  -1  -6   49.40    7.90
  -2  -1  -6   60.29    9.60
   2   1   6   36.10    6.80
  -3  -1  -6  408.56   16.20
  -3  -1  -6  389.66   18.20
  -3  -1  -6  405.86   20.30
  -4  -1  -6  119.59    8.40
  -4  -1  -6  126.69   13.90
  -4  -1  -6  137.19   11.20
  -5  -1  -6   80.99   12.00
  -5  -1  -6   87.29    5.50
  -5  -1  -6   92.89   11.10
  -6  -1  -6  248.28   18.40
  -6  -1  -6  210.88   17.40
  -6  -1  -6  245.38   15.10
  -7  -1  -6   31.20    6.80
  -7  -1  -6   30.40    9.20
  -7  -1  -6   10.90    6.30
  -8  -1  -6   55.99   12.90
  -8  -1  -6   80.59    9.70
  -8  -1  -6   67.79   13.80
  -8   2   6   -4.70    3.40
  -8   2   6    4.30    6.10
  -7   2   6   10.60    6.40
  -7   2   6   16.90    5.20
  -6   2   6    6.00    5.20
  -6   2   6    8.80    4.80
  -5   2   6   -0.20    2.60
  -5   2   6    0.10    4.10
  -4   2   6  519.85   26.10
  -4   2   6  559.44   23.20
   3  -2  -6   49.40    9.20
   3  -2  -6   35.00    7.40
  -3   2   6   30.30    6.50
  -3   2   6   25.80    6.70
   2  -2  -6 1457.95   36.80
   2  -2  -6 1479.25   38.40
  -2   2   6 1434.16   35.80
   1  -2  -6 1650.13   38.90
   1  -2  -6 1588.14   36.80
  -1   2   6 1630.64   37.60
   0  -2  -6  241.68   13.80
   0  -2  -6  218.68   12.50
   0  -2  -6  263.17   18.00
   0   2   6  258.57   14.20
  -1  -2  -6  485.65   17.30
  -1  -2  -6  537.85   20.00
  -1  -2  -6  489.35   21.00
  -2  -2  -6  790.52   24.10
  -2  -2  -6  841.92   27.30
  -2  -2  -6  825.92   24.80
  -2  -2  -6  841.22   21.50
  -3  -2  -6  159.58   12.50
  -3  -2  -6  160.28   10.70
  -3  -2  -6  150.78    7.50
  -3  -2  -6  158.58    7.80
  -4  -2  -6  581.14   20.30
  -4  -2  -6  601.04   24.60
  -5  -2  -6  267.47   16.80
  -5  -2  -6  246.08   13.10
  -6  -2  -6    1.20    2.90
  -6  -2  -6    0.70    2.20
  -7  -2  -6   81.19   12.80
  -7  -2  -6  111.79   15.20
  -7  -2  -6   88.49    6.40
  -8  -2  -6    7.00    5.40
  -8  -2  -6   -4.30    4.50
  -8   3   6   76.29   16.10
  -8   3   6   98.39   12.80
  -7   3   6   16.50    8.50
  -7   3   6   16.00    5.80
  -7   3   6   25.30    6.90
  -6   3   6  500.75   29.60
  -6   3   6  482.65   23.90
  -5   3   6  427.36   21.70
  -5   3   6  399.26   25.30
   4  -3  -6  213.58   16.20
  -4   3   6  270.57   17.00
  -4   3   6  248.98   18.50
   3  -3  -6  111.59   12.80
   3  -3  -6  141.09   15.20
  -3   3   6  162.18   17.90
  -3   3   6  132.99   13.90
   2  -3  -6  492.25   21.20
   2  -3  -6  500.15   22.10
  -2   3   6  513.45   21.70
   1  -3  -6   66.79    9.90
   1  -3  -6   68.09    9.50
   1  -3  -6   48.80    7.40
  -1   3   6   59.19    8.90
   0  -3  -6 1206.28   31.10
   0  -3  -6 1196.68   29.00
   0  -3  -6 1122.89   32.40
   0   3   6 1216.18   31.50
  -1  -3  -6  375.56   18.10
  -1  -3  -6  358.36   13.80
  -1  -3  -6  354.36   15.80
  -2  -3  -6  165.78    7.50
  -2  -3  -6  171.88   12.30
  -2  -3  -6  172.98   10.30
  -2  -3  -6  169.78    7.70
  -3  -3  -6  600.94   22.90
  -3  -3  -6  593.04   17.90
  -3  -3  -6  556.54   17.50
  -4  -3  -6  110.79    7.10
  -4  -3  -6  102.59    7.20
  -4  -3  -6  106.49   12.30
  -5  -3  -6   85.49   11.20
  -5  -3  -6   96.29    5.00
  -5  -3  -6   94.49    4.90
  -6  -3  -6   34.40    7.80
  -7  -3  -6   -1.80    3.90
  -8  -3  -6   80.09   12.70
  -8   4   6    1.10    4.40
  -7   4   6   37.40    9.30
  -7   4   6   36.10    8.40
  -6   4   6   49.30   10.40
  -5   4   6    5.90    4.80
   4  -4  -6  343.07   20.40
  -4   4   6  325.87   19.80
   3  -4  -6  445.26   22.50
   3  -4  -6  428.06   21.30
  -3   4   6  447.26   21.90
   2  -4  -6   55.09    9.30
   2  -4  -6   32.20    7.40
   2  -4  -6   42.70    8.10
  -2   4   6   37.60    7.50
   1  -4  -6   46.70    8.30
   1  -4  -6   36.20    7.20
   1  -4  -6   48.30    7.40
  -1   4   6   49.70    8.00
   0  -4  -6    2.40    2.30
   0  -4  -6    5.10    2.50
   0  -4  -6    3.50    2.90
  -1  -4  -6  217.38   10.10
  -1  -4  -6  238.78   12.30
  -1  -4  -6  222.28   13.80
  -1  -4  -6  219.68    9.70
  -2  -4  -6  139.49   11.00
  -2  -4  -6  142.49    8.50
  -3  -4  -6    0.50    2.50
  -3  -4  -6    8.90    2.20
  -3  -4  -6    5.60    2.10
  -4  -4  -6  309.27   16.30
  -5  -4  -6   50.29    9.00
  -6  -4  -6  109.59   13.00
  -7  -4  -6  465.95   22.80
  -8  -4  -6    5.60    5.50
  -8   5   6    4.40    5.00
  -7   5   6    0.50    3.20
  -7   5   6   -1.90    5.30
  -6   5   6   33.40    9.50
  -5   5   6   23.40    7.60
   4  -5  -6  209.78   16.20
   4  -5  -6  215.68   25.20
  -4   5   6  155.88   16.80
   3  -5  -6  240.08   16.40
   3  -5  -6  226.28   16.90
  -3   5   6  260.07   17.90
   2  -5  -6   34.60    7.20
   2  -5  -6   22.40    6.20
   2  -5  -6   50.89   10.60
  -2   5   6   11.80    5.60
   1  -5  -6  568.84   23.50
   1  -5  -6  593.94   25.40
   1  -5  -6  569.34   21.20
   0  -5  -6 1133.69   26.70
   0  -5  -6 1162.48   34.40
   0  -5  -6 1157.68   31.30
  -1  -5  -6    0.00    1.20
  -1  -5  -6    1.40    2.20
  -1  -5  -6    0.90    1.30
  -1  -5  -6    2.40    2.90
  -2  -5  -6  521.85   20.80
  -2  -5  -6  458.05   14.70
  -3  -5  -6  469.85   19.70
  -4  -5  -6   47.50    8.10
  -5  -5  -6  435.76   19.00
  -6  -5  -6  223.98   14.80
  -7  -5  -6   35.60    8.40
  -8  -5  -6  220.68   16.10
  -7   6   6   51.49   12.20
  -7   6   6   45.90   11.00
  -6   6   6    6.40    7.00
   5  -6  -6   72.59   14.00
  -5   6   6   62.49   12.20
   4  -6  -6   96.99   15.00
   4  -6  -6  107.39   15.50
  -4   6   6   84.99   13.50
   3  -6  -6    4.80    4.10
   3  -6  -6    1.90    3.90
   3  -6  -6    2.30    4.50
   2  -6  -6  703.43   26.90
   2  -6  -6  703.53   31.20
   2  -6  -6  736.83   29.40
   1  -6  -6  868.91   29.80
   1  -6  -6  840.42   26.50
   1  -6  -6  881.31   33.20
   0  -6  -6   10.00    4.30
   0  -6  -6    5.10    2.90
   0  -6  -6    5.50    3.90
  -1  -6  -6  251.37   13.00
  -1  -6  -6  260.37   15.80
  -2  -6  -6  177.68   12.60
  -2  -6  -6  180.48    8.20
  -3  -6  -6  467.55   19.70
  -4  -6  -6   82.99   10.40
  -5  -6  -6    7.10    4.00
  -6  -6  -6  203.28   13.20
  -7  -6  -6   46.00    8.10
  -8  -6  -6    3.20    4.40
  -7   7   6   -4.50    5.10
  -7   7   6    0.00    4.90
  -6   7   6   42.90   12.00
   5  -7  -6   41.50   10.20
  -5   7   6   29.90   10.40
   4  -7  -6   34.10    8.50
   4  -7  -6   29.20    9.40
   3  -7  -6   41.80    9.70
   3  -7  -6   46.80   12.10
   3  -7  -6   24.70    7.50
   2  -7  -6   89.29   14.50
   2  -7  -6   83.19   11.70
   2  -7  -6   95.59   13.50
   1  -7  -6  101.79   13.20
   1  -7  -6   89.09   13.00
   1  -7  -6   96.59   10.90
   0  -7  -6  138.59    8.40
   0  -7  -6  122.99   15.50
   0  -7  -6  157.38   12.10
  -1  -7  -6   14.20    4.10
  -1  -7  -6   12.90    4.80
  -2  -7  -6  219.68    7.50
  -2  -7  -6  216.88   14.50
  -3  -7  -6  104.29   12.00
  -4  -7  -6    6.50    3.80
  -5  -7  -6  163.48   11.10
  -6  -7  -6  -10.00    2.80
  -7  -7  -6   41.90    6.70
   6  -8  -6   -4.00    5.90
  -6   8   6    6.70    8.20
   5  -8  -6  151.18   20.80
   4  -8  -6   -1.00    5.00
   4  -8  -6    6.00    5.00
   3  -8  -6    7.00    5.90
   3  -8  -6    4.90    4.70
   2  -8  -6  239.78   16.00
   2  -8  -6  309.37   20.70
   2  -8  -6  241.98   20.30
   1  -8  -6    0.90    3.20
   1  -8  -6    4.00    3.10
   1  -8  -6    8.80    5.00
   0  -8  -6  104.69    6.30
   0  -8  -6  110.99   12.40
   0  -8  -6  113.39   14.90
  -1  -8  -6  194.88   11.30
  -1  -8  -6  167.58   14.60
  -2  -8  -6    4.70    4.20
  -3  -8  -6  178.68   13.30
  -4  -8  -6  368.86   17.60
  -5  -8  -6    0.60    3.30
  -6  -8  -6  281.17   12.60
   5  -9  -6   15.50    6.70
   4  -9  -6   28.80    9.30
   4  -9  -6   29.30    8.60
   3  -9  -6    8.80    5.80
   3  -9  -6   13.80    5.20
   2  -9  -6  100.79   17.10
   2  -9  -6   82.99   13.40
   2  -9  -6   75.19   12.70
   1  -9  -6   75.29   13.90
   1  -9  -6   91.99   10.20
   1  -9  -6   76.79   12.30
   0  -9  -6  104.09   12.50
   0  -9  -6   71.09   13.00
  -1  -9  -6    9.80    5.80
  -1  -9  -6    5.10    3.40
  -2  -9  -6   34.40    8.30
  -3  -9  -6   98.79   12.40
  -4  -9  -6   47.10    7.90
  -5  -9  -6   69.19    9.10
  -6  -9  -6   13.80    4.00
   4 -10  -6    9.70    7.70
   4 -10  -6    9.10    7.50
   3 -10  -6   -2.20    3.70
   3 -10  -6    3.40    5.30
   2 -10  -6   47.60   11.40
   2 -10  -6   54.39   13.80
   2 -10  -6   62.69   12.30
   1 -10  -6   -0.90    3.40
   1 -10  -6    1.30    3.00
   1 -10  -6    2.10    4.60
   0 -10  -6   27.80    9.40
   0 -10  -6   28.60    7.50
  -1 -10  -6   41.00    6.20
  -1 -10  -6   29.90    9.20
  -2 -10  -6   29.40    8.60
  -3 -10  -6   49.60   10.60
  -4 -10  -6    0.30    3.90
  -5 -10  -6    3.80    3.60
   2 -11  -6   25.70   11.30
   2 -11  -6   53.99    8.80
   1 -11  -6  184.38   23.70
   0 -11  -6   -3.30    4.70
   0 -11  -6   -2.50    4.00
  -1 -11  -6   42.40   11.50
  -2 -11  -6   59.19   12.00
  -3 -11  -6   -1.90    5.10
  -3  -8   7   11.60    8.50
  -2  -8   7   19.60    9.10
  -1  -8   7   51.19   13.50
   0  -8   7    9.10    6.00
   0  -8   7    7.30    8.80
   1  -8   7    5.70    7.50
   2  -8   7   19.50    8.40
  -4  -7   7   21.40    9.20
  -3  -7   7    1.60    5.40
  -2  -7   7   53.09   13.00
  -1  -7   7   13.30    5.00
  -1  -7   7   -1.70    5.20
   0  -7   7   -1.70    4.80
   0  -7   7    1.30    6.10
   1  -7   7   14.50    6.60
   2  -7   7    6.70    5.90
   3  -7   7    2.60    5.80
   4  -7   7    3.30    5.70
  -5  -6   7   13.40    8.20
  -4  -6   7   -0.70    4.90
  -3  -6   7    2.60    5.40
  -2  -6   7  202.68   23.80
  -2  -6   7  179.78    9.80
  -1  -6   7    9.50    6.40
  -1  -6   7   -0.90    4.00
   0  -6   7    5.80    6.00
   0  -6   7    7.40    5.30
   1  -6   7  160.08   18.50
   1  -6   7  148.39   23.90
   2  -6   7    0.10    4.90
   3  -6   7    1.40    5.10
   4  -6   7   54.39   12.80
  -5   6  -7    7.10    6.30
  -6  -5   7  216.08   25.20
  -5  -5   7    1.40    5.30
  -4  -5   7    4.60    4.90
  -3  -5   7  125.49   17.80
  -2  -5   7   -3.80    3.30
  -2  -5   7    2.60    3.00
  -1  -5   7   28.60    6.70
  -1  -5   7   14.70    6.90
   0  -5   7  383.66   26.00
   0  -5   7  364.66   21.30
   1  -5   7    3.70    4.90
   1  -5   7    7.20    6.10
   2  -5   7    2.40    4.60
   3  -5   7  187.98   20.70
  -4   5  -7    2.20    5.10
   4  -5   7   -5.50    3.70
  -5   5  -7   17.90    7.20
  -6   5  -7   -0.50    5.60
  -7  -4   7  219.18   24.70
  -6  -4   7    0.20    5.50
  -5  -4   7   11.00    6.80
  -4  -4   7  424.66   26.40
  -3  -4   7   32.80    5.00
  -3  -4   7   31.50    9.60
  -2  -4   7    1.10    3.80
  -1  -4   7  279.87   17.30
  -1  -4   7  295.57   21.40
   0  -4   7   75.89   13.90
   0  -4   7   42.00    8.40
   1  -4   7    4.70    4.50
   1  -4   7   -1.90    2.90
  -2   4  -7   19.80    7.20
   2  -4   7    9.00    5.50
  -3   4  -7   58.49   11.20
   3  -4   7   93.49   15.20
  -4   4  -7   -7.30    4.00
  -5   4  -7   23.30    8.80
  -5   4  -7   21.50    9.60
  -6   4  -7   50.99   10.80
  -6   4  -7   88.19   17.60
  -7   4  -7    5.60    5.30
  -7  -3   7   -2.30    4.90
  -6  -3   7   -0.20    4.50
  -5  -3   7   68.49   14.00
  -4  -3   7  175.98   20.50
  -4  -3   7  169.38    7.70
  -3  -3   7   60.59    7.80
  -3  -3   7   57.19   11.20
  -2  -3   7    4.00    4.30
  -2  -3   7   -1.40    2.80
  -1  -3   7  421.06   25.00
  -1  -3   7  455.05   21.80
   0  -3   7   43.00    9.60
   0  -3   7   69.49   11.60
  -1   3  -7  179.78   15.60
   1  -3   7  175.28   18.20
   1  -3   7  168.98   19.70
  -2   3  -7  227.18   18.50
  -2   3  -7  215.98   17.40
   2  -3   7  216.78   17.70
  -3   3  -7    1.80    5.50
  -3   3  -7    1.20    3.90
   3  -3   7    3.20    4.30
  -4   3  -7    5.60    4.50
  -4   3  -7    7.00    6.50
  -5   3  -7  146.49   17.70
  -5   3  -7  160.78   21.00
  -6   3  -7    1.40    3.90
  -6   3  -7   -1.00    6.20
  -7   3  -7  -27.40    6.70
  -7   3  -7    1.40    6.90
  -8  -2   7  176.18   24.10
  -7  -2   7   -2.30    4.50
  -6  -2   7   25.60    9.00
  -5  -2   7  553.44   29.90
  -4  -2   7   98.39    8.20
  -4  -2   7   97.19   14.90
  -3  -2   7  118.89   10.00
  -3  -2   7  117.39   15.70
  -2  -2   7  737.03   26.20
  -1  -2   7   11.40    4.70
  -1  -2   7    8.70    5.00
   0   2  -7   45.50    9.40
   0   2  -7   54.09    9.80
   0  -2   7   53.59    9.40
   0  -2   7   56.79   11.10
  -1   2  -7  867.21   31.70
  -1   2  -7  886.71   33.10
   1  -2   7  866.91   33.80
   1  -2   7  851.81   31.50
  -2   2  -7   18.60    6.50
  -2   2  -7    7.00    4.30
   2  -2   7   20.80    7.10
  -3   2  -7   17.60    6.20
  -3   2  -7   37.50   10.40
  -3   2  -7   24.90    7.90
   3  -2   7   40.20    9.80
  -4   2  -7  160.68   18.40
  -4   2  -7  171.78   20.80
  -4   2  -7  142.09   16.00
  -5   2  -7   -1.40    3.40
  -5   2  -7    1.90    3.30
  -5   2  -7    2.10    5.10
  -6   2  -7    4.80    7.20
  -6   2  -7    6.30    6.10
  -6   2  -7    2.10    3.50
  -7   2  -7   17.80    8.80
  -7   2  -7   37.60   11.00
  -7   2  -7   18.30    7.20
  -8   2  -7   21.60   11.60
  -8   2  -7   28.30   11.60
  -8  -1   7   56.29   13.80
  -7  -1   7   76.49   15.90
  -6  -1   7  436.46   27.60
  -5  -1   7   -7.70    2.00
  -5  -1   7    3.90    4.40
  -4  -1   7  213.08   13.10
  -4  -1   7  192.68   17.20
  -3  -1   7  859.91   27.30
  -3  -1   7  813.12   33.70
  -2  -1   7   89.49   12.90
  -2  -1   7  107.89   12.00
   1   1  -7   -1.20    2.70
   1   1  -7   -0.60    2.50
  -1  -1   7    3.50    3.10
  -1  -1   7   -1.90    2.00
   0   1  -7 1646.04   43.00
   0   1  -7 1651.13   43.90
   0  -1   7 1663.63   45.90
   0  -1   7 1672.23   42.40
  -1   1  -7  238.18   16.30
  -1   1  -7  260.07   21.70
  -1   1  -7  244.28   17.00
   1  -1   7  282.27   17.40
  -2   1  -7   14.40    6.60
  -2   1  -7    8.20    4.20
  -2   1  -7    7.80    4.40
   2  -1   7    8.70    5.00
  -3   1  -7  332.87   21.90
  -3   1  -7  314.87   18.80
  -3   1  -7  343.27   20.60
  -4   1  -7  234.38   17.90
  -4   1  -7  215.48   18.60
  -4   1  -7  214.48   15.90
  -5   1  -7    0.10    2.70
  -5   1  -7    3.30    5.00
  -5   1  -7   -1.60    3.50
  -6   1  -7   19.20    8.20
  -6   1  -7    4.90    4.50
  -6   1  -7    8.30    5.90
  -7   1  -7  123.69   12.40
  -7   1  -7  119.29   18.40
  -7   1  -7  112.09   15.70
  -8   1  -7   -3.10    5.80
  -8   1  -7   -1.20    5.60
  -8   0   7   -0.30    6.50
  -7   0   7  172.18   22.90
  -6   0   7   -2.90    4.00
  -6   0   7   12.50    4.00
  -5   0   7    7.70    5.70
  -4   0   7  188.28   21.00
  -4   0   7  174.38   12.60
  -3   0   7  284.27   16.40
  -3   0   7  271.57   18.90
   2   0  -7   96.29   12.00
   2   0  -7   63.89   10.30
  -2   0   7   80.49   12.10
  -2   0   7   76.79   10.30
   1   0  -7   -1.10    2.20
   1   0  -7   -1.10    2.20
  -1   0   7   -2.50    2.00
  -1   0   7    0.50    2.80
   0   0  -7 1086.19   32.80
   0   0  -7 1087.99   34.60
   0   0   7 1161.28   33.90
  -1   0  -7  148.29   16.00
  -1   0  -7  112.29   12.70
  -1   0  -7  160.18   12.30
   1   0   7  147.19   12.60
  -2   0  -7   -3.60    3.00
  -2   0  -7    1.00    2.30
  -2   0  -7    2.40    2.90
   2   0   7    1.60    3.20
  -3   0  -7  691.13   29.80
  -3   0  -7  642.74   24.70
  -3   0  -7  645.14   27.20
  -4   0  -7    2.90    3.90
  -4   0  -7   -2.30    3.10
  -4   0  -7    1.30    2.50
  -5   0  -7   61.09    9.20
  -5   0  -7   66.09   11.30
  -5   0  -7   67.49   12.50
  -6   0  -7  254.17   20.90
  -6   0  -7  204.28   12.30
  -6   0  -7  219.58   17.30
  -7   0  -7    7.70    7.20
  -7   0  -7    3.00    5.70
  -8   0  -7   -5.40    4.90
  -8   1   7    1.10    5.80
  -7   1   7  174.28   23.20
  -7   1   7  158.18   11.60
  -6   1   7   10.40    4.70
  -6   1   7    9.90    6.30
  -5   1   7   32.10    9.40
  -5   1   7   39.50    7.10
  -4   1   7  338.77   18.40
  -4   1   7  336.17   22.20
  -3   1   7    8.20    5.00
  -3   1   7    8.80    4.60
   2  -1  -7  136.59   15.10
   2  -1  -7   95.39   11.70
  -2   1   7  131.89   13.90
  -2   1   7  122.79   15.50
   1  -1  -7 1580.24   41.70
   1  -1  -7 1619.94   40.40
  -1   1   7 1636.94   40.50
   0  -1  -7   14.30    5.00
   0  -1  -7   12.20    4.30
   0   1   7    8.00    4.50
  -1  -1  -7  117.09   12.70
  -1  -1  -7  145.09   12.90
  -1  -1  -7  126.99   10.80
   1   1   7  141.39   11.80
  -2  -1  -7  643.44   23.20
  -2  -1  -7  590.84   26.20
  -2  -1  -7  644.74   25.50
  -3  -1  -7   12.60    4.60
  -3  -1  -7    9.70    4.90
  -3  -1  -7    8.50    4.40
  -4  -1  -7   44.80    9.20
  -4  -1  -7   22.30    6.20
  -4  -1  -7   51.39    7.70
  -5  -1  -7  147.19   12.70
  -5  -1  -7  140.49    8.70
  -5  -1  -7  157.88   18.00
  -6  -1  -7   58.19   10.00
  -6  -1  -7   42.90    9.50
  -7  -1  -7    1.10    4.30
  -7  -1  -7    1.00    4.30
  -8  -1  -7   42.40    8.30
  -8  -1  -7   56.39   13.30
  -8   2   7  159.38   13.20
  -8   2   7  146.59   23.20
  -7   2   7   14.30    5.80
  -7   2   7   25.40   10.10
  -7   2   7   16.10    5.90
  -6   2   7   18.00    6.10
  -6   2   7   28.50    9.90
  -5   2   7  581.34   24.90
  -5   2   7  581.04   30.60
  -4   2   7   34.60    8.90
  -4   2   7   41.40    8.80
   3  -2  -7   92.39   12.60
   3  -2  -7   74.59   11.10
  -3   2   7   76.69   10.60
  -3   2   7   57.69   10.90
   2  -2  -7  584.24   25.60
   2  -2  -7  629.54   25.30
  -2   2   7  638.74   24.90
  -2   2   7  588.64   26.90
   1  -2  -7   60.59    9.10
   1  -2  -7   54.69    8.70
  -1   2   7   69.29   10.10
   0  -2  -7   73.59   11.40
   0  -2  -7   89.09   11.70
   0  -2  -7   72.09    9.70
   0   2   7   69.39   10.20
  -1  -2  -7  272.97   17.20
  -1  -2  -7  249.08   15.20
  -1  -2  -7  277.07   14.70
   1   2   7  309.37   16.70
  -2  -2  -7  695.83   25.00
  -2  -2  -7  705.53   22.20
  -2  -2  -7  742.53   27.90
  -3  -2  -7   12.80    5.50
  -3  -2  -7   20.90    4.70
  -3  -2  -7   12.20    4.80
  -4  -2  -7  347.47   10.80
  -4  -2  -7  358.16   20.70
  -4  -2  -7  363.46   17.90
  -5  -2  -7  180.58   12.60
  -5  -2  -7  183.48   15.80
  -6  -2  -7    4.20    3.50
  -6  -2  -7   -2.60    2.60
  -7  -2  -7   29.50    8.70
  -7  -2  -7   37.20    5.80
  -8  -2  -7  222.38   19.90
  -8   3   7    3.30    7.90
  -7   3   7   13.60    7.10
  -7   3   7   17.80    8.50
  -7   3   7   38.60   12.20
  -6   3   7   22.10    6.60
  -6   3   7   20.80    8.50
  -5   3   7  268.27   18.00
  -5   3   7  272.77   21.90
  -4   3   7    5.70    4.70
  -4   3   7    7.40    5.80
   3  -3  -7   33.50    7.80
   3  -3  -7   31.40    7.70
  -3   3   7   37.70    8.00
  -3   3   7   29.70    8.40
   2  -3  -7  263.37   18.10
   2  -3  -7  253.87   17.20
   2  -3  -7  267.77   16.50
  -2   3   7  268.87   16.80
   1  -3  -7   63.99    9.00
   1  -3  -7   72.29   11.40
   1  -3  -7   86.69   11.80
  -1   3   7   75.59   10.60
   0  -3  -7  130.99   14.80
   0  -3  -7   88.99   11.00
   0  -3  -7  118.19    9.70
   0   3   7  105.39   12.50
  -1  -3  -7 1102.99   34.50
  -1  -3  -7 1131.69   28.00
  -1  -3  -7 1173.68   31.90
  -2  -3  -7    1.10    1.90
  -2  -3  -7   -0.80    2.20
  -2  -3  -7   -0.70    1.70
  -3  -3  -7   59.49    3.90
  -3  -3  -7   74.99    9.30
  -3  -3  -7   69.59   10.40
  -3  -3  -7   68.09    4.10
  -4  -3  -7  684.63   27.60
  -4  -3  -7  654.13   20.70
  -5  -3  -7   17.00    5.80
  -5  -3  -7   20.70    4.30
  -6  -3  -7    6.70    4.70
  -7  -3  -7  339.27   22.30
  -8  -3  -7   13.10    6.10
  -8   4   7   -2.40    5.40
  -7   4   7    7.00    5.00
  -6   4   7   98.89   14.70
  -5   4   7    1.30    3.60
   4  -4  -7   -2.60    3.20
  -4   4   7   -1.40    3.80
   3  -4  -7  401.06   21.80
   3  -4  -7  369.16   21.50
  -3   4   7  381.26   21.20
   2  -4  -7   28.50    6.80
   2  -4  -7   26.90    7.60
   2  -4  -7   36.10    7.70
  -2   4   7   21.00    6.70
   1  -4  -7    2.90    3.90
   1  -4  -7    5.80    3.70
   1  -4  -7    6.80    3.00
  -1   4   7    9.60    4.90
   0  -4  -7 1305.47   38.50
   0  -4  -7 1331.97   35.60
   0  -4  -7 1282.07   31.80
  -1  -4  -7  444.06   19.00
  -1  -4  -7  406.86   20.70
  -1  -4  -7  444.86   15.80
  -2  -4  -7  210.78    7.90
  -2  -4  -7  192.18   12.50
  -2  -4  -7  222.08   15.20
  -2  -4  -7  217.58    7.90
  -3  -4  -7 1006.90   24.40
  -3  -4  -7  980.40   32.30
  -4  -4  -7   88.69   11.70
  -4  -4  -7  110.69    6.60
  -5  -4  -7   -2.30    3.10
  -6  -4  -7  127.09   15.40
  -7  -4  -7  113.49   14.80
  -8  -4  -7    7.50    5.70
  -7   5   7  233.98   20.10
  -6   5   7  101.59   15.20
  -5   5   7   10.60    6.00
   4  -5  -7   77.79   13.30
  -4   5   7   74.59   12.50
   3  -5  -7    1.70    4.10
   3  -5  -7    0.20    2.80
  -3   5   7    0.80    4.10
   2  -5  -7  113.69   14.50
   2  -5  -7  122.49   15.90
   2  -5  -7  114.99   13.90
  -2   5   7   93.49   13.30
   1  -5  -7 1035.00   36.10
   1  -5  -7 1050.09   30.80
   1  -5  -7 1067.69   33.70
   0  -5  -7   29.00    6.60
   0  -5  -7   22.80    6.90
   0  -5  -7   24.20    5.40
  -1  -5  -7    5.50    3.80
  -1  -5  -7    4.60    3.00
  -1  -5  -7    6.10    2.40
  -2  -5  -7  117.59   13.60
  -2  -5  -7  105.39    8.20
  -3  -5  -7  123.29   13.80
  -3  -5  -7  133.39    7.30
  -4  -5  -7   40.20    8.10
  -5  -5  -7   48.10    9.50
  -6  -5  -7  220.98   15.90
  -7  -5  -7   37.70    9.70
  -8  -5  -7   -3.00    4.20
  -7   6   7    5.10    5.70
  -6   6   7    8.00    6.50
   5  -6  -7  100.59   15.10
  -5   6   7   99.09   15.80
   4  -6  -7   91.79   14.50
  -4   6   7   82.89   13.90
   3  -6  -7   -0.30    2.10
   3  -6  -7    5.00    4.60
   2  -6  -7   17.00    5.60
   2  -6  -7   35.20    9.70
   2  -6  -7   20.20    6.60
   1  -6  -7  940.61   35.70
   1  -6  -7  963.60   32.70
   1  -6  -7  954.20   29.30
   0  -6  -7    4.30    3.00
   0  -6  -7    0.50    3.10
   0  -6  -7   -1.40    2.40
  -1  -6  -7    2.40    3.10
  -1  -6  -7    3.30    3.40
  -1  -6  -7    1.00    1.30
  -2  -6  -7  505.55   16.80
  -2  -6  -7  480.65   22.90
  -3  -6  -7  133.29   12.00
  -4  -6  -7    3.00    3.90
  -5  -6  -7  453.95   21.10
  -6  -6  -7   28.70    7.00
  -7  -6  -7   42.80    8.80
  -7   7   7    3.60    6.30
  -7   7   7   11.70    6.20
  -6   7   7   -1.40    6.00
   5  -7  -7  258.87   21.20
  -5   7   7  256.97   25.90
   4  -7  -7   76.89   13.40
   4  -7  -7   39.30   10.70
   3  -7  -7   -3.70    3.40
   3  -7  -7    0.80    3.60
   2  -7  -7   80.49   13.20
   2  -7  -7   79.89   13.70
   2  -7  -7   81.09   11.20
   1  -7  -7  376.66   21.30
   1  -7  -7  383.56   24.10
   1  -7  -7  377.26   18.30
   0  -7  -7   57.79    9.80
   0  -7  -7   34.50    8.20
   0  -7  -7   49.50    6.80
  -1  -7  -7  394.36   17.60
  -1  -7  -7  396.46   21.70
  -2  -7  -7    6.30    2.60
  -2  -7  -7   15.30    5.60
  -3  -7  -7   59.39    9.70
  -4  -7  -7  205.18   14.60
  -5  -7  -7   -1.40    3.10
  -6  -7  -7   12.10    5.00
  -7  -7  -7  217.18   14.30
   6  -8  -7   37.40   10.40
   5  -8  -7    2.70    5.20
   4  -8  -7    7.30    6.10
   4  -8  -7    6.00    5.90
   3  -8  -7  100.39   15.20
   3  -8  -7  140.79   16.10
   2  -8  -7   46.30    9.10
   2  -8  -7   44.60   11.00
   2  -8  -7   28.60   10.20
   1  -8  -7   97.29   13.90
   1  -8  -7   71.29   13.40
   1  -8  -7   68.19    9.50
   0  -8  -7   15.00    3.60
   0  -8  -7   21.50    5.90
   0  -8  -7   33.10    9.50
  -1  -8  -7    0.20    2.80
  -1  -8  -7    2.20    3.20
  -2  -8  -7   59.89    4.60
  -2  -8  -7   59.59   10.50
  -3  -8  -7   42.10    8.60
  -4  -8  -7   18.10    5.90
  -5  -8  -7    9.40    4.10
  -6  -8  -7   34.70    6.90
   5  -9  -7    2.70    6.00
   4  -9  -7   10.40    6.20
   4  -9  -7   16.40    8.50
   3  -9  -7  217.28   17.70
   3  -9  -7  211.78   23.80
   2  -9  -7   49.50    8.90
   2  -9  -7   43.70   11.40
   2  -9  -7   26.30    8.90
   1  -9  -7   -5.60    3.40
   1  -9  -7   -0.90    3.60
   1  -9  -7    1.90    3.90
   0  -9  -7  196.68   15.00
   0  -9  -7  227.18   19.30
  -1  -9  -7   47.40    7.60
  -1  -9  -7   52.79   11.50
  -2  -9  -7   51.09   10.70
  -3  -9  -7  324.27   20.20
  -4  -9  -7    3.50    4.40
  -5  -9  -7   18.40    6.00
  -6  -9  -7  173.78   11.80
   4 -10  -7   38.10   12.40
   4 -10  -7   37.70    9.90
   3 -10  -7   12.70    6.70
   3 -10  -7    7.00    6.70
   2 -10  -7    8.50    7.10
   2 -10  -7    4.80    4.70
   2 -10  -7    4.00    5.50
   1 -10  -7  264.67   13.60
   1 -10  -7  339.27   26.40
   1 -10  -7  327.57   20.80
   0 -10  -7   65.39   10.80
   0 -10  -7   71.69   15.10
  -1 -10  -7   15.90    4.80
  -1 -10  -7   13.50    7.10
  -2 -10  -7  257.27   20.20
  -3 -10  -7    2.30    4.30
  -4 -10  -7    0.40    3.80
   2 -11  -7   78.79   11.60
   2 -11  -7   67.29   16.20
   1 -11  -7    3.40    6.40
   0 -11  -7    8.30    7.00
  -1 -11  -7   64.19   14.20
  -2 -11  -7    5.50    6.10
  -3 -11  -7    0.80    5.30
  -3  -7   8   -1.10    5.60
  -2  -7   8   47.90   13.30
  -1  -7   8  108.29   19.70
  -1  -7   8  123.99   13.00
   0  -7   8   10.30    8.40
   0  -7   8   -1.20    4.70
   1  -7   8   31.40    9.40
   2  -7   8   17.70    8.40
   3  -7   8    5.60    7.10
  -5  -6   8   51.39   13.30
  -4  -6   8    8.30    7.10
  -3  -6   8   77.49   16.20
  -2  -6   8   58.29    7.80
  -2  -6   8   35.40   12.00
  -1  -6   8   18.60    7.40
  -1  -6   8   30.30   10.30
   0  -6   8   97.59   14.10
   0  -6   8  111.59   18.40
   1  -6   8    2.30    5.30
   2  -6   8    9.60    6.40
   3  -6   8   19.50    8.70
   4  -6   8   16.70    8.20
  -6  -5   8    0.30    6.10
  -5  -5   8   48.00   13.60
  -4  -5   8   79.89   16.20
  -3  -5   8   -2.60    2.00
  -3  -5   8   -0.10    4.70
  -2  -5   8   43.70    8.00
  -2  -5   8   63.29   14.20
  -1  -5   8   45.40   11.80
  -1  -5   8   28.70    8.30
   0  -5   8   63.79   14.40
   0  -5   8   51.69   10.70
   1  -5   8   66.19   12.80
   2  -5   8    4.00    5.50
   3  -5   8   28.50   10.80
  -4   5  -8   20.00    8.30
   4  -5   8   39.70   11.60
  -5   5  -8   15.70    7.80
  -6  -4   8    1.90    5.10
  -5  -4   8   22.60    9.00
  -4  -4   8  277.97   23.50
  -3  -4   8   72.89    8.50
  -3  -4   8   49.70   12.00
  -2  -4   8    0.50    3.90
  -1  -4   8  310.27   19.10
  -1  -4   8  250.47   27.40
   0  -4   8  114.79   15.00
   0  -4   8  127.29   18.80
   1  -4   8    5.70    4.70
   2  -4   8  411.46   26.00
  -3   4  -8   98.39   15.70
   3  -4   8  108.59   17.00
  -4   4  -8    6.10    4.60
  -5   4  -8   35.80   10.30
  -6   4  -8   12.20    7.10
  -6   4  -8    8.80   10.20
  -7  -3   8  188.28   24.40
  -6  -3   8   15.10    8.40
  -5  -3   8  387.86   27.20
  -4  -3   8  173.68   21.60
  -4  -3   8  173.48   10.00
  -3  -3   8  418.36   26.30
  -3  -3   8  377.36   18.10
  -2  -3   8  453.75   21.90
  -2  -3   8  514.25   29.20
  -1  -3   8   92.49   15.00
  -1  -3   8   84.99   11.90
   0  -3   8   97.79   14.20
   0  -3   8   80.89   14.60
  -1   3  -8  185.48   22.10
   1  -3   8  215.38   17.60
  -2   3  -8   11.90    5.80
   2  -3   8   16.60    7.80
  -3   3  -8   38.90    9.80
  -3   3  -8   51.79   12.00
   3  -3   8   82.99   14.90
  -4   3  -8  120.39   17.80
  -4   3  -8  115.39   16.60
  -5   3  -8    7.10    5.20
  -5   3  -8    1.70    7.10
  -6   3  -8   -4.00    3.40
  -6   3  -8   10.90    8.00
  -7   3  -8   15.40    7.80
  -7  -2   8    2.40    6.60
  -6  -2   8   96.09   16.80
  -5  -2   8  119.29    7.60
  -5  -2   8  119.79   18.10
  -4  -2   8    2.60    4.60
  -4  -2   8    1.20    2.80
  -3  -2   8  132.49   18.80
  -3  -2   8  122.99   13.10
  -2  -2   8   18.80    6.20
  -2  -2   8   18.10    6.90
  -1  -2   8  303.67   19.00
  -1  -2   8  305.77   21.90
   0   2  -8   35.50    8.80
   0  -2   8   25.30    7.40
   0  -2   8   37.70    9.50
  -1   2  -8   74.09   12.00
  -1   2  -8   75.59   13.00
   1  -2   8   75.49   12.20
  -2   2  -8  146.59   18.10
  -2   2  -8  147.89   16.70
   2  -2   8  136.79   16.70
  -3   2  -8   89.09   13.30
  -3   2  -8   67.89   12.80
  -4   2  -8   73.29   13.60
  -4   2  -8   77.29   12.40
  -5   2  -8   14.40   10.10
  -5   2  -8   20.90    8.70
  -5   2  -8   10.90    5.50
  -6   2  -8   -9.40    4.60
  -6   2  -8    5.30    6.30
  -6   2  -8    2.50    3.90
  -7   2  -8   33.40    9.30
  -7   2  -8   57.89   19.90
  -7   2  -8   36.40   11.60
  -7  -1   8   10.30    8.40
  -6  -1   8   45.40   12.30
  -6  -1   8   62.09    5.80
  -5  -1   8  143.59   10.50
  -5  -1   8  117.99   17.70
  -4  -1   8   10.00    4.80
  -4  -1   8    5.70    4.90
  -3  -1   8  159.28   13.00
  -3  -1   8  171.78   20.60
  -2  -1   8   92.89   14.60
  -2  -1   8   89.49   12.20
   1   1  -8   66.39   10.70
  -1  -1   8   83.79   13.80
  -1  -1   8   60.79   10.10
   0   1  -8  966.70   34.10
   0   1  -8  973.50   35.50
   0  -1   8  929.11   36.60
   0  -1   8  933.61   33.30
  -1   1  -8  344.87   20.60
  -1   1  -8  308.97   20.50
   1  -1   8  321.97   19.90
  -2   1  -8    5.10    4.20
  -2   1  -8    6.90    6.50
  -2   1  -8   15.70    5.80
   2  -1   8    7.80    5.10
  -3   1  -8  347.57   20.90
  -3   1  -8  337.07   22.20
  -4   1  -8  105.59   13.50
  -4   1  -8  115.39   16.50
  -4   1  -8  107.29   16.40
  -5   1  -8    5.60    4.00
  -5   1  -8    6.80    6.50
  -5   1  -8   -1.30    4.60
  -6   1  -8  142.49   18.20
  -6   1  -8  160.58   22.70
  -6   1  -8  170.28   14.70
  -7   1  -8   17.80    5.90
  -7   1  -8   17.10    9.00
  -7   1  -8   22.90    9.00
  -8   0   8    3.50    7.20
  -7   0   8  211.68   11.10
  -7   0   8  189.58   23.90
  -6   0   8  135.69   19.30
  -6   0   8  158.88   11.60
  -5   0   8   93.29   15.50
  -5   0   8   83.19   11.70
  -4   0   8  265.17   16.50
  -4   0   8  278.57   21.60
  -3   0   8  159.88   19.00
  -3   0   8  164.68   13.80
  -2   0   8    0.20    3.20
  -2   0   8    2.60    3.40
   1   0  -8  779.72   31.40
   1   0  -8  771.92   29.90
  -1   0   8  760.62   29.40
  -1   0   8  779.42   32.70
   0   0  -8  202.98   14.90
   0   0  -8  201.68   15.90
   0   0   8  204.88   15.30
  -1   0  -8   26.60    8.30
  -1   0  -8   12.50    5.30
  -1   0  -8   10.60    4.70
   1   0   8    9.80    4.80
  -2   0  -8  331.17   20.30
  -2   0  -8  351.26   19.30
  -2   0  -8  343.97   22.40
  -3   0  -8    0.30    2.70
  -3   0  -8   -0.40    4.50
  -3   0  -8   -4.50    3.40
  -4   0  -8  157.78   19.00
  -4   0  -8  163.58   17.70
  -4   0  -8  161.68   13.10
  -5   0  -8   90.49   11.40
  -5   0  -8   78.69   12.80
  -5   0  -8   93.59   15.90
  -6   0  -8   16.20    7.30
  -6   0  -8   33.70    9.30
  -6   0  -8   34.70    7.00
  -7   0  -8   67.19   14.20
  -7   0  -8   46.80   10.20
  -8   0  -8   19.20    9.50
  -8   1   8  151.58   23.90
  -7   1   8   30.70    6.90
  -7   1   8   35.80    7.40
  -7   1   8   35.40   12.10
  -6   1   8   20.80    6.30
  -6   1   8   18.80    7.70
  -5   1   8  208.78   23.90
  -5   1   8  187.08   14.40
  -4   1   8   10.50    6.50
  -4   1   8    8.70    5.10
  -3   1   8   -1.80    3.20
  -3   1   8    0.50    4.00
   2  -1  -8   13.80    5.50
   2  -1  -8   24.60    7.10
  -2   1   8   17.80    6.40
  -2   1   8    3.30    4.00
   1  -1  -8    1.50    3.70
   1  -1  -8    3.90    3.20
  -1   1   8    6.90    4.70
  -1   1   8   -0.30    2.60
   0  -1  -8  124.79   14.10
   0  -1  -8  172.58   15.50
   0  -1  -8  174.18   13.70
   0   1   8  175.18   14.10
  -1  -1  -8    7.10    4.20
  -1  -1  -8   13.50    5.60
  -1  -1  -8   26.70    6.70
   1   1   8   11.70    5.60
  -2  -1  -8  278.67   19.10
  -2  -1  -8  340.27   19.80
  -2  -1  -8  302.17   17.30
  -3  -1  -8  270.57   15.80
  -3  -1  -8  264.17   17.80
  -3  -1  -8  280.97   20.20
  -4  -1  -8   97.19   11.00
  -4  -1  -8  105.79   13.90
  -4  -1  -8   93.89   14.70
  -5  -1  -8   76.19    8.70
  -5  -1  -8   99.39   14.00
  -5  -1  -8   73.59   13.30
  -6  -1  -8   53.19   12.30
  -6  -1  -8   87.69   12.60
  -7  -1  -8   21.60    6.70
  -7  -1  -8   25.20    8.60
  -8  -1  -8   53.59   12.50
  -8   2   8    3.60    4.90
  -8   2   8    2.00    5.70
  -7   2   8   -3.70    4.90
  -7   2   8   -7.70    4.90
  -6   2   8    6.90    5.00
  -6   2   8   -1.30    4.60
  -5   2   8  221.68   16.70
  -5   2   8  198.58   22.80
  -4   2   8  206.78   22.10
  -4   2   8  207.28   16.00
   3  -2  -8    2.50    3.60
  -3   2   8    1.60    4.40
  -3   2   8   -0.70    3.40
   2  -2  -8  177.48   15.20
   2  -2  -8  173.28   14.50
  -2   2   8  171.88   14.30
  -2   2   8  179.58   20.30
   1  -2  -8  275.07   17.00
   1  -2  -8  226.68   16.50
   1  -2  -8  254.37   18.50
  -1   2   8  247.78   17.20
   0  -2  -8    8.50    4.10
   0  -2  -8    5.70    4.00
   0  -2  -8    0.40    3.60
   0   2   8    4.50    3.80
  -1  -2  -8 1042.40   34.10
  -1  -2  -8 1022.30   31.40
  -1  -2  -8 1028.60   35.70
  -2  -2  -8  517.95   25.60
  -2  -2  -8  529.25   23.70
  -2  -2  -8  480.85   20.40
  -3  -2  -8    4.00    3.00
  -3  -2  -8    0.50    3.40
  -3  -2  -8   11.20    4.70
  -4  -2  -8  774.92   28.20
  -4  -2  -8  727.43   32.40
  -4  -2  -8  741.03   20.00
  -5  -2  -8   12.10    5.00
  -5  -2  -8   10.00    6.30
  -6  -2  -8   25.90    6.50
  -6  -2  -8   26.20    8.70
  -7  -2  -8  141.79   11.20
  -7  -2  -8  109.49   17.20
  -8  -2  -8   -1.90    4.60
  -8   3   8  114.89   14.80
  -8   3   8   69.09   23.40
  -7   3   8   13.60    9.00
  -7   3   8   38.60    9.40
  -6   3   8  261.67   19.40
  -6   3   8  250.57   27.90
  -5   3   8  207.38   16.90
  -4   3   8    0.20    3.80
   3  -3  -8  258.37   18.30
  -3   3   8  269.07   18.30
   2  -3  -8  146.99   15.80
   2  -3  -8  123.89   14.80
  -2   3   8  115.29   13.80
   1  -3  -8   58.39   10.30
   1  -3  -8   90.79   13.60
   1  -3  -8   82.59   11.70
  -1   3   8   77.79   11.60
   0  -3  -8  549.05   24.50
   0  -3  -8  520.55   22.30
   0  -3  -8  548.15   25.90
   0   3   8  535.15   27.20
  -1  -3  -8    1.30    2.20
  -1  -3  -8    2.00    2.50
  -1  -3  -8   -2.50    2.70
  -2  -3  -8   26.60    6.30
  -2  -3  -8   25.40    7.50
  -2  -3  -8   22.20    5.00
  -3  -3  -8  332.37   12.50
  -3  -3  -8  317.77   20.00
  -3  -3  -8  345.47   17.60
  -4  -3  -8    5.20    3.30
  -4  -3  -8   -3.30    2.90
  -5  -3  -8   24.10    8.30
  -5  -3  -8   19.10    5.40
  -6  -3  -8  139.29   17.30
  -6  -3  -8  155.98    9.20
  -7  -3  -8    1.00    4.10
  -8  -3  -8   72.39   13.70
  -7   4   8  109.59   16.40
  -6   4   8   79.79   13.90
  -5   4   8    5.90    4.90
   4  -4  -8  283.07   20.80
  -4   4   8  303.37   21.10
   3  -4  -8   26.00    7.50
   3  -4  -8   36.30    9.20
  -3   4   8   62.89   11.70
   2  -4  -8   78.39   13.40
   2  -4  -8   92.69   13.70
   2  -4  -8   84.99   12.50
  -2   4   8   65.79   11.10
   1  -4  -8  134.69   15.20
   1  -4  -8  114.19   14.90
   1  -4  -8  145.99   12.40
   0  -4  -8   35.80    7.90
   0  -4  -8   17.30    5.10
   0  -4  -8   29.50    8.10
  -1  -4  -8  176.18   11.40
  -1  -4  -8  161.48   12.70
  -1  -4  -8  162.78   14.60
  -2  -4  -8    7.70    5.00
  -2  -4  -8    9.60    3.00
  -2  -4  -8    2.10    2.60
  -3  -4  -8   51.49   10.20
  -3  -4  -8   56.79    8.20
  -4  -4  -8  206.18   11.40
  -4  -4  -8  208.38   16.50
  -5  -4  -8    8.00    5.20
  -6  -4  -8  195.58   17.20
  -7  -4  -8  177.28   19.90
  -8  -4  -8    0.00    5.20
  -7   5   8   -3.50    5.80
  -6   5   8  151.48   20.00
  -5   5   8   26.50    8.80
   4  -5  -8    8.50    5.30
  -4   5   8   14.90    6.50
   3  -5  -8   91.79   13.50
   3  -5  -8  100.99   14.80
  -3   5   8  125.49   16.30
   2  -5  -8    1.20    3.00
   2  -5  -8   -0.80    3.10
   2  -5  -8   -3.60    3.20
   1  -5  -8  227.18   15.00
   1  -5  -8  217.28   16.20
   1  -5  -8  217.98   17.50
   0  -5  -8 1408.86   34.80
   0  -5  -8 1369.06   38.80
   0  -5  -8 1432.96   43.60
  -1  -5  -8   42.00    6.10
  -1  -5  -8   42.70    9.60
  -1  -5  -8   53.39    8.70
  -2  -5  -8  301.87   19.30
  -2  -5  -8  282.07   14.80
  -3  -5  -8  303.07   13.20
  -3  -5  -8  318.97   19.80
  -4  -5  -8   -2.10    3.10
  -4  -5  -8    5.80    1.90
  -5  -5  -8  108.79   14.60
  -6  -5  -8   25.10    7.80
  -7  -5  -8   35.80    9.30
  -7   6   8   45.40   12.90
  -6   6   8   -2.30    5.60
   5  -6  -8   65.39   13.50
  -5   6   8   86.79   14.60
   4  -6  -8  182.88   20.30
  -4   6   8  180.18   20.00
   3  -6  -8   38.20    9.40
   3  -6  -8   43.30   10.40
   2  -6  -8  130.19   15.60
   2  -6  -8  110.69   15.70
   2  -6  -8  106.39   16.40
   1  -6  -8   34.90    9.30
   1  -6  -8   31.20    8.20
   1  -6  -8   39.20    7.40
   0  -6  -8  209.88   17.00
   0  -6  -8  201.78   12.60
   0  -6  -8  198.38   15.00
  -1  -6  -8  186.88   13.30
  -1  -6  -8  192.58    9.20
  -1  -6  -8  212.08   16.80
  -2  -6  -8   26.90    5.60
  -2  -6  -8   31.70    8.10
  -3  -6  -8   44.80    8.90
  -3  -6  -8   51.29    5.70
  -4  -6  -8    7.10    4.80
  -5  -6  -8    7.50    4.10
  -6  -6  -8   48.10   10.00
  -7  -6  -8   62.59   11.40
  -6   7   8  194.08   23.30
   5  -7  -8   -1.50    4.40
  -5   7   8   -0.30    6.60
   4  -7  -8   38.00   10.30
   3  -7  -8   78.09   13.80
   3  -7  -8   93.99   14.00
   2  -7  -8   37.70    9.60
   2  -7  -8   43.60   11.70
   2  -7  -8   40.20    8.80
   1  -7  -8   -0.50    2.90
   1  -7  -8    0.50    3.70
   1  -7  -8    1.40    3.50
   0  -7  -8    3.30    3.70
   0  -7  -8   15.00    3.80
   0  -7  -8    3.90    4.30
  -1  -7  -8  210.98   14.10
  -1  -7  -8  225.18   17.50
  -2  -7  -8  148.79   17.00
  -2  -7  -8  177.18   10.70
  -3  -7  -8   70.19   11.80
  -4  -7  -8   88.69   12.80
  -5  -7  -8   77.39   12.00
  -6  -7  -8    0.20    4.20
  -7  -7  -8   21.30    7.80
   6  -8  -8   10.50    6.50
   5  -8  -8   98.69   15.50
   4  -8  -8   50.89   11.50
   4  -8  -8   50.19   13.20
   3  -8  -8   35.10    9.10
   3  -8  -8   17.00    8.10
   2  -8  -8  370.06   25.70
   2  -8  -8  397.96   21.50
   2  -8  -8  345.97   23.60
   1  -8  -8  172.98   13.40
   1  -8  -8  157.68   20.50
   1  -8  -8  167.98   18.50
   0  -8  -8   84.39   14.50
   0  -8  -8  102.19   12.60
   0  -8  -8  102.99    7.70
  -1  -8  -8  238.38   14.60
  -1  -8  -8  229.28   18.60
  -2  -8  -8   37.80    5.50
  -2  -8  -8   46.00    9.70
  -3  -8  -8  437.76   23.30
  -4  -8  -8   88.59   12.70
  -5  -8  -8    0.40    3.90
  -6  -8  -8   65.19   10.90
   5  -9  -8   -3.00    5.40
   4  -9  -8   85.19   16.30
   4  -9  -8   69.99   13.10
   3  -9  -8   63.99   13.40
   3  -9  -8   51.89   10.90
   2  -9  -8   14.50    7.70
   2  -9  -8    0.00    4.30
   2  -9  -8    5.40    5.70
   1  -9  -8  241.38   21.50
   1  -9  -8  228.48   14.00
   1  -9  -8  205.78   17.10
   0  -9  -8   72.79   13.60
   0  -9  -8   96.99   12.80
  -1  -9  -8    5.20    4.00
  -1  -9  -8    2.10    4.30
  -2  -9  -8   18.10    6.90
  -3  -9  -8   -2.20    3.40
  -4  -9  -8    1.60    3.90
  -5  -9  -8   81.79   11.70
   3 -10  -8   -0.20    3.90
   3 -10  -8    2.80    6.00
   2 -10  -8   25.10    8.50
   2 -10  -8   24.30   10.50
   1 -10  -8   14.20    6.30
   1 -10  -8   14.20    8.10
   1 -10  -8   -0.70    4.10
   0 -10  -8  120.29   14.10
   0 -10  -8  128.49   20.40
  -1 -10  -8   40.40   10.60
  -1 -10  -8   40.00    7.30
  -2 -10  -8   10.50    5.80
  -3 -10  -8  291.97   20.90
  -4 -10  -8    1.20    5.00
   1 -11  -8  169.48   25.00
   0 -11  -8    4.70    6.40
  -1 -11  -8  164.28   10.10
  -1 -11  -8  156.58   20.90
  -2 -11  -8  149.79   20.10
  -1  -7   9    6.20    5.40
  -1  -7   9    1.10    7.20
   0  -7   9   -3.90    5.60
   1  -7   9    7.50    6.30
  -3  -6   9    6.40    7.70
  -2  -6   9   84.19   10.10
  -2  -6   9   75.99   17.00
  -1  -6   9    0.70    6.10
  -1  -6   9    7.10    7.70
   0  -6   9   14.30    7.60
   1  -6   9   86.99   15.20
   2  -6   9    1.60    5.80
   3  -6   9   38.70   11.30
  -5  -5   9   -0.60    6.10
  -4  -5   9   48.70   14.10
  -3  -5   9  216.18   12.10
  -3  -5   9  178.48   24.30
  -2  -5   9  109.49   12.80
  -2  -5   9   82.29   17.10
  -1  -5   9  115.99   19.70
  -1  -5   9  108.49   14.90
   0  -5   9  112.99   15.80
   1  -5   9   51.39   12.10
   2  -5   9   35.00   10.40
   3  -5   9   72.39   15.50
  -4   5  -9   34.60   11.20
  -6  -4   9   -1.90    6.60
  -5  -4   9   69.49   15.70
  -4  -4   9  297.47   25.70
  -3  -4   9    0.50    3.40
  -3  -4   9    6.00    5.70
  -2  -4   9    5.80    6.20
  -1  -4   9  216.38   17.70
  -1  -4   9  210.38   24.70
   0  -4   9   90.99   14.00
   1  -4   9   -4.50    3.90
   2  -4   9   13.80    7.40
  -3   4  -9  262.27   22.70
   3  -4   9  275.37   23.30
  -4   4  -9    8.40    5.10
  -5   4  -9    2.00    5.20
  -6  -3   9    3.30    6.80
  -5  -3   9   -0.80    5.10
  -4  -3   9  146.09   20.70
  -4  -3   9   98.79   10.30
  -3  -3   9    5.80    3.80
  -3  -3   9    4.00    5.70
  -2  -3   9    0.10    2.80
  -2  -3   9   -2.40    4.20
  -1  -3   9  545.45   26.90
  -1  -3   9  342.87   25.50
   0  -3   9   20.70    7.40
   1  -3   9   53.89   11.90
  -2   3  -9  220.78   23.10
   2  -3   9  170.48   20.50
  -3   3  -9    1.40    4.20
  -4   3  -9   23.40    8.00
  -4   3  -9   13.30    9.20
  -5   3  -9   86.29   14.50
  -5   3  -9   72.29   15.50
  -6   3  -9    6.00    5.60
  -6   3  -9   -3.40    7.60
  -7  -2   9    7.60    6.80
  -6  -2   9   16.00    8.50
  -5  -2   9  272.57   24.30
  -5  -2   9  281.17   13.90
  -4  -2   9    5.10    3.80
  -4  -2   9    5.70    5.30
  -3  -2   9  104.09   17.70
  -3  -2   9   42.10    9.50
  -2  -2   9   72.69   13.90
  -2  -2   9   60.69   10.60
  -1  -2   9   37.20    8.60
  -1  -2   9   36.90   10.00
   0  -2   9   34.80    8.70
  -1   2  -9  311.57   21.90
   1  -2   9  299.37   21.70
  -2   2  -9    0.10    3.50
  -2   2  -9   -0.30    5.30
   2  -2   9   -3.80    4.30
  -3   2  -9   38.40   11.50
  -3   2  -9   44.10   10.60
  -4   2  -9    9.50    7.50
  -4   2  -9   18.80    7.60
  -5   2  -9   75.49   15.20
  -5   2  -9   50.39   11.00
  -6   2  -9   21.60    9.60
  -6   2  -9   15.80    6.20
  -7  -1   9   86.89   17.20
  -6  -1   9  200.08   25.50
  -6  -1   9  197.28   10.70
  -5  -1   9   31.90    7.20
  -5  -1   9   27.60    9.80
  -4  -1   9   15.00    7.30
  -4  -1   9   11.50    4.90
  -3  -1   9   42.50    9.20
  -3  -1   9   43.00   11.00
  -2  -1   9   17.00    7.30
  -2  -1   9    5.60    4.30
  -1  -1   9  105.69   15.70
  -1  -1   9   98.89   14.20
   0   1  -9   44.10    9.90
   0  -1   9   54.29   11.20
  -1   1  -9  236.58   18.10
   1  -1   9  252.87   19.20
  -2   1  -9    4.80    4.30
  -2   1  -9   -0.80    4.40
   2  -1   9   -1.00    4.80
  -3   1  -9   73.69   12.50
  -3   1  -9   83.29   14.50
  -4   1  -9  147.39   20.90
  -4   1  -9  121.19   14.70
  -4   1  -9  152.28   18.90
  -5   1  -9   44.80   13.30
  -5   1  -9   25.50    9.20
  -5   1  -9   17.30    5.90
  -6   1  -9   -1.40    4.90
  -6   1  -9    3.70    5.60
  -6   1  -9    1.70    7.20
  -7   1  -9   89.29   17.90
  -7   1  -9   96.79   12.80
  -7   0   9    4.90    8.30
  -7   0   9   17.10    4.40
  -6   0   9   77.49    9.90
  -6   0   9   22.00    9.40
  -5   0   9   11.50    7.60
  -4   0   9    0.80    4.60
  -4   0   9   -1.80    3.80
  -3   0   9  309.67   22.90
  -3   0   9  285.57   19.10
  -2   0   9   10.60    6.00
  -2   0   9   11.50    5.40
   1   0  -9    6.50    5.00
  -1   0   9    0.40    3.90
   0   0  -9  297.97   19.40
   0   0  -9  262.47   19.30
   0   0   9  250.37   18.20
  -1   0  -9   17.40    6.80
  -1   0  -9   13.20    5.00
   1   0   9   27.10    7.60
  -2   0  -9  200.58   21.50
  -2   0  -9  141.19   16.70
  -2   0  -9  221.58   16.60
  -3   0  -9 1097.49   39.80
  -3   0  -9  981.80   34.40
  -3   0  -9 1032.10   42.40
  -4   0  -9   14.40    7.40
  -4   0  -9   17.40    5.80
  -4   0  -9   14.40    8.70
  -5   0  -9   83.29   11.80
  -5   0  -9   88.09   14.10
  -5   0  -9  102.39   18.20
  -6   0  -9  111.79   12.50
  -6   0  -9   75.49   15.40
  -6   0  -9  101.59   15.50
  -7   0  -9    4.50    3.40
  -7   0  -9   -0.50    6.90
  -7   1   9   65.99   16.30
  -7   1   9   77.19   10.60
  -6   1   9   10.00    6.40
  -6   1   9   10.50    7.80
  -5   1   9   75.19   11.70
  -5   1   9   92.39   17.40
  -4   1   9  678.73   34.80
  -4   1   9  564.04   27.00
  -3   1   9    0.50    4.30
  -3   1   9    1.50    4.20
   2  -1  -9    4.90    3.50
  -2   1   9    7.20    5.00
   1  -1  -9  568.44   26.90
   1  -1  -9  580.94   28.40
  -1   1   9  595.44   27.60
   0  -1  -9   74.79   11.90
   0  -1  -9   57.69   10.60
   0   1   9   44.30    9.30
  -1  -1  -9  151.08   18.10
  -1  -1  -9  137.79   16.10
  -1  -1  -9  134.49   14.90
   1   1   9  195.88   22.30
  -2  -1  -9    9.60    5.60
  -2  -1  -9   10.30    5.60
  -2  -1  -9    9.20    4.40
  -3  -1  -9   66.49   10.70
  -3  -1  -9   65.49   11.00
  -3  -1  -9   57.99   12.30
  -4  -1  -9   11.30    4.80
  -4  -1  -9   27.20    8.10
  -4  -1  -9   11.80    7.20
  -5  -1  -9   50.99   10.60
  -5  -1  -9   55.09    8.20
  -5  -1  -9   45.50   11.90
  -6  -1  -9   29.90    8.20
  -6  -1  -9   36.50   11.20
  -6  -1  -9    4.00    4.00
  -7  -1  -9    0.80    5.60
  -7  -1  -9   13.40    8.30
  -7   2   9   33.20   11.70
  -7   2   9   30.50    8.50
  -6   2   9   45.90   12.90
  -6   2   9   61.79   10.80
  -5   2   9  234.38   26.00
  -5   2   9  271.67   19.50
  -4   2   9   24.20    9.20
  -4   2   9   24.90    7.60
  -3   2   9  358.56   22.00
   2  -2  -9   98.09   14.90
   2  -2  -9   66.79   11.40
  -2   2   9   77.79   12.90
   1  -2  -9   57.39   10.60
   1  -2  -9   52.99    9.90
  -1   2   9   70.49   12.40
   0  -2  -9    0.70    3.30
   0  -2  -9    1.50    3.30
   0  -2  -9    1.60    4.30
   0   2   9    5.70    5.00
  -1  -2  -9   -0.30    4.10
  -1  -2  -9   14.40    5.50
  -1  -2  -9    6.40    4.00
  -2  -2  -9  100.49   14.70
  -2  -2  -9   99.39   12.00
  -2  -2  -9  124.39   14.60
  -3  -2  -9   18.60    6.30
  -3  -2  -9   26.50    6.60
  -3  -2  -9   31.50    9.10
  -4  -2  -9    0.60    2.50
  -4  -2  -9    0.60    3.60
  -4  -2  -9    5.60    5.20
  -5  -2  -9  164.98    7.20
  -5  -2  -9  159.18   20.60
  -5  -2  -9  174.08   14.80
  -6  -2  -9   20.60    7.30
  -6  -2  -9    4.80    6.40
  -7  -2  -9    3.10    6.10
  -7  -2  -9    7.20    4.70
  -7   3   9   21.70    8.50
  -6   3   9   15.10    6.80
  -5   3   9  161.18   18.30
  -4   3   9    4.20    4.60
   3  -3  -9   14.00    5.70
  -3   3   9   22.80    7.70
   2  -3  -9  442.86   25.00
   2  -3  -9  421.96   23.50
  -2   3   9  376.06   22.20
   1  -3  -9   23.40    8.00
   1  -3  -9   19.50    6.70
   1  -3  -9   17.20    6.40
  -1   3   9   19.10    7.30
   0  -3  -9   -3.10    1.80
   0  -3  -9   -0.10    4.00
   0  -3  -9    0.60    3.80
  -1  -3  -9 1438.86   45.60
  -1  -3  -9 1495.05   42.90
  -1  -3  -9 1400.26   37.90
  -2  -3  -9   85.79   12.30
  -2  -3  -9   94.89   14.00
  -2  -3  -9  100.29   11.30
  -3  -3  -9   37.60    6.40
  -3  -3  -9   33.10    8.70
  -3  -3  -9   21.60    6.50
  -4  -3  -9  410.46   24.80
  -4  -3  -9  378.76   19.80
  -4  -3  -9  383.26    9.60
  -5  -3  -9   -1.40    3.00
  -5  -3  -9   -1.70    3.50
  -6  -3  -9    2.10    4.70
  -6  -3  -9   11.50    4.40
  -7  -3  -9  206.48    8.60
  -7  -3  -9  194.08   23.10
  -7   4   9   19.10    8.20
  -6   4   9  330.37   23.30
  -5   4   9    8.50    5.70
   4  -4  -9   -2.40    4.70
  -4   4   9    5.10    6.10
   3  -4  -9  185.28   20.30
  -3   4   9  179.98   20.30
   2  -4  -9    0.30    3.20
   2  -4  -9    2.30    4.70
  -2   4   9    5.20    4.60
   1  -4  -9   10.10    5.80
   1  -4  -9    5.50    3.90
   1  -4  -9    7.30    4.70
   0  -4  -9  311.97   18.00
   0  -4  -9  303.77   21.50
   0  -4  -9  324.67   20.10
  -1  -4  -9  347.07   19.90
  -1  -4  -9  347.87   22.50
  -1  -4  -9  337.77   17.00
  -2  -4  -9    2.90    2.60
  -2  -4  -9    1.10    2.90
  -2  -4  -9    0.70    3.40
  -3  -4  -9  369.36   10.10
  -3  -4  -9  381.96   19.10
  -3  -4  -9  402.46   23.90
  -4  -4  -9    1.30    4.30
  -4  -4  -9    9.80    4.30
  -5  -4  -9   -1.00    3.60
  -5  -4  -9   -3.80    2.50
  -6  -4  -9   38.70   10.30
  -7  -4  -9   55.69   12.50
  -7   5   9  235.88   24.40
  -6   5   9    5.20    6.10
  -5   5   9  115.89   16.30
   4  -5  -9  314.27   22.60
  -4   5   9  284.37   22.10
   3  -5  -9   19.00    7.70
   3  -5  -9   23.40    7.90
  -3   5   9   22.30    8.40
   2  -5  -9   33.90    8.40
   2  -5  -9   33.30    9.60
   1  -5  -9   15.50    6.90
   1  -5  -9   16.40    5.50
   1  -5  -9   14.40    6.10
   0  -5  -9    0.20    3.30
   0  -5  -9   -1.10    1.90
   0  -5  -9   -1.80    3.40
  -1  -5  -9   39.40    6.80
  -1  -5  -9   47.40    8.90
  -1  -5  -9   31.50    8.90
  -2  -5  -9   -0.90    3.20
  -2  -5  -9    3.70    2.90
  -2  -5  -9    4.10    2.10
  -3  -5  -9  166.78   18.50
  -3  -5  -9  192.88   12.20
  -4  -5  -9    1.30    3.70
  -4  -5  -9    3.10    2.40
  -5  -5  -9   41.40   10.20
  -6  -5  -9   43.10   10.70
  -7  -5  -9   -5.20    3.80
  -6   6   9   11.00    7.40
   5  -6  -9    9.00    7.30
  -5   6   9   10.90    7.40
   4  -6  -9  356.06   24.30
  -4   6   9  310.77   25.30
   3  -6  -9   -3.20    3.30
   3  -6  -9    4.90    5.80
   2  -6  -9    7.70    5.70
   2  -6  -9    5.20    5.20
   2  -6  -9   10.50    5.20
   1  -6  -9  595.74   31.30
   1  -6  -9  591.34   25.20
   1  -6  -9  591.94   28.40
   0  -6  -9   78.19   13.90
   0  -6  -9   76.29   10.40
   0  -6  -9   74.09   11.20
  -1  -6  -9  216.08   18.50
  -1  -6  -9  226.98   15.50
  -1  -6  -9  236.78   11.80
  -2  -6  -9  661.53   30.90
  -2  -6  -9  631.44   23.50
  -3  -6  -9   28.00    5.40
  -3  -6  -9   25.00    7.90
  -4  -6  -9  110.59   15.50
  -5  -6  -9  208.58   17.80
  -6  -6  -9    4.20    5.30
  -7  -6  -9   18.20    8.20
  -6   7   9  -10.10    5.90
   5  -7  -9  289.27   23.70
   4  -7  -9    4.20    4.90
   3  -7  -9   36.10    9.60
   3  -7  -9   25.50    8.80
   2  -7  -9  459.15   29.80
   2  -7  -9  447.66   26.70
   2  -7  -9  451.85   24.00
   1  -7  -9    6.00    5.00
   1  -7  -9    2.00    2.80
   1  -7  -9    4.80    5.10
   0  -7  -9   58.69    8.40
   0  -7  -9   28.50    7.60
   0  -7  -9   36.00   10.00
  -1  -7  -9  131.09    6.50
  -1  -7  -9  130.89   14.00
  -1  -7  -9  110.59   16.50
  -2  -7  -9    0.50    2.80
  -2  -7  -9    6.50    4.60
  -3  -7  -9    1.70    4.40
  -3  -7  -9    2.60    2.20
  -4  -7  -9  159.98   18.10
  -5  -7  -9    8.20    5.40
  -6  -7  -9   -0.80    5.00
   5  -8  -9   -1.50    5.40
   4  -8  -9   31.70    9.20
   3  -8  -9  128.59   17.00
   3  -8  -9  101.29   17.10
   2  -8  -9   48.80   11.10
   2  -8  -9   60.49   10.60
   2  -8  -9   46.10   12.10
   1  -8  -9    1.00    3.50
   1  -8  -9   -0.60    4.50
   1  -8  -9   -0.90    4.00
   0  -8  -9  184.58   15.60
   0  -8  -9  200.08   22.50
   0  -8  -9  216.58   11.80
  -1  -8  -9   39.90   10.10
  -1  -8  -9   20.10    6.40
  -2  -8  -9    8.90    5.50
  -2  -8  -9   10.60    4.00
  -3  -8  -9   23.40    8.10
  -4  -8  -9  118.09   15.60
  -5  -8  -9    5.70    5.60
  -6  -8  -9   20.20    7.00
   4  -9  -9   45.40   10.70
   4  -9  -9   10.70    8.40
   3  -9  -9   65.19   12.50
   3  -9  -9   89.89   16.80
   2  -9  -9   18.60    9.30
   2  -9  -9   23.30    8.30
   2  -9  -9   25.10    8.80
   1  -9  -9    9.20    6.40
   1  -9  -9    8.80    4.50
   1  -9  -9   10.50    6.20
   0  -9  -9  498.45   12.10
   0  -9  -9  477.75   30.70
   0  -9  -9  439.26   23.30
  -1  -9  -9   81.59   15.30
  -1  -9  -9  104.39   12.10
  -2  -9  -9   56.29   12.20
  -2  -9  -9   47.30    5.90
  -3  -9  -9  341.37   22.70
  -4  -9  -9    8.40    6.20
  -5  -9  -9   22.70    7.30
   3 -10  -9    0.40    4.40
   2 -10  -9    4.80    5.30
   2 -10  -9    7.80    8.60
   1 -10  -9  104.19   15.10
   1 -10  -9  112.19   20.30
   1 -10  -9  117.89   10.00
   0 -10  -9   -3.30    4.40
   0 -10  -9    7.50    6.40
  -1 -10  -9   31.60    9.90
  -1 -10  -9   51.49    7.90
  -2 -10  -9  307.37   23.90
  -3 -10  -9    2.70    5.60
   0 -11  -9    0.50    6.90
  -1 -11  -9   39.20   12.10
  -2  -6  10   20.20    6.60
  -2  -6  10   16.20    9.90
  -1  -6  10   22.10    8.60
   0  -6  10   88.19   14.30
   1  -6  10    1.20    5.90
  -4  -5  10   15.50    9.70
  -3  -5  10   16.90    9.80
  -2  -5  10    1.70    7.50
  -2  -5  10   15.80    6.60
  -1  -5  10   25.40    9.80
   0  -5  10   35.40    9.70
   1  -5  10   23.00    8.50
   2  -5  10   -0.10    6.40
   3  -5  10   53.49   12.90
  -5  -4  10    1.00    7.20
  -4  -4  10  117.49   20.60
  -4  -4  10  132.59   10.40
  -3  -4  10    3.00    4.50
  -3  -4  10    4.50    6.90
  -2  -4  10   -0.50    5.60
  -1  -4  10   96.09   14.90
   0  -4  10   23.10    8.70
   1  -4  10   -1.20    5.20
   2  -4  10  186.28   22.60
  -3   4 -10   16.00    8.00
   3  -4  10   44.70   12.10
  -4   4 -10   -0.60    5.30
  -5  -3  10  175.68   24.60
  -4  -3  10  110.39   19.10
  -4  -3  10  150.28   12.60
  -3  -3  10   -1.20    5.20
  -3  -3  10   -2.90    4.20
  -2  -3  10  180.88   19.10
  -2  -3  10  147.79   21.80
  -1  -3  10   30.20    9.40
   0  -3  10   22.80    8.10
   1  -3  10   42.20   11.60
  -2   3 -10   21.20    7.80
   2  -3  10    3.80    6.80
  -3   3 -10   41.80   10.80
  -4   3 -10   46.00   11.80
  -5   3 -10   14.30   10.40
  -5   3 -10   24.50    9.30
  -6  -2  10   77.69   16.90
  -5  -2  10   15.80    5.50
  -5  -2  10    0.60    5.80
  -4  -2  10   19.30    9.20
  -4  -2  10   27.00    7.00
  -3  -2  10    5.80    5.10
  -3  -2  10    1.80    4.80
  -2  -2  10   53.99   10.50
  -2  -2  10   53.19   13.30
  -1  -2  10    1.30    5.00
   0  -2  10   56.09   12.10
  -1   2 -10   83.39   14.20
   1  -2  10   54.39   11.70
  -2   2 -10   15.80    7.00
   2  -2  10   15.90    8.20
  -3   2 -10    9.60    5.70
  -3   2 -10    5.70    6.00
  -4   2 -10  112.29   18.20
  -4   2 -10   92.29   14.60
  -5   2 -10   14.50    6.70
  -5   2 -10    9.80    8.10
  -6   2 -10   -2.20    3.70
  -6  -1  10   64.69   15.50
  -6  -1  10   81.99    8.90
  -5  -1  10   68.39   10.70
  -5  -1  10   53.99   14.20
  -4  -1  10    1.80    5.80
  -4  -1  10   18.10    5.70
  -3  -1  10  214.98   24.80
  -3  -1  10  196.08   16.90
  -2  -1  10   39.70   10.70
  -2  -1  10   62.39   11.70
  -1  -1  10    4.10    5.50
   0   1 -10  260.17   20.20
   0  -1  10  277.17   20.50
  -1   1 -10   14.50    6.60
   1  -1  10    1.90    5.60
  -2   1 -10    3.30    4.40
  -2   1 -10    2.80    4.80
  -3   1 -10  100.29   14.90
  -3   1 -10  127.09   18.30
  -4   1 -10    9.50    5.30
  -4   1 -10    6.20    7.60
  -5   1 -10   -0.30    3.30
  -5   1 -10    3.30    6.30
  -6   1 -10   54.69   10.90
  -6   1 -10   64.19   14.40
  -6   1 -10   45.00   14.90
  -7   0  10   73.79    8.30
  -7   0  10   65.59   16.80
  -7   0  10   78.19    8.90
  -6   0  10   38.40   12.60
  -6   0  10    7.10    6.40
  -5   0  10   -6.10    4.90
  -5   0  10    8.20    5.70
  -4   0  10  419.56   23.70
  -4   0  10  405.26   29.20
  -3   0  10   48.60    9.90
  -3   0  10   50.49   12.60
  -2   0  10    3.20    4.60
   1   0 -10  150.38   18.10
  -1   0  10  162.38   18.00
   0   0 -10   38.70    9.40
   0   0  10   43.90   10.20
  -1   0 -10   11.80    5.80
  -1   0 -10   19.00    7.40
   1   0  10   18.60    7.90
  -2   0 -10  171.68   20.40
  -2   0 -10  177.98   19.30
  -3   0 -10   78.89   12.00
  -3   0 -10  132.09   18.30
  -3   0 -10  127.39   20.20
  -4   0 -10   20.50    6.90
  -4   0 -10   22.20    9.70
  -4   0 -10   25.90    8.60
  -5   0 -10   49.60   10.90
  -5   0 -10   39.00   12.50
  -5   0 -10   51.69   12.00
  -6   0 -10    2.10    7.10
  -6   0 -10   10.00    5.90
  -6   0 -10    5.60    6.20
  -7   0 -10   23.90    5.90
  -7   0 -10   14.90   11.20
  -7   1  10   -1.90    7.10
  -7   1  10   10.60    6.50
  -6   1  10  -16.20    5.90
  -6   1  10   -0.20    5.90
  -5   1  10  128.69   16.00
  -5   1  10  144.99   22.40
  -4   1  10   57.99   11.70
  -4   1  10   25.90   10.60
  -3   1  10    9.40    5.90
   2  -1 -10  210.48   32.00
  -2   1  10  161.48   18.20
   1  -1 -10  130.79   17.10
  -1   1  10   85.49   13.70
   0  -1 -10  175.18   20.00
   0  -1 -10  149.79   16.90
   0   1  10  205.48   17.40
  -1  -1 -10    2.10    4.00
  -1  -1 -10    4.10    4.00
  -2  -1 -10  341.47   22.90
  -2  -1 -10  290.07   19.50
  -2  -1 -10  282.47   22.40
  -3  -1 -10  125.09   14.70
  -3  -1 -10  179.08   22.00
  -3  -1 -10  181.38   20.00
  -4  -1 -10    1.70    4.80
  -4  -1 -10   -0.40    4.60
  -5  -1 -10  179.68   23.80
  -5  -1 -10  183.58   13.90
  -5  -1 -10  156.08   18.00
  -6  -1 -10   31.00    8.60
  -6  -1 -10   60.79   15.00
  -6  -1 -10   20.80    6.40
  -7  -1 -10   39.00   12.70
  -7   2  10   39.60    9.60
  -6   2  10    0.60    4.40
  -5   2  10  169.58   18.50
  -4   2  10  178.28   19.40
  -3   2  10   11.70    6.10
   2  -2 -10  181.38   20.30
  -2   2  10  184.98   20.40
   1  -2 -10   81.39   13.50
   1  -2 -10   88.89   14.30
  -1   2  10   81.19   13.30
   0  -2 -10   56.89   10.90
   0  -2 -10   65.99   11.70
  -1  -2 -10   45.50   10.70
  -1  -2 -10   41.70    9.00
  -1  -2 -10   36.40    8.80
  -2  -2 -10  798.32   33.90
  -2  -2 -10  790.82   36.60
  -2  -2 -10  797.42   30.70
  -3  -2 -10    3.60    5.50
  -3  -2 -10   -1.40    3.40
  -3  -2 -10    5.20    5.00
  -4  -2 -10   94.89   13.80
  -4  -2 -10  100.69   11.10
  -4  -2 -10   83.99   15.70
  -5  -2 -10    3.00    3.80
  -5  -2 -10    5.50    3.00
  -5  -2 -10    3.20    5.20
  -6  -2 -10   11.60    7.00
  -6  -2 -10    6.80    6.70
  -7  -2 -10   91.09   17.10
  -7   3  10   23.60    9.20
  -6   3  10  304.97   22.00
  -5   3  10  188.78   21.30
  -4   3  10   91.39   14.20
   3  -3 -10  188.28   21.10
  -3   3  10  191.58   21.10
   2  -3 -10   51.59   11.80
   2  -3 -10   58.39   11.90
  -2   3  10   53.69   10.80
   1  -3 -10    4.40    4.60
   1  -3 -10    9.90    5.40
  -1   3  10   -1.60    4.50
   0  -3 -10  172.18   20.80
   0  -3 -10  158.18   17.70
   0  -3 -10  117.09   15.40
  -1  -3 -10   27.30    7.50
  -1  -3 -10    7.10    5.60
  -1  -3 -10   13.20    6.00
  -2  -3 -10   25.10    8.60
  -2  -3 -10   -5.10    3.30
  -2  -3 -10   20.00    7.20
  -3  -3 -10   48.30   11.90
  -3  -3 -10   59.29    8.50
  -3  -3 -10   59.39   10.60
  -4  -3 -10   -3.00    1.80
  -4  -3 -10    0.80    3.30
  -4  -3 -10    5.80    5.30
  -5  -3 -10    7.30    6.10
  -5  -3 -10   13.50    5.60
  -6  -3 -10    3.10    5.30
  -6  -3 -10    1.70    3.80
  -7  -3 -10   18.70    9.20
  -7  -3 -10   11.30    4.70
  -6   4  10   -2.00    5.50
  -5   4  10   81.49   15.30
  -4   4  10  268.37   21.50
   3  -4 -10  124.29   17.00
  -3   4  10  116.39   16.10
   2  -4 -10  113.29   17.00
   2  -4 -10   96.19   15.00
  -2   4  10  106.09   16.50
   1  -4 -10  125.39   16.10
   1  -4 -10  159.08   20.30
   1  -4 -10  152.38   17.50
   0  -4 -10  337.97   22.10
   0  -4 -10  367.66   24.80
   0  -4 -10  363.06   20.80
  -1  -4 -10   45.00    8.90
  -1  -4 -10   74.69   13.90
  -1  -4 -10   41.90    8.90
  -2  -4 -10    6.10    5.60
  -2  -4 -10    4.50    4.30
  -2  -4 -10    4.50    3.50
  -3  -4 -10  375.06   13.60
  -3  -4 -10  353.46   24.20
  -3  -4 -10  371.66   20.70
  -4  -4 -10  276.27   17.50
  -4  -4 -10  301.77   23.10
  -5  -4 -10   23.10    9.20
  -5  -4 -10   32.50    7.00
  -6  -4 -10   64.89   13.40
  -6  -4 -10   79.99    7.60
  -7  -4 -10   21.90    9.10
  -6   5  10   36.10   10.50
  -5   5  10  100.79   15.80
   4  -5 -10  245.78   21.30
  -4   5  10  224.68   24.20
   3  -5 -10  163.08   19.00
  -3   5  10  169.98   32.10
   2  -5 -10   13.30    7.00
   2  -5 -10   28.20    8.60
   1  -5 -10  257.77   18.20
   1  -5 -10  265.27   20.20
   1  -5 -10  250.77   21.20
   0  -5 -10  407.36   26.90
   0  -5 -10  421.06   21.10
   0  -5 -10  374.76   23.20
  -1  -5 -10   20.40    7.00
  -1  -5 -10   23.10    6.10
  -1  -5 -10   30.50    8.80
  -2  -5 -10  254.87   20.90
  -2  -5 -10  281.57   18.10
  -2  -5 -10  302.57   13.30
  -3  -5 -10   28.30    8.60
  -3  -5 -10   47.60   11.00
  -4  -5 -10   22.50    8.80
  -4  -5 -10    8.30    4.90
  -5  -5 -10   96.09    6.80
  -5  -5 -10   91.29   15.40
  -6  -5 -10   16.30    7.50
  -7  -5 -10    5.10    6.50
  -6   6  10    5.00    7.10
  -5   6  10  281.87   23.90
   4  -6 -10  141.59   20.30
   3  -6 -10   12.90    6.30
   3  -6 -10    9.10    7.30
   2  -6 -10  398.26   23.90
   2  -6 -10  427.86   26.90
   1  -6 -10   40.30   10.10
   1  -6 -10   42.10   11.50
   1  -6 -10   30.90    7.90
   0  -6 -10   23.80    8.60
   0  -6 -10   18.10    6.50
   0  -6 -10   42.30    7.30
  -1  -6 -10  147.89   13.20
  -1  -6 -10  266.87   22.00
  -1  -6 -10  203.58   15.80
  -2  -6 -10    2.60    4.40
  -2  -6 -10    4.10    3.80
  -3  -6 -10    3.10    3.50
  -3  -6 -10    0.70    4.80
  -4  -6 -10   60.09   12.80
  -4  -6 -10   71.29    6.90
  -5  -6 -10   60.99   13.10
  -6  -6 -10   25.00    9.20
   5  -7 -10    0.80    5.00
   4  -7 -10    7.70    5.60
   3  -7 -10  105.49   16.90
   3  -7 -10  129.79   17.50
   2  -7 -10  113.19   16.40
   2  -7 -10  120.29   15.40
   1  -7 -10   43.50   10.50
   1  -7 -10   29.50    6.90
   1  -7 -10   22.80    8.90
   0  -7 -10  127.39   13.40
   0  -7 -10  137.69   19.10
   0  -7 -10  133.69   16.20
  -1  -7 -10  170.28    9.40
  -1  -7 -10  184.18   14.90
  -1  -7 -10  222.88   23.90
  -2  -7 -10  313.37   23.10
  -2  -7 -10  321.17   17.50
  -3  -7 -10   -0.20    3.00
  -3  -7 -10    3.00    5.00
  -4  -7 -10  327.57   23.20
  -5  -7 -10  107.49   15.80
  -6  -7 -10    5.80    6.60
   5  -8 -10   60.39   13.40
   4  -8 -10    6.00    6.10
   3  -8 -10  105.39   17.00
   3  -8 -10  132.19   17.40
   2  -8 -10   95.79   14.30
   2  -8 -10   72.59   14.20
   1  -8 -10   79.69   15.60
   1  -8 -10  107.99   13.10
   1  -8 -10   60.89   12.00
   0  -8 -10  113.69   15.00
   0  -8 -10  132.69   19.80
   0  -8 -10   87.99   10.30
  -1  -8 -10   99.79   13.10
  -1  -8 -10   99.59   16.30
  -2  -8 -10    4.10    4.20
  -2  -8 -10   13.80    7.40
  -3  -8 -10  280.87   22.00
  -4  -8 -10   89.99   15.00
  -5  -8 -10    3.00    5.30
   4  -9 -10  264.07   22.50
   4  -9 -10  212.18   27.50
   3  -9 -10  106.09   19.20
   3  -9 -10   61.29   11.60
   2  -9 -10   11.10    7.10
   2  -9 -10    6.20   10.80
   2  -9 -10    7.60    6.80
   1  -9 -10  228.98   28.40
   1  -9 -10  229.58   15.70
   1  -9 -10  262.87   20.90
   0  -9 -10    5.50    3.10
   0  -9 -10    0.10    6.00
   0  -9 -10    1.20    3.90
  -1  -9 -10   16.30    8.50
  -1  -9 -10   13.30    5.90
  -2  -9 -10  262.37   13.30
  -2  -9 -10  264.47   22.10
  -3  -9 -10    3.60    4.50
  -4  -9 -10   14.00    6.90
   2 -10 -10    0.30   11.40
   2 -10 -10   31.10    8.00
   1 -10 -10   41.40   13.10
   1 -10 -10    6.10    5.00
   0 -10 -10   70.59   16.80
  -1 -10 -10    6.00    6.90
  -2 -10 -10  104.59   17.40
  -3 -10 -10  141.59   19.40
  -2  -5  11   -1.80    4.80
  -2  -5  11   -1.30    7.80
  -1  -5  11   66.89   13.20
   0  -5  11   61.79   13.50
   1  -5  11   -1.90    6.00
  -3  -4  11    3.20    7.90
  -3  -4  11    4.30    5.50
  -2  -4  11   21.90    8.10
  -1  -4  11    5.50    6.00
   0  -4  11   13.60    8.00
   1  -4  11   27.30   10.00
   2  -4  11    0.30    6.50
  -3   4 -11   26.40   11.50
   3  -4  11   38.80   13.00
  -4  -3  11  125.89   13.90
  -4  -3  11  113.59   22.40
  -3  -3  11    3.10    6.50
  -3  -3  11   12.20    8.90
  -2  -3  11   34.70    8.60
  -1  -3  11  164.38   20.00
   0  -3  11   -7.10    4.20
   1  -3  11   63.39   14.20
  -2   3 -11  122.99   19.20
   2  -3  11  154.58   21.30
  -3   3 -11   10.00    7.00
  -4   3 -11   12.10    6.90
  -5  -2  11  137.39   14.40
  -5  -2  11  187.98   27.20
  -4  -2  11   -2.80    6.20
  -4  -2  11    3.70    5.60
  -3  -2  11   44.10   10.20
  -3  -2  11   41.30   12.80
  -2  -2  11  186.48   20.40
  -1  -2  11    1.70    5.60
   0  -2  11    5.10    6.20
  -1   2 -11   16.50    7.60
   1  -2  11   21.60    8.90
  -2   2 -11   -0.70    5.20
   2  -2  11   17.30   13.80
  -3   2 -11   32.90   10.10
  -4   2 -11   -1.30    4.40
  -4   2 -11    8.10    9.10
  -5   2 -11    3.90    5.70
  -5   2 -11    4.20    9.20
  -6  -1  11    4.40    8.60
  -5  -1  11    7.60    8.30
  -5  -1  11   14.70    6.70
  -4  -1  11   82.99   17.90
  -4  -1  11   37.90   11.60
  -3  -1  11   20.40    8.10
  -2  -1  11   22.90    7.70
  -1  -1  11   37.80    9.60
   0   1 -11    2.40    5.50
   0  -1  11    0.70    5.10
  -1   1 -11   10.60    6.60
   1  -1  11    4.20    5.40
  -2   1 -11   21.90    8.00
  -3   1 -11    7.00    5.80
  -3   1 -11    6.00    6.30
  -4   1 -11  100.59   17.40
  -4   1 -11  100.99   15.10
  -5   1 -11    4.00    7.50
  -5   1 -11    3.50    5.10
  -6   0  11   47.70   11.00
  -6   0  11   82.09   18.50
  -5   0  11    3.00    6.70
  -5   0  11    2.80    5.60
  -4   0  11   90.39   13.60
  -3   0  11  293.47   21.90
  -2   0  11    4.90    4.80
  -1   0  11    5.00    5.20
   0   0 -11  278.17   21.90
   0   0  11  269.97   21.90
  -1   0 -11   -2.30    3.70
  -1   0 -11   10.20    6.20
  -2   0 -11   -0.20    4.30
  -2   0 -11    6.30    5.20
  -3   0 -11  607.24   30.20
  -3   0 -11  591.14   32.90
  -4   0 -11    0.20    5.50
  -4   0 -11   13.00    6.60
  -5   0 -11   20.70   11.00
  -5   0 -11   46.20    9.90
  -5   0 -11   45.70   11.80
  -6   0 -11  108.29   12.80
  -6   0 -11   65.89   16.50
  -6   1  11   24.40   12.00
  -5   1  11   63.49   12.90
  -4   1  11  429.66   26.20
  -3   1  11   61.69   12.90
  -2   1  11  169.38   20.50
   1  -1 -11  533.55   29.50
  -1   1  11  574.44   30.90
   0  -1 -11   -7.60    3.50
   0  -1 -11   -0.40    4.30
   0   1  11    6.40    6.00
  -1  -1 -11   -0.40    4.40
  -1  -1 -11    5.00    4.20
  -2  -1 -11   39.10   10.40
  -2  -1 -11   41.00    9.30
  -3  -1 -11   -0.70    2.80
  -3  -1 -11    0.40    5.80
  -3  -1 -11   -4.30    3.50
  -4  -1 -11    7.20    4.90
  -4  -1 -11   -2.50    5.30
  -4  -1 -11    3.30    5.20
  -5  -1 -11    3.60    5.40
  -5  -1 -11    5.40    6.20
  -5  -1 -11    8.60    5.20
  -6  -1 -11    6.30    7.70
  -6  -1 -11  -15.80    4.30
  -6   2  11   35.30    9.40
  -5   2  11  339.77   24.20
  -4   2  11   22.90    9.00
  -3   2  11  144.89   19.40
   2  -2 -11   -3.10    4.40
  -2   2  11    1.70    5.20
   1  -2 -11  103.69   15.70
  -1   2  11  130.69   18.80
   0  -2 -11   79.69   13.60
   0  -2 -11  107.39   15.10
  -1  -2 -11    7.40    5.60
  -1  -2 -11    3.00    4.80
  -1  -2 -11   19.30   10.30
  -2  -2 -11   -2.30    3.80
  -2  -2 -11   15.20    8.00
  -2  -2 -11    7.30    5.20
  -3  -2 -11   17.20    6.60
  -3  -2 -11    3.40    5.60
  -3  -2 -11   12.10    6.80
  -4  -2 -11   15.30    6.80
  -4  -2 -11   15.50    5.70
  -4  -2 -11    9.10    7.20
  -5  -2 -11   18.30    9.60
  -5  -2 -11   24.60    5.50
  -5  -2 -11   21.10    7.90
  -6  -2 -11    1.70    5.90
  -6   3  11    2.70    6.40
  -5   3  11  254.07   25.90
  -4   3  11   13.80    7.50
   3  -3 -11    0.90    6.90
  -3   3  11   12.10    7.90
   2  -3 -11  281.87   22.20
  -2   3  11  318.67   23.50
   1  -3 -11    4.60    4.90
   1  -3 -11   -0.20    4.50
   0  -3 -11   72.39   12.30
   0  -3 -11  124.89   17.70
  -1  -3 -11  469.15   24.80
  -1  -3 -11  459.45   29.40
  -1  -3 -11  445.06   26.80
  -2  -3 -11   21.50    8.70
  -2  -3 -11   32.60    7.80
  -2  -3 -11   15.60    6.70
  -3  -3 -11   82.69   16.10
  -3  -3 -11   75.09   12.60
  -3  -3 -11   69.59   10.20
  -4  -3 -11  202.98   12.20
  -4  -3 -11  208.88   17.50
  -4  -3 -11  269.27   23.50
  -5  -3 -11   13.60    6.00
  -5  -3 -11   -4.80    4.50
  -6  -3 -11   24.00    9.80
  -6   4  11  104.59   16.50
  -5   4  11    3.10    5.80
  -4   4  11  150.88   20.10
   3  -4 -11  472.25   29.30
  -3   4  11  492.65   29.40
   2  -4 -11    6.30    6.70
   2  -4 -11    9.50    5.70
   1  -4 -11   76.59   13.90
   1  -4 -11   74.89   13.00
   0  -4 -11  144.89   18.70
   0  -4 -11  159.98   17.90
   0  -4 -11  174.38   22.80
  -1  -4 -11   19.80    8.90
  -1  -4 -11   30.70    8.60
  -1  -4 -11   22.00    6.60
  -2  -4 -11  262.37   19.90
  -2  -4 -11  239.48   21.60
  -2  -4 -11  250.87   15.80
  -3  -4 -11  121.49   15.70
  -3  -4 -11  117.49   17.60
  -3  -4 -11  109.79   10.70
  -4  -4 -11   71.89   14.10
  -4  -4 -11  103.89   13.30
  -5  -4 -11   12.10    5.70
  -5  -4 -11   13.90    8.10
  -6  -4 -11   24.50    9.80
  -6  -4 -11   18.90    6.40
  -6   5  11   17.30    8.20
  -5   5  11   78.29   16.00
   4  -5 -11  133.39   18.90
  -4   5  11  112.59   17.40
   3  -5 -11   65.49   14.40
   2  -5 -11  132.89   18.20
   2  -5 -11  107.49   16.60
   1  -5 -11  168.18   19.00
   1  -5 -11  141.99   18.10
   0  -5 -11  113.39   16.00
   0  -5 -11   71.99   11.80
   0  -5 -11   94.39   17.10
  -1  -5 -11   45.60   10.30
  -1  -5 -11   25.00    7.00
  -1  -5 -11   40.40   10.60
  -2  -5 -11    7.80    4.10
  -2  -5 -11    5.10    4.90
  -2  -5 -11    4.10    5.70
  -3  -5 -11  295.07   20.50
  -3  -5 -11  310.77   24.50
  -4  -5 -11    4.20    6.10
  -5  -5 -11   61.39   13.90
  -5  -5 -11   26.40    7.00
  -6  -5 -11  347.97   26.90
  -5   6  11    6.50    6.70
   4  -6 -11  127.09   19.00
   3  -6 -11    0.50    5.00
   2  -6 -11   19.40    7.10
   2  -6 -11   18.90    8.80
   1  -6 -11  604.64   31.80
   1  -6 -11  609.54   28.60
   1  -6 -11  617.24   35.20
   0  -6 -11   20.10    7.70
   0  -6 -11   23.70    7.70
   0  -6 -11    6.90    6.90
  -1  -6 -11   -5.50    2.60
  -1  -6 -11    2.80    4.00
  -1  -6 -11    1.30    5.80
  -2  -6 -11  367.76   26.50
  -2  -6 -11  367.16   21.10
  -2  -6 -11  371.66   12.20
  -3  -6 -11    8.20    4.20
  -3  -6 -11    7.30    7.00
  -4  -6 -11  112.09   17.90
  -4  -6 -11  113.19    9.60
  -5  -6 -11   89.19   16.20
  -6  -6 -11   21.60    8.80
   5  -7 -11  216.88   24.90
   4  -7 -11    2.80    4.60
   3  -7 -11  201.38   21.10
   3  -7 -11  286.07   29.80
   2  -7 -11  315.97   21.70
   2  -7 -11  309.37   24.80
   1  -7 -11   35.10   10.90
   1  -7 -11   26.40    6.80
   1  -7 -11   22.90    8.80
   0  -7 -11  132.39   16.60
   0  -7 -11  168.58   23.10
   0  -7 -11  174.48   13.90
  -1  -7 -11  105.39   14.40
  -1  -7 -11   82.99   15.90
  -1  -7 -11   97.89    9.70
  -2  -7 -11  113.29   18.20
  -2  -7 -11  119.89   14.00
  -3  -7 -11   74.19    9.50
  -3  -7 -11   97.39   17.00
  -4  -7 -11   41.00   11.00
  -5  -7 -11    3.50    5.60
   4  -8 -11   30.60   10.10
   3  -8 -11   43.70   12.00
   3  -8 -11   74.49   13.80
   2  -8 -11   56.79   13.30
   2  -8 -11   56.19   11.30
   1  -8 -11   16.20    7.40
   1  -8 -11   11.10    6.90
   1  -8 -11   25.00   11.00
   0  -8 -11   11.90    4.70
   0  -8 -11    7.90    7.20
   0  -8 -11   25.80    7.90
  -1  -8 -11  140.39   15.80
  -1  -8 -11  113.09   18.20
  -2  -8 -11    9.50    4.70
  -2  -8 -11    4.70    6.50
  -3  -8 -11   20.30    8.80
  -3  -8 -11   16.00    4.40
  -4  -8 -11  257.27   22.40
   3  -9 -11  101.09   15.70
   2  -9 -11   10.90    6.70
   2  -9 -11    2.40    7.30
   1  -9 -11   -3.00    5.50
   1  -9 -11   -0.40    5.30
   0  -9 -11  149.29   22.80
   0  -9 -11  118.69    8.60
   0  -9 -11  117.79   16.70
  -1  -9 -11   26.50    7.80
  -1  -9 -11    5.00    7.10
  -2  -9 -11   48.30   12.30
  -2  -9 -11   42.40    7.30
  -3  -9 -11  248.58   22.20
   0 -10 -11    7.30    8.00
  -1 -10 -11  167.28   24.50
  -1  -4  12   40.40   11.80
   0  -4  12   11.60    6.10
   1  -4  12    4.00    6.70
  -3  -3  12   17.50    7.40
  -2  -3  12  103.69   15.40
  -1  -3  12    4.90    5.90
   0  -3  12    7.00    7.30
   1  -3  12    5.20    7.60
   2  -3  12   11.60    8.30
  -3   3 -12   -2.40    5.20
  -4  -2  12    7.00    6.90
  -3  -2  12    2.90    6.00
  -2  -2  12  189.38   20.50
  -1  -2  12  105.69   17.70
   0  -2  12   46.30   13.30
   1  -2  12   35.70   10.80
  -2   2 -12   13.50    7.80
  -3   2 -12   -0.50    5.70
  -4   2 -12  157.28   19.80
  -5  -1  12    7.90    6.90
  -3  -1  12  201.88   21.00
  -2  -1  12   61.69   13.40
  -1  -1  12    1.80    5.50
   0  -1  12  263.17   27.40
  -1   1 -12   46.40   11.90
   1  -1  12   24.70    9.40
  -2   1 -12    7.70    5.80
  -3   1 -12    2.70    5.20
  -3   1 -12    5.70    6.80
  -4   1 -12    2.70    5.50
  -4   1 -12   -2.40    6.50
  -5   0  12    8.10    7.30
  -4   0  12  285.57   22.50
  -3   0  12    2.50    5.70
  -2   0  12   92.79   16.40
  -1   0  12  129.79   18.50
   0   0 -12   10.70    6.90
   0   0  12    9.20    6.40
  -1   0 -12    5.30    5.80
  -2   0 -12   22.30    8.90
  -2   0 -12   43.00   10.70
  -3   0 -12    1.40    5.30
  -3   0 -12    1.90    4.70
  -4   0 -12   17.10    7.00
  -4   0 -12   10.80    7.70
  -5   0 -12  -14.20    4.40
  -5   1  12  148.39   19.70
  -4   1  12  111.39   17.30
  -3   1  12   10.20    7.00
  -2   1  12   62.99   13.60
   1  -1 -12  279.17   22.90
  -1   1  12  258.87   26.30
   0  -1 -12    5.00    5.70
  -1  -1 -12   14.90    7.40
  -1  -1 -12   18.30    7.50
  -2  -1 -12  438.96   28.80
  -2  -1 -12  442.46   26.30
  -3  -1 -12   52.79   12.00
  -3  -1 -12   44.40   10.30
  -4  -1 -12    8.60    5.70
  -4  -1 -12    0.20    7.40
  -4  -1 -12    8.20    6.70
  -5  -1 -12   76.09   17.80
  -5  -1 -12   77.39   12.00
  -5   2  12  153.88   20.40
  -4   2  12   48.90   11.80
  -3   2  12    5.20    6.60
   2  -2 -12  423.66   28.60
  -2   2  12  402.46   27.40
   1  -2 -12   63.19   12.80
  -1   2  12   82.39   15.10
   0  -2 -12    5.60    5.30
   0  -2 -12    0.80    4.90
  -1  -2 -12  119.79   18.30
  -1  -2 -12   95.59   14.90
  -2  -2 -12   -1.10    4.10
  -2  -2 -12    5.10    4.90
  -3  -2 -12    8.90    5.40
  -3  -2 -12    1.00    6.40
  -3  -2 -12   10.90    7.40
  -4  -2 -12   76.19   14.70
  -4  -2 -12   52.39   14.00
  -4  -2 -12   97.19   13.00
  -5  -2 -12   -7.90    5.60
  -5  -2 -12   -0.70    4.00
  -5   3  12   32.20   10.30
  -4   3  12   25.60   10.50
  -3   3  12  242.48   25.00
   2  -3 -12    8.10    6.60
  -2   3  12   -2.50    5.40
   1  -3 -12    7.30    6.50
   1  -3 -12    8.00    5.70
   0  -3 -12  189.18   20.90
   0  -3 -12  124.79   18.00
  -1  -3 -12   13.50    6.90
  -1  -3 -12    5.90    5.30
  -2  -3 -12   14.80    7.40
  -2  -3 -12   -1.90    5.50
  -2  -3 -12    6.30    4.70
  -3  -3 -12  253.67   20.70
  -3  -3 -12  271.87   29.60
  -3  -3 -12  245.38   17.30
  -4  -3 -12  108.99   15.60
  -4  -3 -12   77.99   10.10
  -4  -3 -12   81.99   17.00
  -5  -3 -12    3.70    6.60
  -5   4  12   13.30    8.50
  -4   4  12   55.69   13.30
   3  -4 -12  180.28   23.00
  -3   4  12  111.79   18.80
   2  -4 -12   75.29   13.90
   1  -4 -12   96.49   16.70
   1  -4 -12   88.49   15.50
   0  -4 -12  393.66   24.20
   0  -4 -12  367.36   26.50
  -1  -4 -12   17.20    6.30
  -1  -4 -12   17.30    8.40
  -1  -4 -12   22.80    8.30
  -2  -4 -12   22.90    8.60
  -2  -4 -12   20.30    9.40
  -2  -4 -12    5.20    5.50
  -3  -4 -12  381.86   18.00
  -3  -4 -12  405.76   25.30
  -3  -4 -12  385.66   28.70
  -4  -4 -12    6.00    6.80
  -4  -4 -12    9.30    6.10
  -5  -4 -12    0.80    5.90
  -5   5  12   56.59   14.80
   4  -5 -12  213.38   25.20
  -4   5  12  221.68   26.20
   3  -5 -12   16.30    8.50
   2  -5 -12   20.30    8.10
   2  -5 -12   12.20    7.00
   1  -5 -12  705.23   33.50
   1  -5 -12  659.23   35.70
   0  -5 -12   29.60   10.90
   0  -5 -12   27.40    8.30
   0  -5 -12   23.20    8.70
  -1  -5 -12    7.10    6.90
  -1  -5 -12   -1.20    3.70
  -1  -5 -12   -0.30    4.90
  -2  -5 -12  178.88   20.10
  -2  -5 -12  162.68   12.60
  -2  -5 -12  192.68   24.40
  -3  -5 -12    1.80    5.40
  -3  -5 -12   -4.10    1.90
  -3  -5 -12   -0.40    4.50
  -4  -5 -12    4.10    6.60
  -4  -5 -12   12.40    6.70
  -5  -5 -12  126.09   19.70
   4  -6 -12    7.40    6.80
   3  -6 -12   12.60    6.80
   2  -6 -12  459.95   27.80
   2  -6 -12  429.66   29.50
   1  -6 -12    4.50    5.40
   1  -6 -12    3.00    4.10
   0  -6 -12    1.20    4.80
   0  -6 -12   -6.80    4.70
   0  -6 -12    1.20    4.60
  -1  -6 -12  245.68   28.40
  -1  -6 -12  263.07   16.70
  -1  -6 -12  223.28   18.70
  -2  -6 -12   14.50    4.30
  -2  -6 -12   20.00    9.30
  -2  -6 -12   17.50    6.80
  -3  -6 -12   88.49   16.80
  -3  -6 -12   87.59   13.00
  -4  -6 -12   17.30    8.80
  -4  -6 -12   33.10    7.00
  -5  -6 -12   79.19   16.70
   4  -7 -12   10.10    6.90
   3  -7 -12   13.60    7.30
   2  -7 -12   55.89   13.20
   2  -7 -12   56.89   11.40
   1  -7 -12   40.60    8.60
   1  -7 -12   42.40   11.60
   0  -7 -12    7.00    7.00
   0  -7 -12    0.30    5.10
   0  -7 -12   20.00    7.10
  -1  -7 -12  158.78   17.90
  -1  -7 -12  204.58   25.90
  -1  -7 -12  168.48   11.80
  -2  -7 -12   71.29   15.60
  -2  -7 -12   68.49   11.50
  -3  -7 -12    9.40    5.20
  -3  -7 -12   11.60    7.80
  -4  -7 -12  141.39   20.80
  -4  -7 -12  164.48    9.90
   3  -8 -12   88.59   18.30
   3  -8 -12   95.99   16.20
   2  -8 -12   70.89   12.90
   2  -8 -12   53.59   13.70
   1  -8 -12    6.20    6.40
   1  -8 -12    1.00    7.20
   1  -8 -12    9.70    5.20
   0  -8 -12  131.99   14.00
   0  -8 -12  140.49   18.60
   0  -8 -12  111.59   18.90
  -1  -8 -12   11.10    7.80
  -1  -8 -12    5.40    5.30
  -2  -8 -12   13.80    8.50
  -2  -8 -12    9.50    6.20
  -3  -8 -12  245.88   28.20
  -3  -8 -12  265.97   16.70
   1  -9 -12  123.09   21.50
   1  -9 -12  179.28   15.10
   0  -9 -12    3.90    7.60
   0  -9 -12    4.10    3.60
  -1  -9 -12   -1.60    6.00
  -2  -9 -12  211.58   26.50
  -2  -2  13   61.99   13.30
  -1  -2  13   -7.40    6.30
   0  -2  13   17.80    8.10
   1  -2  13   54.99   14.80
  -2   2 -13   12.20    8.10
  -3  -1  13    4.30    6.80
  -2  -1  13   71.59   15.00
  -1  -1  13   53.29   13.80
   0  -1  13   19.00    8.60
  -1   1 -13   45.80   12.00
  -2   1 -13   20.70    9.00
  -3   1 -13   18.60    8.90
  -4   0  13    7.10    7.00
  -3   0  13   81.59   15.80
  -2   0  13    2.00    5.70
  -1   0  13  156.68   21.90
   0   0 -13   92.79   15.90
   0   0  13  102.39   17.00
  -1   0 -13    4.70    5.70
  -2   0 -13   79.59   15.20
  -3   0 -13  118.99   18.90
  -3   0 -13  105.59   17.00
  -4   0 -13   13.30    6.60
  -4   1  13  112.09   18.00
  -3   1  13    1.60    6.50
  -2   1  13  179.18   23.30
   1  -1 -13  109.99   18.00
  -1   1  13   98.89   16.80
   0  -1 -13   17.90    8.30
  -1  -1 -13  182.28   21.90
  -2  -1 -13    9.90    6.80
  -2  -1 -13    9.20    7.30
  -3  -1 -13   47.70   11.20
  -3  -1 -13   49.80   12.50
  -4  -1 -13  150.28   18.50
  -4   2  13   45.10   12.30
  -3   2  13   83.39   16.80
  -2   2  13   -0.40    5.50
   1  -2 -13  298.97   24.90
   0  -2 -13   15.50    8.40
  -1  -2 -13   39.10   11.30
  -1  -2 -13   74.99   14.50
  -2  -2 -13  136.89   17.60
  -2  -2 -13  154.68   21.30
  -3  -2 -13   28.90    9.60
  -3  -2 -13   29.30    8.80
  -4  -2 -13   45.90   14.90
  -4  -2 -13   32.10   15.10
  -4  -2 -13   53.09   10.70
  -4   3  13    2.80    7.00
  -3   3  13   42.00   12.60
   2  -3 -13  147.19   20.40
  -2   3  13  235.28   28.20
   1  -3 -13    2.50    5.80
   0  -3 -13  122.29   18.90
   0  -3 -13   84.79   15.00
  -1  -3 -13  113.99   17.60
  -1  -3 -13  144.89   18.90
  -2  -3 -13   10.70    6.10
  -2  -3 -13   -2.20    5.50
  -3  -3 -13   22.80   11.80
  -3  -3 -13   38.90   11.40
  -3  -3 -13   25.00    8.30
  -4  -3 -13    3.00    4.90
  -4  -3 -13   15.80    9.90
  -4   4  13   57.69   14.30
   3  -4 -13   47.60   12.50
  -3   4  13   35.00   11.50
   2  -4 -13    5.50    6.70
   1  -4 -13  373.46   26.30
   1  -4 -13  318.07   26.90
   0  -4 -13   47.50   11.30
   0  -4 -13   39.50   12.20
  -1  -4 -13   21.90    8.60
  -1  -4 -13    9.60    5.90
  -2  -4 -13  234.08   24.30
  -2  -4 -13  159.88   17.00
  -2  -4 -13  157.78   22.50
  -3  -4 -13   40.30    7.90
  -3  -4 -13   32.30    9.90
  -3  -4 -13   30.80   11.60
  -4  -4 -13   80.39   17.70
  -4   5  13   -0.20    7.70
   3  -5 -13   38.70   11.70
   2  -5 -13   31.60   10.90
   1  -5 -13   -3.60    6.30
   1  -5 -13    0.90    4.50
   0  -5 -13  113.49   18.30
   0  -5 -13  117.99   16.30
  -1  -5 -13   52.39   14.40
  -1  -5 -13   43.90   12.00
  -1  -5 -13   42.30    9.20
  -2  -5 -13   -4.00    4.30
  -2  -5 -13   -1.00    5.80
  -2  -5 -13    5.10    4.60
  -3  -5 -13  214.48   21.60
  -3  -5 -13  202.68   11.30
  -3  -5 -13  243.68   28.50
  -4  -5 -13   -3.10    7.20
   3  -6 -13    6.80    5.90
   2  -6 -13   15.00    7.90
   2  -6 -13   22.00   10.70
   1  -6 -13  510.45   32.30
   1  -6 -13  453.85   26.90
   0  -6 -13    0.80    5.70
   0  -6 -13   10.30    5.40
  -1  -6 -13   84.19   18.20
  -1  -6 -13   79.79   14.30
  -1  -6 -13   71.99   11.60
  -2  -6 -13   69.69   12.60
  -2  -6 -13   40.10   13.30
  -2  -6 -13   67.89    8.30
  -3  -6 -13    6.00    7.00
  -4  -6 -13   40.70   12.30
   3  -7 -13   81.69   15.90
   2  -7 -13  107.29   15.90
   2  -7 -13  111.69   19.20
   1  -7 -13   -0.80    6.30
   1  -7 -13   -1.90    3.80
   0  -7 -13   59.09   15.30
   0  -7 -13   37.10   10.20
   0  -7 -13   64.39   13.90
  -1  -7 -13   38.00    7.60
  -1  -7 -13   31.20   11.80
  -1  -7 -13   22.60    8.40
  -2  -7 -13   34.80   12.70
  -3  -7 -13  181.78   25.70
   1  -8 -13   -3.10    5.90
   0  -8 -13   11.40    5.50
   0  -8 -13    1.90    6.90
  -1  -8 -13  144.39   23.50
  -2  -8 -13    8.40    7.60
   0  -1  14   73.09   16.30
  -2   0  14   27.60   10.60
  -1   0  14   52.99   14.20
   0   0 -14   28.50    9.80
   0   0  14   50.19   14.00
  -1   0 -14   12.70    7.20
  -2   0 -14   13.40    7.10
  -3   1  14   -0.80    7.00
  -2   1  14    1.60    7.30
  -1   1  14  255.97   28.00
   0  -1 -14   16.30    7.90
  -1  -1 -14   21.40    9.30
  -2  -1 -14  236.38   25.10
  -2  -1 -14  136.29   21.90
  -3  -1 -14   14.40    7.10
  -3   2  14   11.50    9.40
  -2   2  14  279.37   30.10
   1  -2 -14    3.70    6.90
   0  -2 -14   23.00   10.40
  -1  -2 -14  112.99   19.00
  -1  -2 -14  116.69   18.50
  -2  -2 -14   -3.70    6.30
  -2  -2 -14   -4.40    4.90
  -3  -2 -14    8.60    5.90
  -3   3  14   16.60   10.10
   2  -3 -14   18.30    9.60
   1  -3 -14   12.90    7.90
   0  -3 -14   52.29   18.30
   0  -3 -14   99.79   16.40
  -1  -3 -14   60.29   12.80
  -1  -3 -14   48.50   13.40
  -2  -3 -14    5.50    5.50
  -2  -3 -14    6.90    6.30
  -3  -3 -14   58.99   11.30
   3  -4 -14   28.20   10.90
   2  -4 -14   27.50    9.90
   1  -4 -14   -3.40    5.10
   0  -4 -14  277.07   29.10
   0  -4 -14  313.37   24.10
  -1  -4 -14   22.80    9.60
  -1  -4 -14   15.30    7.00
  -2  -4 -14   -2.20    5.90
  -2  -4 -14   -5.50    5.50
  -3  -4 -14   97.79   19.50
  -3  -4 -14   91.89   12.30
   2  -5 -14   11.80    7.30
   1  -5 -14  207.48   26.90
   1  -5 -14  192.78   22.30
   0  -5 -14   11.50    6.80
   0  -5 -14   12.40    9.20
  -1  -5 -14   23.30   11.00
  -1  -5 -14   11.80    6.60
  -2  -5 -14  132.59   14.90
  -2  -5 -14  146.99   22.10
  -3  -5 -14   26.00   11.00
  -3  -5 -14   32.00    6.60
   2  -6 -14   65.39   13.20
   1  -6 -14   14.10    9.40
   1  -6 -14    6.10    6.00
   0  -6 -14    3.30    4.00
   0  -6 -14   -0.20    6.60
  -1  -6 -14   24.10   12.40
  -1  -6 -14    7.40    7.10
  -2  -6 -14   50.59   15.30
  -2  -6 -14   81.89    9.60
   0  -7 -14   26.10    9.40
  -1  -7 -14   64.09   17.00
  -1  -7 -14   95.09   11.40
   0  -3 -15   28.50   10.90
   0   0   0    0.00    0.00

_computing_structure_solution     'SHELXT 2014/5 (Sheldrick, 2014)'
;
_shelx_hkl_checksum              96712
_olex2_submission_special_instructions 'No special instructions were received'
loop_
_space_group_symop_operation_xyz
'x, y, z'
'-x, -y, -z'
loop_
_atom_site_label
_atom_site_type_symbol
_atom_site_fract_x
_atom_site_fract_y
_atom_site_fract_z
_atom_site_U_iso_or_equiv
_atom_site_adp_type
_atom_site_occupancy
_atom_site_site_symmetry_order
_atom_site_calc_flag
_atom_site_refinement_flags_posn
_atom_site_refinement_flags_adp
_atom_site_refinement_flags_occupancy
_atom_site_disorder_assembly
_atom_site_disorder_group
Cu1 Cu 0.65916(6) 0.61388(6) 0.21966(5) 0.01814(17) Uani 1 1 d . U . . .
Cu2 Cu 0.02533(7) 0.16479(6) 0.76684(5) 0.02330(18) Uani 1 1 d . . . . .
O1 O 0.9186(4) 0.6197(3) 0.2503(3) 0.0194(7) Uani 1 1 d . . . . .
O2 O 1.1375(4) 0.5323(4) 0.3822(3) 0.0295(8) Uani 1 1 d . . . . .
O3 O 0.6876(4) 0.5625(3) 0.0689(3) 0.0246(7) Uani 1 1 d . . . . .
O4 O 0.8074(4) 0.4175(4) -0.0382(3) 0.0305(8) Uani 1 1 d . . . . .
O5 O 0.3485(4) 0.0054(4) 0.1402(3) 0.0270(7) Uani 1 1 d . . . . .
O6 O 0.1196(4) -0.0090(4) 0.2667(3) 0.0288(8) Uani 1 1 d . . . . .
O7 O 0.1717(4) 0.1562(4) 0.6310(3) 0.0262(7) Uani 1 1 d . . . . .
O8 O 0.3891(4) 0.3184(4) 0.6386(3) 0.0254(7) Uani 1 1 d . . . . .
O9 O 0.6905(4) 0.8787(4) 0.1158(3) 0.0300(7) Uani 1 1 d . U . . .
H9A H 0.776078 0.917234 0.147246 0.045 Uiso 1 1 d GR . . . .
H9B H 0.592129 0.930593 0.120432 0.045 Uiso 1 1 d GR . . . .
O10 O 0.4047(4) 0.5905(4) 0.2137(3) 0.0378(9) Uani 1 1 d . . . . .
H10A H 0.368729 0.622316 0.141329 0.057 Uiso 1 1 d GR . . . .
H10B H 0.352592 0.642815 0.255336 0.057 Uiso 1 1 d GR . . . .
O11 O -0.0894(4) 0.1560(4) 0.9179(3) 0.0276(7) Uani 1 1 d . . . . .
H11A H -0.186598 0.104836 0.925512 0.041 Uiso 1 1 d GR . . . .
H11B H -0.117768 0.247906 0.922373 0.041 Uiso 1 1 d GR . . . .
N1 N 0.7781(4) 0.3463(4) 0.2847(3) 0.0179(8) Uani 1 1 d . . . . .
C1 C 0.9995(5) 0.5125(5) 0.3338(4) 0.0197(10) Uani 1 1 d . . . . .
C2 C 0.9139(6) 0.3596(5) 0.3702(4) 0.0199(10) Uani 1 1 d . . . . .
H2A H 1.004860 0.279089 0.376614 0.024 Uiso 1 1 calc R . . . .
H2B H 0.860154 0.345311 0.448731 0.024 Uiso 1 1 calc R . . . .
C3 C 0.8548(6) 0.3316(5) 0.1718(4) 0.0216(10) Uani 1 1 d . . . . .
H3A H 0.838242 0.228263 0.166571 0.026 Uiso 1 1 calc R . . . .
H3B H 0.981923 0.346333 0.172970 0.026 Uiso 1 1 calc R . . . .
C4 C 0.7746(5) 0.4447(5) 0.0603(4) 0.0202(10) Uani 1 1 d . . . . .
C5 C 0.2746(6) 0.0305(5) 0.2311(4) 0.0200(10) Uani 1 1 d . . . . .
C6 C 0.3113(5) 0.2275(5) 0.5921(4) 0.0199(10) Uani 1 1 d . . . . .
C7 C 0.6216(5) 0.2638(5) 0.3303(4) 0.0172(9) Uani 1 1 d . . . . .
C8 C 0.5304(5) 0.1855(5) 0.2625(4) 0.0182(9) Uani 1 1 d . . . . .
H8 H 0.574485 0.182069 0.188039 0.022 Uiso 1 1 calc R . . . .
C9 C 0.3731(5) 0.1123(5) 0.3056(4) 0.0170(9) Uani 1 1 d . . . . .
C10 C 0.3051(5) 0.1182(5) 0.4153(4) 0.0172(9) Uani 1 1 d . . . . .
H10 H 0.203463 0.065854 0.445794 0.021 Uiso 1 1 calc R . . . .
C11 C 0.3911(5) 0.2040(5) 0.4800(4) 0.0168(9) Uani 1 1 d . . . . .
C12 C 0.5472(5) 0.2754(5) 0.4370(4) 0.0192(10) Uani 1 1 d . . . . .
H12 H 0.603148 0.332289 0.480743 0.023 Uiso 1 1 calc R . . . .
loop_
_atom_site_aniso_label
_atom_site_aniso_U_11
_atom_site_aniso_U_22
_atom_site_aniso_U_33
_atom_site_aniso_U_23
_atom_site_aniso_U_13
_atom_site_aniso_U_12
Cu1 0.0169(3) 0.0249(3) 0.0170(3) -0.0126(2) 0.0026(2) -0.0049(2)
Cu2 0.0264(3) 0.0272(3) 0.0223(3) -0.0156(3) 0.0108(2) -0.0135(2)
O1 0.0190(15) 0.0191(16) 0.0213(17) -0.0071(14) -0.0002(13) -0.0046(13)
O2 0.0198(16) 0.044(2) 0.0291(19) -0.0153(16) -0.0011(14) -0.0118(15)
O3 0.0283(17) 0.0302(18) 0.0184(18) -0.0121(15) -0.0028(13) 0.0021(14)
O4 0.0315(18) 0.048(2) 0.0199(18) -0.0232(16) 0.0018(14) -0.0011(16)
O5 0.0265(17) 0.0384(19) 0.0243(18) -0.0212(16) 0.0085(14) -0.0131(15)
O6 0.0251(17) 0.0396(19) 0.0320(19) -0.0253(16) 0.0139(14) -0.0196(15)
O7 0.0269(17) 0.0350(19) 0.0242(18) -0.0186(15) 0.0152(14) -0.0178(15)
O8 0.0232(16) 0.0391(19) 0.0222(18) -0.0207(15) 0.0097(13) -0.0163(14)
O9 0.0295(17) 0.0321(15) 0.028(2) -0.0082(14) 0.0038(15) 0.0015(15)
O10 0.0191(17) 0.077(3) 0.026(2) -0.028(2) 0.0004(14) -0.0059(17)
O11 0.0323(18) 0.0293(18) 0.0260(19) -0.0146(15) 0.0108(14) -0.0120(15)
N1 0.0201(18) 0.023(2) 0.0136(19) -0.0095(16) 0.0041(15) -0.0075(16)
C1 0.019(2) 0.027(2) 0.020(2) -0.017(2) 0.0091(19) -0.0082(19)
C2 0.019(2) 0.024(2) 0.016(2) -0.005(2) -0.0014(18) -0.0035(19)
C3 0.018(2) 0.021(2) 0.028(3) -0.009(2) 0.0037(19) -0.0032(18)
C4 0.016(2) 0.029(3) 0.021(3) -0.014(2) 0.0070(18) -0.0104(19)
C5 0.022(2) 0.021(2) 0.017(2) -0.005(2) 0.0043(19) -0.0067(19)
C6 0.018(2) 0.025(2) 0.019(2) -0.010(2) 0.0007(19) -0.0007(19)
C7 0.020(2) 0.016(2) 0.017(2) -0.0061(19) 0.0025(18) -0.0053(18)
C8 0.022(2) 0.021(2) 0.015(2) -0.0099(19) 0.0064(18) -0.0063(19)
C9 0.020(2) 0.016(2) 0.017(2) -0.0076(19) 0.0014(18) -0.0044(18)
C10 0.018(2) 0.020(2) 0.015(2) -0.0060(19) 0.0051(17) -0.0056(18)
C11 0.017(2) 0.023(2) 0.013(2) -0.0074(19) 0.0020(17) -0.0036(18)
C12 0.020(2) 0.022(2) 0.020(2) -0.014(2) 0.0005(18) -0.0055(18)
loop_
_atom_type_symbol
_atom_type_description
_atom_type_scat_dispersion_real
_atom_type_scat_dispersion_imag
_atom_type_scat_source
C C 0.0033 0.0016 'International Tables Vol C Tables 4.2.6.8 and 6.1.1.4'
H H 0.0000 0.0000 'International Tables Vol C Tables 4.2.6.8 and 6.1.1.4'
Cu Cu 0.3201 1.2651 'International Tables Vol C Tables 4.2.6.8 and 6.1.1.4'
N N 0.0061 0.0033 'International Tables Vol C Tables 4.2.6.8 and 6.1.1.4'
O O 0.0106 0.0060 'International Tables Vol C Tables 4.2.6.8 and 6.1.1.4'
loop_
_geom_angle_atom_site_label_1
_geom_angle_atom_site_label_2
_geom_angle_atom_site_label_3
_geom_angle
_geom_angle_site_symmetry_1
_geom_angle_site_symmetry_3
_geom_angle_publ_flag
O1 Cu1 O9 83.54(11) . . ?
O1 Cu1 N1 72.33(11) . . ?
O3 Cu1 O1 95.28(12) . . ?
O3 Cu1 O9 89.56(12) . . ?
O3 Cu1 N1 77.46(12) . . ?
O8 Cu1 O1 89.15(12) 2_666 . ?
O8 Cu1 O3 173.70(13) 2_666 . ?
O8 Cu1 O9 86.49(12) 2_666 . ?
O8 Cu1 O10 85.73(13) 2_666 . ?
O8 Cu1 N1 108.22(13) 2_666 . ?
O9 Cu1 N1 151.16(11) . . ?
O10 Cu1 O1 171.72(14) . . ?
O10 Cu1 O3 90.35(13) . . ?
O10 Cu1 O9 102.60(14) . . ?
O10 Cu1 N1 103.12(14) . . ?
O1 Cu2 H9A 95.6(5) 2_666 2_666 ?
O6 Cu2 O1 152.18(14) 2_556 2_666 ?
O6 Cu2 H9A 112.1(5) 2_556 2_666 ?
O7 Cu2 O1 92.29(13) . 2_666 ?
O7 Cu2 O6 88.43(12) . 2_556 ?
O7 Cu2 H9A 83.60(14) . 2_666 ?
O11 Cu2 O1 89.59(12) . 2_666 ?
O11 Cu2 O6 94.09(13) . 2_556 ?
O11 Cu2 O7 170.85(14) . . ?
O11 Cu2 H9A 87.31(14) . 2_666 ?
Cu2 O1 Cu1 107.56(13) 2_666 . ?
C1 O1 Cu1 121.2(3) . . ?
C1 O1 Cu2 118.6(2) . 2_666 ?
C4 O3 Cu1 122.6(3) . . ?
C5 O6 Cu2 129.7(3) . 2_556 ?
C6 O7 Cu2 129.3(3) . . ?
C6 O8 Cu1 132.6(3) . 2_666 ?
Cu1 O9 H9A 110.7 . . ?
Cu1 O9 H9B 110.2 . . ?
H9A O9 H9B 108.2 . . ?
Cu1 O10 H10A 109.5 . . ?
Cu1 O10 H10B 109.2 . . ?
H10A O10 H10B 109.4 . . ?
Cu2 O11 H11A 111.0 . . ?
Cu2 O11 H11B 110.3 . . ?
H11A O11 H11B 108.0 . . ?
C2 N1 Cu1 100.3(2) . . ?
C2 N1 C3 112.3(3) . . ?
C3 N1 Cu1 100.2(2) . . ?
C7 N1 Cu1 102.0(2) . . ?
C7 N1 C2 118.3(3) . . ?
C7 N1 C3 118.9(3) . . ?
O1 C1 C2 116.5(3) . . ?
O2 C1 O1 123.1(4) . . ?
O2 C1 C2 120.4(4) . . ?
N1 C2 C1 112.2(4) . . ?
N1 C2 H2A 109.2 . . ?
N1 C2 H2B 109.2 . . ?
C1 C2 H2A 109.2 . . ?
C1 C2 H2B 109.2 . . ?
H2A C2 H2B 107.9 . . ?
N1 C3 H3A 108.7 . . ?
N1 C3 H3B 108.7 . . ?
N1 C3 C4 114.0(3) . . ?
H3A C3 H3B 107.6 . . ?
C4 C3 H3A 108.7 . . ?
C4 C3 H3B 108.7 . . ?
O3 C4 C3 120.3(4) . . ?
O4 C4 O3 123.0(4) . . ?
O4 C4 C3 116.6(4) . . ?
O5 C5 O6 124.8(4) . . ?
O5 C5 C9 119.5(4) . . ?
O6 C5 C9 115.7(4) . . ?
O7 C6 C11 117.3(4) . . ?
O8 C6 O7 126.2(4) . . ?
O8 C6 C11 116.5(4) . . ?
C8 C7 N1 121.1(4) . . ?
C12 C7 N1 119.9(3) . . ?
C12 C7 C8 118.5(4) . . ?
C7 C8 H8 119.8 . . ?
C7 C8 C9 120.4(4) . . ?
C9 C8 H8 119.8 . . ?
C8 C9 C5 120.1(4) . . ?
C10 C9 C5 119.6(4) . . ?
C10 C9 C8 120.3(4) . . ?
C9 C10 H10 120.4 . . ?
C9 C10 C11 119.1(4) . . ?
C11 C10 H10 120.4 . . ?
C10 C11 C6 120.8(4) . . ?
C12 C11 C6 119.0(4) . . ?
C12 C11 C10 120.1(4) . . ?
C7 C12 C11 121.3(4) . . ?
C7 C12 H12 119.4 . . ?
C11 C12 H12 119.4 . . ?
loop_
_geom_bond_atom_site_label_1
_geom_bond_atom_site_label_2
_geom_bond_distance
_geom_bond_site_symmetry_2
_geom_bond_publ_flag
Cu1 O1 1.989(3) . ?
Cu1 O3 1.937(3) . ?
Cu1 O8 1.935(3) 2_666 ?
Cu1 O9 2.393(3) . ?
Cu1 O10 1.935(3) . ?
Cu1 N1 2.472(4) . ?
Cu2 O1 1.974(3) 2_666 ?
Cu2 O6 1.940(3) 2_556 ?
Cu2 O7 1.932(3) . ?
Cu2 H9A 1.82(3) 2_666 ?
Cu2 O11 1.929(3) . ?
O1 C1 1.303(5) . ?
O2 C1 1.225(5) . ?
O3 C4 1.261(5) . ?
O4 C4 1.254(5) . ?
O5 C5 1.259(5) . ?
O6 C5 1.264(5) . ?
O7 C6 1.267(5) . ?
O8 C6 1.265(5) . ?
O9 H9A 0.8720 . ?
O9 H9B 0.8711 . ?
O10 H10A 0.8507 . ?
O10 H10B 0.8502 . ?
O11 H11A 0.8707 . ?
O11 H11B 0.8695 . ?
N1 C2 1.459(5) . ?
N1 C3 1.464(5) . ?
N1 C7 1.436(5) . ?
C1 C2 1.503(6) . ?
C2 H2A 0.9700 . ?
C2 H2B 0.9700 . ?
C3 H3A 0.9700 . ?
C3 H3B 0.9700 . ?
C3 C4 1.522(6) . ?
C5 C9 1.499(6) . ?
C6 C11 1.492(6) . ?
C7 C8 1.395(6) . ?
C7 C12 1.382(6) . ?
C8 H8 0.9300 . ?
C8 C9 1.398(6) . ?
C9 C10 1.382(6) . ?
C10 H10 0.9300 . ?
C10 C11 1.397(6) . ?
C11 C12 1.383(6) . ?
C12 H12 0.9300 . ?
