#------------------------------------------------------------------------------
#$Date: 2020-06-16 04:24:09 +0300 (Tue, 16 Jun 2020) $
#$Revision: 253165 $
#$URL: file:///home/coder/svn-repositories/cod/cif/7/24/07/7240726.cif $
#------------------------------------------------------------------------------
#
# This file is available in the Crystallography Open Database (COD),
# http://www.crystallography.net/
#
# All data on this site have been placed in the public domain by the
# contributors.
#
data_7240726
loop_
_publ_author_name
'Malaspina, Lorraine Andrade'
'Hoser, Anna A.'
'Edwards, Alison'
'Woinska, Magdalena'
'Turner, Michael J.'
'Price, Jason R.'
'Sugimoto, Kunihisa'
'Nishibori, Eiji'
'Burgi, Hans-Beat'
'Jayatilaka, Dylan'
'Grabowsky, Simon'
_publ_section_title
;
 Hydrogen atoms in bridging positions from quantum crystallographic
 refinements: Influence of hydrogen atom displacement parameters on
 geometry and electron density
;
_journal_name_full               CrystEngComm
_journal_paper_doi               10.1039/D0CE00378F
_journal_year                    2020
_chemical_absolute_configuration syn
_chemical_formula_moiety         'C4 H3 O4, C5 H7 N2'
_chemical_formula_sum            'C9 H10 N2 O4'
_chemical_formula_weight         210.191
_chemical_name_common            '4-aminopyridinium hydrogen maleate'
_space_group_IT_number           4
_space_group_name_Hall           'P 2yb'
_space_group_name_H-M_alt        'P 1 21 1'
_symmetry_cell_setting           monoclinic
_symmetry_Int_Tables_number      4
_symmetry_space_group_name_Hall  'P 2yb'
_symmetry_space_group_name_H-M   'P 1 21 1'
_atom_sites_solution_hydrogens   difmap
_atom_sites_solution_primary     dual
_audit_creation_date             2019-04-25T11:21:27-00:00
_audit_creation_method           'WinGX routine CIF_UPDATE'
_audit_update_record
;
2020-03-10 deposited with the CCDC.	2020-06-15 downloaded from the CCDC.
;
_cell_angle_alpha                90
_cell_angle_beta                 96.394(7)
_cell_angle_gamma                90
_cell_formula_units_Z            2
_cell_length_a                   7.85280(10)
_cell_length_b                   5.54510(10)
_cell_length_c                   10.9223(2)
_cell_measurement_reflns_used    109774
_cell_measurement_temperature    16.5(10)
_cell_measurement_theta_max      30.4
_cell_measurement_theta_min      0.94
_cell_measurement_wavelength     0.3542
_cell_volume                     472.648(15)
_computing_cell_refinement       'CrystalClear (Rigaku/MSC Inc., 2006)'
_computing_data_collection       'CrystalClear (Rigaku/MSC Inc., 2006)'
_computing_data_reduction
'CrystalClear (Rigaku/MSC Inc., 2006), SORTAV (Blessing, 1995)'
_computing_structure_refinement
'Tonto 18.12.17 github v. 2b3dd9c (Capelli, 2014)'
_computing_structure_solution    'SHELXT-2014 (Sheldrick, 2014)'
_diffrn_ambient_temperature      16.5(10)
_diffrn_detector                 'SPring-8 BL02B1 Curved Imaging Plate'
_diffrn_detector_area_resol_mean 10
_diffrn_measured_fraction_theta_full 0.998
_diffrn_measured_fraction_theta_max 0.973
_diffrn_measurement_device       'quarter \C-circle diffractometer'
_diffrn_measurement_device_type  IPDSC-Q
_diffrn_measurement_method       'phi or omega oscillation scans'
_diffrn_orient_matrix_type       fs_process
_diffrn_orient_matrix_UB_11      -0.018979
_diffrn_orient_matrix_UB_12      -0.095374
_diffrn_orient_matrix_UB_13      -0.078031
_diffrn_orient_matrix_UB_21      -0.126383
_diffrn_orient_matrix_UB_22      0.003037
_diffrn_orient_matrix_UB_23      0.00491
_diffrn_orient_matrix_UB_31      -0.009321
_diffrn_orient_matrix_UB_32      0.153024
_diffrn_orient_matrix_UB_33      -0.048731
_diffrn_radiation_monochromator  graphite
_diffrn_radiation_probe          x-ray
_diffrn_radiation_type           synchrotron
_diffrn_radiation_wavelength     0.3532
_diffrn_reflns_av_R_equivalents  0.0243
_diffrn_reflns_av_unetI/netI     0.0142
_diffrn_reflns_Laue_measured_fraction_full 0.998
_diffrn_reflns_Laue_measured_fraction_max 0.973
_diffrn_reflns_limit_h_max       18
_diffrn_reflns_limit_h_min       -17
_diffrn_reflns_limit_k_max       13
_diffrn_reflns_limit_k_min       -13
_diffrn_reflns_limit_l_max       27
_diffrn_reflns_limit_l_min       -27
_diffrn_reflns_number            70399
_diffrn_reflns_point_group_measured_fraction_full 0.995
_diffrn_reflns_point_group_measured_fraction_max 0.944
_diffrn_reflns_theta_full        12.27
_diffrn_reflns_theta_max         26.277
_diffrn_reflns_theta_min         0.935
_diffrn_source                   SPring-8
_diffrn_standards_number         0
_exptl_absorpt_coefficient_mu    0.039
_exptl_absorpt_correction_type   none
_exptl_crystal_colour            colorless
_exptl_crystal_density_diffrn    1.477
_exptl_crystal_density_method    'not measured'
_exptl_crystal_description       block
_exptl_crystal_F_000             220
_exptl_crystal_size_max          0.11
_exptl_crystal_size_mid          0.09
_exptl_crystal_size_min          0.08
_refine_diff_density_max         0.3191
_refine_diff_density_min         -0.2819
_refine_diff_density_rms         0.0439
_refine_ls_abs_structure_details
;
 Flack x determined using 6079 quotients [(I+)-(I-)]/[(I+)+(I-)]
 (Parsons, Flack and Wagner, Acta Cryst. B69 (2013) 249-259).
;
_refine_ls_abs_structure_Flack   0.0(4)
_refine_ls_extinction_method     none
_refine_ls_goodness_of_fit_all   2.5401
_refine_ls_goodness_of_fit_gt    2.5401
_refine_ls_hydrogen_treatment    refxyz
_refine_ls_matrix_type           full
_refine_ls_number_constraints    61
_refine_ls_number_parameters     165
_refine_ls_number_reflns         13813
_refine_ls_number_restraints     0
_refine_ls_R_factor_all          0.0195
_refine_ls_R_factor_gt           0.0195
_refine_ls_shift/su_max          0.0067
_refine_ls_structure_factor_coef F
_refine_ls_weighting_details     w=1/\s(F)
_refine_ls_weighting_scheme      sigma
_refine_ls_wR_factor_all         0.0171
_refine_ls_wR_factor_gt          0.0171
_reflns_Friedel_coverage         0.84
_reflns_Friedel_fraction_full    0.992
_reflns_Friedel_fraction_max     0.911
_reflns_number_gt                13813
_reflns_number_total             14565
_reflns_threshold_expression     'F>0 & F/u(F)>4.0 & |F_calc|>10^-3'
_iucr_refine_instructions_details
;
!!!!!!!!!!!!!!!!!!!!!!!!!!!!!!!!!!!!!!!!!!!!!!!!!!!!!!!!!!!!!!!!!!!!!!!!!!!!!!!
!!!                                                                         !!!
!!!                        This stdin was written with lamaGOET             !!!
!!!                                                                         !!!
!!!                    script written by Lorraine Andrade Malaspina         !!!
!!!                        contact: lorraine.malaspina@gmail.com            !!!
!!!                                                                         !!!
!!!!!!!!!!!!!!!!!!!!!!!!!!!!!!!!!!!!!!!!!!!!!!!!!!!!!!!!!!!!!!!!!!!!!!!!!!!!!!!
{

   name= 4AP_HAR_neutron

   charge= 0
   multiplicity= 1

   ! Process the CIF
   cif= {
      file_name=  ./new_with_neutron_ADPs.cif
   }
   process_cif 

   name= 4AP_HAR_neutron

   basis_directory= /basis_sets
   basis_name= def2-TZVP

   crystal= {

      xray_data= {
         thermal_smearing_model= hirshfeld
         partition_model= mulliken
         optimise_extinction= false
         correct_dispersion= false
         optimise_scale_factor= true
         wavelength= 0.3532 Angstrom
	 refine_H_ADPs= false

         REDIRECT ./4AP_olex2.hkl


         f_sigma_cutoff= 4.0
      }
   }

  
   ! Geometry
   put

   ! Normal SCF
   scfdata= {
      initial_density= promolecule 
      kind=            rhf
      use_SC_cluster_charges= FALSE
      convergence= 0.001
      diis= { convergence_tolerance= 0.0002 }
   }

   scf

   ! SC cluster charge SCF
   scfdata= {
      initial_MOs= restricted
      kind=            rhf
      use_SC_cluster_charges= TRUE
      cluster_radius= 8 angstrom
      convergence= 0.001
      diis= {
         convergence_tolerance= 0.0002
      }
   }

   refine_hirshfeld_atoms

}
;
_cod_data_source_file            d0ce00378f2.cif
_cod_data_source_block           4AP_HAR_neutron
_cod_depositor_comments
;
The following automatic conversions were performed:

data item '_symmetry_cell_setting' value 'Monoclinic' was changed to
'monoclinic' in accordance with the
/home/data/users/saulius/crontab/automatic-downloads/rss-feeds/RSC/lib/dictionaries/cif_core.dic
dictionary named 'cif_core.dic' version 2.4.2 last updated on
2011-04-26.

Automatic conversion script
Id: cif_fix_values 7556 2019-12-06 15:28:31Z antanas 
;
_cod_original_cell_volume        472.648(14)
_cod_original_sg_symbol_Hall     'p 2yb'
_cod_original_sg_symbol_H-M      'p 1 21 1'
_cod_database_code               7240726
_shelx_estimated_absorpt_t_min   0.996
_shelx_estimated_absorpt_t_max   0.997
_refine_ls_coordinate_system     cartesian
_refine_ls_svd_threshold         0.1E-02
_iucr_refine_reflections_details
;
reflection_data= {
  keys= { h= k= l= i_exp= i_sigma= }
     data= {
 -18  -5  -1    319.34     63.75
 -18  -5   0    236.39    163.96
 -18  -4  -3      0.00     60.70
 -18  -4  -2    117.06     60.39
 -18  -4  -1    847.41     94.70
 -18  -4   0    487.50    152.75
 -18  -3  -6    298.13    100.01
 -18  -3  -5    957.08    136.74
 -18  -3  -4    170.62     59.16
 -18  -3  -3   2585.92    104.33
 -18  -3  -2      0.00     54.96
 -18  -3  -1    838.34     75.59
 -18  -3   0    522.71    132.85
 -18  -2  -7    596.27     97.95
 -18  -2  -6    374.17     59.65
 -18  -2  -5    286.75     56.69
 -18  -2  -4    353.80     55.30
 -18  -2  -3    249.53     52.89
 -18  -2  -2    347.86     61.88
 -18  -2  -1    181.94     55.92
 -18  -2   0     65.51     53.04
 -18  -1  -7   2505.19    239.72
 -18  -1  -6    138.71     54.88
 -18  -1  -5   2284.20    118.56
 -18  -1  -4    247.29     66.32
 -18  -1  -3    797.51     50.41
 -18  -1  -2    532.11     71.57
 -17  -6  -4   1245.79     91.90
 -17  -6  -3   1920.26    205.94
 -17  -6  -2    691.94    101.46
 -17  -6  -1    144.78     68.47
 -17  -6   0     91.86     66.13
 -17  -5  -6    580.89     48.54
 -17  -5  -5    147.90     67.87
 -17  -5  -4   1117.86    197.52
 -17  -5  -3    697.57     88.78
 -17  -5  -2   2037.63    136.74
 -17  -5  -1     80.71     62.32
 -17  -5   0    243.97     61.57
 -17  -4  -8      0.00     44.79
 -17  -4  -7    456.59    110.77
 -17  -4  -6    555.97     67.05
 -17  -4  -5      0.00     63.46
 -17  -4  -4    164.88     61.91
 -17  -4  -3     92.55     59.93
 -17  -4  -2    357.33     60.74
 -17  -4  -1    375.99     78.01
 -17  -4   0    377.67     56.15
 -17  -3  -9      1.17     35.98
 -17  -3  -8   1076.26    158.85
 -17  -3  -7     43.83     47.85
 -17  -3  -6    117.70     61.65
 -17  -3  -5    221.81     60.13
 -17  -3  -4     76.44     57.51
 -17  -3  -3    143.20     72.66
 -17  -3  -2    764.57     91.65
 -17  -3  -1   3466.28    294.66
 -17  -3   0   2286.78    256.79
 -17  -2 -10    341.43     70.76
 -17  -2  -9    487.47     74.73
 -17  -2  -8    254.77     63.31
 -17  -2  -7    936.09    116.20
 -17  -2  -6    555.61     61.51
 -17  -2  -5    474.23     82.70
 -17  -2  -4     51.18     53.11
 -17  -2  -3    310.94     51.77
 -17  -2  -2   1051.42     53.11
 -17  -2  -1    905.61     79.81
 -17  -2   0   1241.27    115.24
 -17  -1 -10     33.88     52.68
 -17  -1  -9    262.76     51.13
 -17  -1  -8    164.56     48.64
 -17  -1  -7    550.80     58.03
 -17  -1  -6   1891.58    201.20
 -17  -1  -5    244.54     51.96
 -17  -1  -4    649.48    156.07
 -17  -1  -3    800.78     86.88
 -17  -1  -2   3234.29    200.23
 -17  -1  -1   1633.81    133.46
 -17  -1   0    768.26    120.89
 -16  -7  -5    563.99     51.11
 -16  -7  -4   1802.85     59.59
 -16  -7  -3   1639.36     67.84
 -16  -7  -2   4175.33    154.93
 -16  -7  -1    754.80     45.09
 -16  -7   0    161.71     48.55
 -16  -6  -7    171.75     44.59
 -16  -6  -6   1069.98     86.07
 -16  -6  -5    275.29     42.72
 -16  -6  -4    697.43     59.17
 -16  -6  -3    200.43     40.26
 -16  -6  -2    892.03     81.06
 -16  -6  -1    511.03     62.54
 -16  -6   0    350.64     51.65
 -16  -5  -9     65.11     41.49
 -16  -5  -8    852.74     65.96
 -16  -5  -7    317.17     42.04
 -16  -5  -6    305.68     52.20
 -16  -5  -5   1947.46    141.92
 -16  -5  -4   2653.12     62.16
 -16  -5  -3    413.11     60.62
 -16  -5  -2    937.43     75.33
 -16  -5  -1   1771.41    109.67
 -16  -5   0    100.27     34.33
 -16  -4 -11   2938.55     74.12
 -16  -4 -10    389.79     55.96
 -16  -4  -9   2447.45     53.05
 -16  -4  -8   1126.64     65.41
 -16  -4  -7    426.78     57.70
 -16  -4  -6   3113.28    328.82
 -16  -4  -5   1539.67     94.93
 -16  -4  -4   2557.64    138.55
 -16  -4  -3   3463.73     62.84
 -16  -4  -2   1470.99     77.05
 -16  -4  -1   1228.42     75.09
 -16  -4   0     72.98     33.49
 -16  -3 -12    434.31     41.94
 -16  -3 -11    585.99     37.45
 -16  -3 -10    117.05     37.28
 -16  -3  -9    817.18     52.78
 -16  -3  -8    984.36     67.86
 -16  -3  -7    121.90     31.92
 -16  -3  -6   1388.26     85.36
 -16  -3  -5    953.51     46.19
 -16  -3  -4    506.56     56.12
 -16  -3  -3    275.06     28.06
 -16  -3  -2    914.51     50.71
 -16  -3  -1    897.68     46.81
 -16  -3   0   1204.00     33.40
 -16  -2 -12    934.63     71.16
 -16  -2 -11   2750.72     98.07
 -16  -2 -10    119.41     30.97
 -16  -2  -9   1830.58     58.68
 -16  -2  -8   3892.75    211.52
 -16  -2  -7   2428.85    111.08
 -16  -2  -6   1374.55     73.15
 -16  -2  -5   2122.86    113.57
 -16  -2  -4   2821.74    150.13
 -16  -2  -3    622.88     30.14
 -16  -2  -2    971.39     66.73
 -16  -2   0    233.63     44.24
 -16  -1 -13    552.01     47.10
 -16  -1 -12    940.93     46.45
 -16  -1 -11   1979.77     63.73
 -16  -1 -10   1810.31     79.83
 -16  -1  -9    163.73     28.91
 -16  -1  -8     87.55     30.69
 -16  -1  -7    648.47     30.49
 -16  -1  -6    179.07     26.30
 -16  -1  -5    476.77     26.66
 -16  -1  -4   3423.68     98.78
 -16  -1  -3   2717.81    168.65
 -16  -1  -2    301.73     56.41
 -16  -1  -1   1084.12     49.44
 -16  -1   0    316.35     38.33
 -16   0   2     11.79     32.17
 -16   0   5   1116.45     18.97
 -16   1   2     27.75     13.88
 -16   4  12    144.20     60.87
 -16   4  13     57.69     61.67
 -16   4  14    123.35     63.67
 -16   4  15    176.36     65.22
 -16   5  11    101.51     67.22
 -16   5  12   3489.82     94.83
 -16   5  13    535.69     73.58
 -16   5  14    172.63     69.45
 -16   6  11   3630.85     98.73
 -16   6  12    342.93     77.12
 -16   7  10     86.96     79.50
 -15  -8  -5    327.22     53.91
 -15  -8  -4    462.06     41.79
 -15  -8  -3    218.04     63.06
 -15  -8  -2   3148.04    106.62
 -15  -8  -1    343.01     40.25
 -15  -8   0    351.51     44.78
 -15  -7  -8   2992.41     53.92
 -15  -7  -7    751.66     55.07
 -15  -7  -6    531.32     40.38
 -15  -7  -5   1372.17     52.75
 -15  -7  -4   2421.15     57.28
 -15  -7  -3    562.48     66.60
 -15  -7  -2    544.17     37.82
 -15  -7  -1    703.65     45.39
 -15  -7   0    422.46     38.33
 -15  -6 -10    329.76     39.06
 -15  -6  -9     76.65     31.97
 -15  -6  -8   1275.95     57.57
 -15  -6  -7     27.23     37.84
 -15  -6  -6   1129.79     61.77
 -15  -6  -5    273.91     35.59
 -15  -6  -4    667.53     60.61
 -15  -6  -3   1390.77     45.89
 -15  -6  -2    434.17     40.62
 -15  -6  -1    649.13     52.93
 -15  -6   0    374.80     48.41
 -15  -5 -12   1583.24     44.52
 -15  -5 -11   1844.78     55.65
 -15  -5 -10    486.26     36.30
 -15  -5  -9    608.78     31.27
 -15  -5  -8    260.38     39.92
 -15  -5  -7    805.17     36.48
 -15  -5  -6   3149.03     64.75
 -15  -5  -5   1184.13     50.28
 -15  -5  -4    711.03     29.20
 -15  -5  -3     92.45     24.26
 -15  -5  -2    576.85     39.11
 -15  -5  -1    313.40     30.14
 -15  -5   0    814.27     48.16
 -15  -4 -13    646.67     90.53
 -15  -4 -12    998.98     37.37
 -15  -4 -11    934.12     35.70
 -15  -4 -10     82.85     29.41
 -15  -4  -9   2184.11     65.61
 -15  -4  -8     40.77     27.14
 -15  -4  -7    470.10     33.75
 -15  -4  -6    130.06     29.24
 -15  -4  -5    620.64     30.69
 -15  -4  -4    284.38     39.95
 -15  -4  -3   3153.73     99.30
 -15  -4  -2   1431.95     99.06
 -15  -4  -1   3166.39    155.39
 -15  -4   0   1219.32     69.54
 -15  -3 -14      9.97     40.59
 -15  -3 -13   2210.97     81.16
 -15  -3 -12    673.49     32.81
 -15  -3 -11    118.15     35.14
 -15  -3 -10    749.38     36.45
 -15  -3  -9    614.94     29.08
 -15  -3  -8    394.75     27.42
 -15  -3  -7   1048.55     49.48
 -15  -3  -6     48.83     23.98
 -15  -3  -5    385.23     26.48
 -15  -3  -4    150.19     16.79
 -15  -3  -3     33.53     13.45
 -15  -3  -2   2472.37    182.70
 -15  -3  -1    205.42     25.67
 -15  -3   0   2927.03    122.67
 -15  -2 -14    167.20     39.59
 -15  -2 -13    231.73     48.88
 -15  -2 -12    441.26     82.10
 -15  -2 -11    128.11     36.34
 -15  -2 -10   1367.51     42.49
 -15  -2  -9    737.64     35.39
 -15  -2  -8     94.55     32.39
 -15  -2  -7    716.80     29.19
 -15  -2  -6   1396.33     31.55
 -15  -2  -5     77.51     16.19
 -15  -2  -4   1024.93     86.24
 -15  -2  -3   1921.33     94.31
 -15  -2  -2  12652.66     68.65
 -15  -2  -1   1496.27     75.42
 -15  -2   0   1491.65     70.18
 -15  -1 -15    600.72     37.62
 -15  -1 -14    479.45     38.89
 -15  -1 -13   1082.21     35.24
 -15  -1 -12   1949.47     64.80
 -15  -1 -11   1242.51     46.72
 -15  -1 -10    118.93     34.97
 -15  -1  -9   1888.71    110.38
 -15  -1  -8   1852.64     78.51
 -15  -1  -7   1885.93     54.28
 -15  -1  -6   4753.77    105.12
 -15  -1  -5   2990.31     91.77
 -15  -1  -4   3637.96    148.44
 -15  -1  -3   3409.00     98.43
 -15  -1  -2    238.40     21.44
 -15  -1  -1    966.89     73.93
 -15  -1   0    189.67     55.08
 -15   0   1   1805.57     81.21
 -15   0   2    123.33     24.23
 -15   0   3    713.72     23.28
 -15   0   4     35.34     17.05
 -15   0   5    627.65     25.15
 -15   0   6    476.28     19.15
 -15   1   1   4016.32    154.32
 -15   2   1    308.53     19.47
 -15   2  12    150.92     43.41
 -15   2  13   1745.76     61.49
 -15   3  11   2746.27     71.19
 -15   3  12    443.60     56.32
 -15   3  14    666.50     61.53
 -15   3  15    151.07     59.27
 -15   3  17    534.24     67.00
 -15   4  10    118.86     32.10
 -15   4  11   1421.08     71.16
 -15   4  12     10.21     60.87
 -15   4  13   1263.90     73.79
 -15   4  14     77.13     64.82
 -15   4  15    685.96     70.31
 -15   4  17    121.12     69.06
 -15   5   9    135.78     76.56
 -15   5  10    408.97     43.43
 -15   5  11   1097.88     46.11
 -15   5  12     93.76     51.45
 -15   5  13     88.60     42.42
 -15   5  14    136.23     70.12
 -15   5  15    174.56     73.21
 -15   6   9    495.04     54.70
 -15   6  10     45.72    127.55
 -15   6  11    175.60     46.04
 -15   6  12   1824.02     74.54
 -15   6  13    647.85     50.76
 -15   6  14    948.42     54.25
 -15   6  15   1396.96     57.71
 -15   7   8    487.54     51.11
 -15   7   9    142.10     49.72
 -15   7  10     24.03     49.55
 -15   7  11     72.06     65.08
 -15   7  12    398.81     67.88
 -15   7  13    242.07     53.25
 -15   8   8    210.96     54.73
 -15   8   9    125.42     53.12
 -15   8  10   1115.26    126.13
 -14  -9  -5    158.71     33.49
 -14  -9  -4   1107.69     37.50
 -14  -9  -3    244.44     29.54
 -14  -9  -2    314.66     36.14
 -14  -9  -1   1306.08     60.46
 -14  -9   0    302.74     45.56
 -14  -8  -8    703.14     41.36
 -14  -8  -7    660.51     31.47
 -14  -8  -6    620.38     29.88
 -14  -8  -5   1650.63     57.86
 -14  -8  -4   2101.04     86.28
 -14  -8  -3   6427.97    119.61
 -14  -8  -2   2510.74     80.30
 -14  -8  -1    422.03     33.14
 -14  -8   0    821.08     38.20
 -14  -7 -11    740.43     32.21
 -14  -7 -10    177.24     30.83
 -14  -7  -9   1451.19     64.72
 -14  -7  -8     66.95     26.23
 -14  -7  -7      0.00     26.39
 -14  -7  -6   2145.00     69.67
 -14  -7  -5    651.07     46.11
 -14  -7  -4    500.97     23.57
 -14  -7  -3   1874.56     54.48
 -14  -7  -2   1569.48     61.67
 -14  -7  -1    137.56     43.37
 -14  -7   0    136.99     21.42
 -14  -6 -12   1030.92     57.45
 -14  -6 -11    529.41     32.29
 -14  -6 -10    648.28     28.03
 -14  -6  -9    236.67     31.70
 -14  -6  -8    925.93     29.04
 -14  -6  -7   1542.15     28.11
 -14  -6  -6   1248.63     43.14
 -14  -6  -5    374.15     22.28
 -14  -6  -4   1239.38     24.85
 -14  -6  -3    287.95     20.90
 -14  -6  -2   3235.04     45.34
 -14  -6  -1   1976.20     62.99
 -14  -6   0    253.82     31.23
 -14  -5 -14    152.72     36.61
 -14  -5 -13    306.07     30.89
 -14  -5 -12   3453.84     62.18
 -14  -5 -11   1259.05     44.15
 -14  -5 -10   3127.14     54.07
 -14  -5  -9    694.50     32.10
 -14  -5  -8   2230.94     67.88
 -14  -5  -7    625.66     26.84
 -14  -5  -6   2791.64     48.58
 -14  -5  -5    425.67     19.14
 -14  -5  -4   1748.08     53.62
 -14  -5  -3   2707.18     57.40
 -14  -5  -2   1223.87     44.42
 -14  -5  -1   1958.07     68.11
 -14  -5   0     68.79     16.33
 -14  -4 -15    516.74     30.78
 -14  -4 -14   1536.62     55.35
 -14  -4 -13    376.15     28.16
 -14  -4 -12    491.95     29.08
 -14  -4 -11   1680.48     51.29
 -14  -4 -10    587.64     27.03
 -14  -4  -9    802.62     31.69
 -14  -4  -8    603.91     24.62
 -14  -4  -7   2293.15     37.83
 -14  -4  -6    872.19     39.87
 -14  -4  -5   7989.30    121.08
 -14  -4  -4   4803.64     94.88
 -14  -4  -3    334.90     19.19
 -14  -4  -2   1364.47     50.29
 -14  -4  -1   1994.00     91.19
 -14  -4   0   3076.33    137.94
 -14  -3 -15   1094.51     43.08
 -14  -3 -14    328.80     44.94
 -14  -3 -13    304.79     36.77
 -14  -3 -12    101.91     34.16
 -14  -3 -11   1686.63     49.39
 -14  -3 -10   3459.01     80.88
 -14  -3  -9   2230.04     54.54
 -14  -3  -8   7415.37    144.93
 -14  -3  -7    737.80     36.66
 -14  -3  -6   9232.36    103.51
 -14  -3  -5   2359.15     27.66
 -14  -3  -4   7055.00    144.26
 -14  -3  -3   1247.81     69.27
 -14  -3  -2   1129.92     62.39
 -14  -3  -1    422.39     33.61
 -14  -3   0    778.64     60.75
 -14  -2 -16    720.64     57.45
 -14  -2 -15    423.55     46.96
 -14  -2 -14   1284.83     54.50
 -14  -2 -13   1125.85     45.19
 -14  -2 -12    527.11     36.90
 -14  -2 -11    446.96     34.62
 -14  -2 -10   1988.76     57.88
 -14  -2  -9    258.73     25.44
 -14  -2  -8   2089.10     62.86
 -14  -2  -7    611.97     22.17
 -14  -2  -6     96.36     15.26
 -14  -2  -5   4333.37    115.81
 -14  -2  -4   4879.58    161.08
 -14  -2  -3   2685.50     79.52
 -14  -2  -2    282.94     24.18
 -14  -2  -1    329.02     20.93
 -14  -2   0  10259.54    334.01
 -14  -1 -16    727.36     39.46
 -14  -1 -15    512.68     37.24
 -14  -1 -14    286.32     38.13
 -14  -1 -13   1343.03     45.82
 -14  -1 -12   6077.20     86.74
 -14  -1 -11   1105.65     53.75
 -14  -1 -10   1842.47     89.55
 -14  -1  -9   1369.69     32.10
 -14  -1  -8   2572.88     51.08
 -14  -1  -7    867.09     46.27
 -14  -1  -6   2240.13     64.57
 -14  -1  -5   1878.71     64.75
 -14  -1  -4    740.61     19.54
 -14  -1  -3  10754.89    198.50
 -14  -1  -2    151.55     27.12
 -14  -1  -1   1592.03     99.86
 -14  -1   0    186.01     47.32
 -14   0   1   8782.37    543.20
 -14   0   2   2110.48     43.76
 -14   0   3   2259.83     64.99
 -14   0   4    581.09     30.38
 -14   0   5     18.99     14.55
 -14   0   6    127.76     18.13
 -14   0  10     70.57     15.38
 -14   0  12     82.18     35.14
 -14   0  13      2.78     22.98
 -14   0  14      0.00     29.66
 -14   0  15     36.80     32.99
 -14   0  16    707.95     57.87
 -14   0  17    838.24     85.61
 -14   0  18    318.17     91.75
 -14   0  19    988.65     81.33
 -14   0  20   1180.61     82.36
 -14   0  21   2804.82    208.33
 -14   1   1   4482.91     50.33
 -14   1   2   7615.03    242.20
 -14   1  11    298.71     23.75
 -14   1  12   1666.63     51.43
 -14   1  13    529.05     20.12
 -14   1  14    287.19     41.25
 -14   1  15    709.35     61.00
 -14   1  16   1314.26    105.65
 -14   1  17   3041.18    260.27
 -14   1  18    595.10     46.19
 -14   1  19    126.67     49.36
 -14   1  20     78.84     48.61
 -14   1  21     41.17     50.87
 -14   2  10    632.73     41.14
 -14   2  11   2080.76    106.54
 -14   2  12      0.00     23.55
 -14   2  13     92.11     21.55
 -14   2  14   3417.43     59.76
 -14   2  15   2128.06     77.15
 -14   2  16    342.72     30.28
 -14   2  17    690.44     62.84
 -14   2  18   1444.11    181.42
 -14   2  19    278.38     80.04
 -14   2  20   2595.96    143.83
 -14   3   9   2633.84     98.15
 -14   3  10   4592.86    138.54
 -14   3  11    732.12     25.17
 -14   3  12   1900.84     40.89
 -14   3  13    837.58     53.99
 -14   3  14    853.61     52.04
 -14   3  15    925.96     62.62
 -14   3  16    633.89     34.25
 -14   3  17    649.54     46.72
 -14   3  18    360.61     37.75
 -14   3  19   1621.94     54.93
 -14   3  20   1764.68    205.80
 -14   4   8    459.43     61.64
 -14   4   9   1646.84     92.29
 -14   4  10   1323.46    123.51
 -14   4  11   2204.41     39.13
 -14   4  12   2349.50     36.49
 -14   4  13    715.53     36.08
 -14   4  14   1079.29     35.27
 -14   4  15   2996.51     75.73
 -14   4  16    753.87     37.59
 -14   4  17    639.31     38.76
 -14   4  18    119.42     44.73
 -14   4  19    346.67     40.34
 -14   5   7   2130.63     41.78
 -14   5   8   1169.44     44.21
 -14   5   9    225.07     29.63
 -14   5  10   3326.09     39.32
 -14   5  11   1117.73     33.65
 -14   5  12   1853.02     38.15
 -14   5  13    384.49     33.74
 -14   5  14    383.48     53.19
 -14   5  15    335.37     36.64
 -14   5  16    104.25     37.18
 -14   5  17    239.48     39.83
 -14   5  18    139.82     49.67
 -14   6   7    743.49     30.80
 -14   6   8   1358.02     51.35
 -14   6   9    774.31     50.88
 -14   6  10    137.26     84.06
 -14   6  11   2004.22     42.01
 -14   6  12    973.76     38.52
 -14   6  13    261.07     36.45
 -14   6  14    274.33     75.66
 -14   6  15    243.49     85.43
 -14   6  16    206.15     40.32
 -14   6  17    534.73     43.31
 -14   7   7   1389.00     38.72
 -14   7   8     97.16     49.70
 -14   7   9    392.37     43.52
 -14   7  10    444.87     67.19
 -14   7  11   3778.22    112.75
 -14   7  12    491.07     44.58
 -14   7  13   1514.29     45.49
 -14   7  14    746.37     43.14
 -14   7  15    418.65     42.57
 -14   8   7   1061.12     72.71
 -14   8   8   1394.70     44.17
 -14   8   9    288.96     39.96
 -14   8  10     72.34     39.83
 -14   8  11    593.07     43.06
 -14   8  12    480.56     73.76
 -14   9   7      0.00     57.97
 -14   9   8    252.45     98.53
 -14   9   9    576.12     61.55
 -13 -10  -3    638.94     37.14
 -13 -10  -2    641.68     33.02
 -13 -10  -1    738.50     47.24
 -13 -10   0    318.58     78.31
 -13  -9  -8    873.84     41.54
 -13  -9  -7    274.90     30.05
 -13  -9  -6     81.10     29.01
 -13  -9  -5    520.99     29.26
 -13  -9  -4   2313.95     62.36
 -13  -9  -3   1848.51     74.92
 -13  -9  -2    842.28     31.46
 -13  -9  -1   1185.96     58.93
 -13  -9   0    562.69     64.30
 -13  -8 -10    377.31     32.23
 -13  -8  -9   1815.33     47.81
 -13  -8  -8   3015.87     77.28
 -13  -8  -7    379.24     28.27
 -13  -8  -6    527.17     28.87
 -13  -8  -5   5351.74    151.55
 -13  -8  -4   2238.78     59.61
 -13  -8  -3    257.88     31.97
 -13  -8  -2    379.44     30.08
 -13  -8  -1   1210.44     47.43
 -13  -8   0    723.67     44.26
 -13  -7 -13    723.12     37.37
 -13  -7 -12    768.44     31.73
 -13  -7 -11    173.62     32.11
 -13  -7 -10    164.55     31.05
 -13  -7  -9    243.42     39.55
 -13  -7  -8    853.76     50.64
 -13  -7  -7   1067.10     32.20
 -13  -7  -6    452.32     29.28
 -13  -7  -5    363.00     33.21
 -13  -7  -4   3272.71     80.71
 -13  -7  -3    107.81     22.86
 -13  -7  -2   3258.98    126.55
 -13  -7  -1    487.20     30.53
 -13  -7   0    811.82     26.91
 -13  -6 -14    610.40     40.04
 -13  -6 -13   1457.32     56.45
 -13  -6 -12   6042.21    151.33
 -13  -6 -11   1087.22     31.28
 -13  -6 -10    661.20     34.85
 -13  -6  -9     90.78     28.80
 -13  -6  -8   2890.31     76.76
 -13  -6  -7    731.09     35.31
 -13  -6  -6     77.80     24.20
 -13  -6  -5    169.71     25.85
 -13  -6  -4      8.38     21.62
 -13  -6  -3   2651.33     36.85
 -13  -6  -2     60.96     17.93
 -13  -6  -1    363.56     29.11
 -13  -6   0   1995.53     49.43
 -13  -5 -15    169.76     32.53
 -13  -5 -14   1173.26     50.59
 -13  -5 -13   2349.75     75.20
 -13  -5 -12   1082.26     48.48
 -13  -5 -11   2419.82     74.76
 -13  -5 -10   1737.27     34.94
 -13  -5  -9   2071.37     46.40
 -13  -5  -8    288.25     26.52
 -13  -5  -7   1461.58     49.48
 -13  -5  -6   1590.79     33.66
 -13  -5  -5   1224.30     31.06
 -13  -5  -4    664.30     32.31
 -13  -5  -3    424.69     17.23
 -13  -5  -2    554.94     28.18
 -13  -5  -1   7044.57    103.44
 -13  -5   0   2955.84    105.88
 -13  -4 -16    352.63     40.25
 -13  -4 -15   2090.59     78.65
 -13  -4 -14   1375.08     44.29
 -13  -4 -13    568.54     30.74
 -13  -4 -12    528.56     27.15
 -13  -4 -11    486.12     39.75
 -13  -4 -10    557.95     25.53
 -13  -4  -9   1488.27     46.39
 -13  -4  -8    251.11     21.21
 -13  -4  -7   3939.18     62.64
 -13  -4  -6   3138.92     58.57
 -13  -4  -5   4578.43     53.59
 -13  -4  -4    225.59     21.00
 -13  -4  -3    244.16     18.04
 -13  -4  -2   3212.73     71.18
 -13  -4  -1   2595.12     49.69
 -13  -4   0    242.15     33.45
 -13  -3 -17    929.50     46.47
 -13  -3 -16    558.03     44.85
 -13  -3 -15    620.38     38.25
 -13  -3 -14    115.13     36.25
 -13  -3 -13    355.03     56.46
 -13  -3 -12     19.34     32.02
 -13  -3 -11    357.25     31.11
 -13  -3 -10     66.63     32.43
 -13  -3  -9    968.34     22.82
 -13  -3  -8   1025.88     21.53
 -13  -3  -7   3697.36     63.06
 -13  -3  -6   1714.36     33.57
 -13  -3  -5    827.30     17.17
 -13  -3  -4    125.05     16.95
 -13  -3  -3  18802.94    589.90
 -13  -3  -2   4003.29     82.54
 -13  -3  -1    302.82     29.84
 -13  -3   0   4101.10    128.73
 -13  -2 -17   1047.89     41.61
 -13  -2 -16    141.80     38.26
 -13  -2 -15   3662.62     61.76
 -13  -2 -14   1320.65     59.27
 -13  -2 -13   1674.64     53.07
 -13  -2 -12    533.38     32.04
 -13  -2 -11   1574.62     37.35
 -13  -2 -10   2413.10     44.97
 -13  -2  -9   3573.53     80.32
 -13  -2  -8   1730.50     27.07
 -13  -2  -7    186.35     16.68
 -13  -2  -6   5954.48     65.88
 -13  -2  -5   7731.22     42.60
 -13  -2  -4   4218.51     99.87
 -13  -2  -3   4292.98    108.49
 -13  -2  -2   1283.72     43.02
 -13  -2  -1   2436.22     50.54
 -13  -2   0   1687.06     47.63
 -13  -1 -18    266.40     40.99
 -13  -1 -17    142.82     39.38
 -13  -1 -16   2233.20     77.05
 -13  -1 -15   1766.73     62.92
 -13  -1 -14    547.88     39.92
 -13  -1 -13    592.70     39.71
 -13  -1 -12   1019.14     47.44
 -13  -1 -11   1750.64     53.00
 -13  -1 -10   2637.79     64.53
 -13  -1  -9   1574.79     32.17
 -13  -1  -8   2133.11     37.22
 -13  -1  -7   2881.38     33.63
 -13  -1  -6   2386.92     63.21
 -13  -1  -5   1745.07     30.71
 -13  -1  -4    900.42     47.04
 -13  -1  -3   1279.60     73.02
 -13  -1  -2   9870.14    107.13
 -13  -1  -1   7939.38    221.49
 -13  -1   0    754.61     49.82
 -13   0   1   5316.41    206.23
 -13   0   2  10622.48    374.30
 -13   0   3    614.85     32.92
 -13   0   4   7157.12     52.23
 -13   0   5   1922.51     60.14
 -13   0   7   1704.68     39.04
 -13   0   8   1755.09     26.83
 -13   0   9     34.98     11.80
 -13   0  10     26.94     16.82
 -13   0  11    363.44     71.06
 -13   0  12    866.28     63.30
 -13   0  13      0.00     16.37
 -13   0  14    667.48     57.89
 -13   0  15     31.58     20.09
 -13   0  16    566.24     42.75
 -13   0  17    294.60     29.40
 -13   0  18   2244.62     70.37
 -13   0  19    686.24     64.44
 -13   0  20   2427.77     64.66
 -13   0  21    829.47     41.43
 -13   0  22     64.23     40.02
 -13   1   1   1726.78     49.13
 -13   1   3   4857.12     34.37
 -13   1  10   3492.85     85.90
 -13   1  11  10781.40     77.24
 -13   1  12   5371.45     64.82
 -13   1  13   5013.54     52.66
 -13   1  14     35.78     16.90
 -13   1  15    479.04     29.08
 -13   1  16    275.16     32.12
 -13   1  17    313.63     38.45
 -13   1  18   1479.18     77.12
 -13   1  19   1501.19     35.59
 -13   1  20    750.83     44.61
 -13   1  21    523.39     40.52
 -13   1  22    310.60     43.61
 -13   2   1   1770.57     33.57
 -13   2   9   4226.56     62.30
 -13   2  10    600.35     27.73
 -13   2  11   8892.79    174.74
 -13   2  12   6168.12    107.92
 -13   2  13   1075.01     36.70
 -13   2  14    172.56     27.07
 -13   2  15    371.04     29.70
 -13   2  16   2642.30    146.16
 -13   2  17   1129.52     60.90
 -13   2  18   4169.09    242.48
 -13   2  19    441.71     29.35
 -13   2  20   1865.98     93.89
 -13   2  21    271.17     36.30
 -13   3   8   2107.93     99.99
 -13   3   9   1768.17     39.37
 -13   3  10    493.02     22.29
 -13   3  11   3361.36     34.21
 -13   3  12   2683.82     42.80
 -13   3  13    122.80     27.44
 -13   3  14   1474.04     70.04
 -13   3  15    541.29     54.97
 -13   3  16    325.28     45.33
 -13   3  17    880.71     38.84
 -13   3  18    323.39     38.19
 -13   3  19   2150.69     58.54
 -13   3  20   1249.95     54.52
 -13   3  21    244.82     44.00
 -13   4   7   3840.32    105.92
 -13   4   8   2263.34     28.98
 -13   4   9   5383.20     38.91
 -13   4  10   3290.89     36.10
 -13   4  11   3913.08     39.65
 -13   4  12   1665.79     46.54
 -13   4  13   2694.51    106.18
 -13   4  14   1606.25     38.36
 -13   4  15    460.96     75.52
 -13   4  16   1175.10     46.36
 -13   4  17   2723.34     59.57
 -13   4  18   1732.05    175.43
 -13   4  19    258.09     50.76
 -13   4  20    849.91     45.56
 -13   5   1   3689.78     43.72
 -13   5   6   9341.52     48.20
 -13   5   7    711.96     27.21
 -13   5   8    689.69     72.50
 -13   5   9   2521.94     36.45
 -13   5  10    165.92     29.78
 -13   5  11   2529.33     39.73
 -13   5  12     84.84     32.77
 -13   5  13   2314.32     42.17
 -13   5  14    348.87     55.27
 -13   5  15   3047.14     48.05
 -13   5  16     42.95     71.80
 -13   5  17    487.64     53.66
 -13   5  18    205.05     41.69
 -13   5  19   1377.25    114.01
 -13   6   1    131.78     15.58
 -13   6   6    461.20     30.84
 -13   6   7    647.55     32.02
 -13   6   8    713.40     56.61
 -13   6   9      0.00     50.05
 -13   6  10    445.90     75.97
 -13   6  11      9.32     38.53
 -13   6  12    166.41     35.94
 -13   6  13      0.00     44.94
 -13   6  14   1147.73     42.41
 -13   6  15    378.35     40.75
 -13   6  16   1701.88     77.94
 -13   6  17     57.38     67.50
 -13   6  18    751.01     65.07
 -13   7   1   3036.58     69.48
 -13   7   5    517.66     35.69
 -13   7   6   1933.80     49.35
 -13   7   7   3844.31     70.49
 -13   7   8   1664.49     56.51
 -13   7   9    617.27     49.78
 -13   7  10   1837.95     45.52
 -13   7  11   3441.42     65.58
 -13   7  12   1076.78     42.93
 -13   7  13   3305.99     52.48
 -13   7  14    314.04     55.09
 -13   7  15   1664.85     89.16
 -13   7  16    976.07     47.22
 -13   7  17    716.17     47.25
 -13   8   1    570.00     61.10
 -13   8   5     67.48     47.04
 -13   8   6   4656.11     54.18
 -13   8   7    490.15     40.12
 -13   8   8   1746.60     45.28
 -13   8   9    396.69     40.75
 -13   8  10    122.68     41.08
 -13   8  11    148.07     41.27
 -13   8  12    898.28     45.58
 -13   8  13    302.22     43.86
 -13   8  14     29.75     43.63
 -13   9   1    183.25     65.12
 -13   9   5   1191.12     48.41
 -13   9   6    480.10     64.53
 -13   9   7    170.83     42.45
 -13   9   8    157.58     42.99
 -13   9   9    776.89     45.74
 -13   9  10     62.54     44.19
 -13   9  11   2691.44     54.91
 -13   9  12    355.61     46.10
 -13  10   1    757.38     79.97
 -13  10   5   1637.68     78.80
 -13  10   6    631.19     48.29
 -13  10   7    722.51     48.16
 -12 -10  -6     39.31     32.83
 -12 -10  -5    889.42     34.69
 -12 -10  -4    228.29     31.70
 -12 -10  -3    523.51     30.47
 -12 -10  -2    345.84     31.22
 -12 -10  -1    846.43     35.34
 -12 -10   0    250.07     35.63
 -12  -9 -10    448.65     34.77
 -12  -9  -9     52.98     32.89
 -12  -9  -8    163.68     34.68
 -12  -9  -7    485.19     32.25
 -12  -9  -6   1648.52     57.20
 -12  -9  -5   8112.69    203.44
 -12  -9  -4   2720.03     73.47
 -12  -9  -3   7481.31    149.21
 -12  -9  -2   3376.09     62.77
 -12  -9  -1     77.13     28.95
 -12  -9   0    838.42     63.69
 -12  -8 -12   1566.84     40.87
 -12  -8 -11   1490.24     84.67
 -12  -8 -10    329.00     33.85
 -12  -8  -9   1312.62     44.28
 -12  -8  -8     46.69     28.69
 -12  -8  -7   1856.67     37.60
 -12  -8  -6   4092.23     91.67
 -12  -8  -5    244.85     26.64
 -12  -8  -4   1651.03     49.41
 -12  -8  -3   1503.13     42.42
 -12  -8  -2   2238.15     47.09
 -12  -8  -1    230.41     33.99
 -12  -8   0   3160.92     80.67
 -12  -7 -14    749.22     39.45
 -12  -7 -13     66.16     37.66
 -12  -7 -12    510.99     32.76
 -12  -7 -11    413.43     31.19
 -12  -7 -10    167.44     32.03
 -12  -7  -9   2351.91     45.18
 -12  -7  -8   3132.98     73.42
 -12  -7  -7   1397.52     32.19
 -12  -7  -6   2118.20     49.02
 -12  -7  -5    811.75     28.63
 -12  -7  -4    397.47     29.18
 -12  -7  -3   1626.23     67.24
 -12  -7  -2   1763.12     32.19
 -12  -7  -1    736.02     41.05
 -12  -7   0    680.31     25.02
 -12  -6 -16    930.26     38.90
 -12  -6 -15    526.86     32.69
 -12  -6 -14   2565.29     65.38
 -12  -6 -13   2960.43     69.41
 -12  -6 -12   1397.10     33.36
 -12  -6 -11   3238.40     46.61
 -12  -6 -10   3470.74     87.19
 -12  -6  -9    482.00     30.17
 -12  -6  -8   4032.09     84.59
 -12  -6  -7    692.07     36.99
 -12  -6  -6   4090.02     80.39
 -12  -6  -5    956.88     28.09
 -12  -6  -4   5400.19     79.08
 -12  -6  -3   2017.21     32.92
 -12  -6  -2    563.88     19.67
 -12  -6  -1   2289.47     67.54
 -12  -6   0   1886.83     46.09
 -12  -5 -17     97.96     44.83
 -12  -5 -16    990.06     47.22
 -12  -5 -15   2119.94     53.51
 -12  -5 -14    114.54     31.35
 -12  -5 -13   2641.35     64.69
 -12  -5 -12   2744.89     78.78
 -12  -5 -11    449.12     26.97
 -12  -5 -10    575.10     31.11
 -12  -5  -9   1059.54     37.34
 -12  -5  -8    798.40     26.21
 -12  -5  -7   7629.98    116.59
 -12  -5  -6    212.02     23.38
 -12  -5  -5   4582.64     99.13
 -12  -5  -4   1333.03     30.02
 -12  -5  -3   1496.05     41.61
 -12  -5  -2   7535.15    106.17
 -12  -5  -1   2448.14     70.94
 -12  -5   0   6354.47     99.47
 -12  -4 -18    511.47     46.43
 -12  -4 -17    105.15     44.42
 -12  -4 -16   1450.94     76.91
 -12  -4 -15    401.14     47.28
 -12  -4 -14    151.07     36.61
 -12  -4 -13    716.81     39.69
 -12  -4 -12   1331.52     40.30
 -12  -4 -11   4188.51     94.36
 -12  -4 -10   1182.95     25.82
 -12  -4  -9   4600.43     72.79
 -12  -4  -8   9369.11    171.36
 -12  -4  -7   2533.77     37.74
 -12  -4  -6   3103.29     46.90
 -12  -4  -5   3578.18     45.60
 -12  -4  -4   1664.13     28.02
 -12  -4  -3     87.19     14.55
 -12  -4  -2   1324.28     15.40
 -12  -4  -1   1447.21     30.95
 -12  -4   0   2631.06     65.78
 -12  -3 -18    341.60     41.98
 -12  -3 -17    761.43     41.43
 -12  -3 -16    948.63     40.49
 -12  -3 -15   3694.12     74.69
 -12  -3 -14     44.66     37.95
 -12  -3 -13   1954.47     48.13
 -12  -3 -12    283.88     36.30
 -12  -3 -11   2853.20     44.07
 -12  -3 -10   3572.44     88.03
 -12  -3  -9   1769.06     35.48
 -12  -3  -8    354.30     21.52
 -12  -3  -7    270.73     21.42
 -12  -3  -6    814.40     19.32
 -12  -3  -5  32630.29    387.51
 -12  -3  -4   5735.67     82.28
 -12  -3  -3   4586.21     54.39
 -12  -3  -2   4110.97     53.21
 -12  -3  -1   1602.83     30.29
 -12  -3   0  12588.81    247.19
 -12  -2 -19    582.77     42.88
 -12  -2 -18   1014.20     45.36
 -12  -2 -17   1227.81     52.21
 -12  -2 -16    277.63     38.08
 -12  -2 -15    530.05     37.09
 -12  -2 -14    772.70     42.77
 -12  -2 -13    649.67     37.67
 -12  -2 -12   4016.63     58.96
 -12  -2 -11   1758.85     70.16
 -12  -2 -10   1492.63     54.77
 -12  -2  -9   2520.30     62.10
 -12  -2  -8   4897.70    106.99
 -12  -2  -7   3788.54    106.06
 -12  -2  -6  13254.99    260.72
 -12  -2  -5   5401.13     77.79
 -12  -2  -4   5124.70     75.81
 -12  -2  -3  10277.13    159.24
 -12  -2  -2   1379.68     36.91
 -12  -2  -1    140.30     13.93
 -12  -2   0   7268.83    178.95
 -12  -1 -19    979.81     57.04
 -12  -1 -18   1238.29     47.62
 -12  -1 -17   1724.78     61.40
 -12  -1 -16    195.31     37.72
 -12  -1 -15    815.87     49.99
 -12  -1 -14    737.56     35.58
 -12  -1 -13   3782.88     94.92
 -12  -1 -12   3574.58     81.25
 -12  -1 -11   3704.03     38.90
 -12  -1 -10   2665.89     66.14
 -12  -1  -9   1143.85     39.60
 -12  -1  -8   6104.84    114.48
 -12  -1  -7    228.75     23.58
 -12  -1  -6    725.94     19.38
 -12  -1  -5   1048.46     28.29
 -12  -1  -4    340.82     18.16
 -12  -1  -3    602.64     52.75
 -12  -1  -2   1547.49     28.65
 -12  -1  -1   2829.56     74.88
 -12  -1   0   7922.64    145.80
 -12   0   1   3332.07     55.06
 -12   0   2  62542.90    574.84
 -12   0   3    143.49     20.10
 -12   0   4  48990.60    464.04
 -12   0   5    149.65     19.25
 -12   0   6   7715.17     45.11
 -12   0   7   6550.58     44.29
 -12   0   8   3002.67     49.78
 -12   0   9   9675.20    381.50
 -12   0  10      9.24      7.34
 -12   0  11   2802.68    129.51
 -12   0  12    863.64     81.14
 -12   0  13     35.97     18.51
 -12   0  14     79.44     20.46
 -12   0  15    627.19     36.13
 -12   0  16    469.43     32.38
 -12   0  17      0.00     23.79
 -12   0  18    157.57     33.98
 -12   0  19    683.98     34.31
 -12   0  20     43.89     26.01
 -12   0  21    442.53     34.16
 -12   0  22    409.22     33.69
 -12   0  23    113.31     44.58
 -12   1   1   5225.82     93.24
 -12   1   2    205.55     15.23
 -12   1   3   4941.84     31.51
 -12   1   8    681.59    116.19
 -12   1   9   2203.27     26.06
 -12   1  10   3131.45     46.52
 -12   1  11   2122.24     54.97
 -12   1  12    451.97     44.36
 -12   1  13   1763.69     67.85
 -12   1  14   6258.12    202.13
 -12   1  15   2331.71     77.42
 -12   1  16   2346.08     82.01
 -12   1  17    143.94     21.47
 -12   1  18   3231.90     96.75
 -12   1  19    228.75     27.25
 -12   1  20   6181.27     78.94
 -12   1  21   1177.30     57.49
 -12   1  22   1093.15     36.19
 -12   1  23      0.00     33.96
 -12   2   1   3077.06     72.79
 -12   2   7   2088.34    115.79
 -12   2   8   4997.28     51.80
 -12   2   9   3845.67     27.27
 -12   2  10   1754.14     33.93
 -12   2  11   3655.61     63.97
 -12   2  12    159.37     24.73
 -12   2  13   1559.63     64.64
 -12   2  14    879.43     34.68
 -12   2  15   4750.42    193.21
 -12   2  16   4253.05    110.34
 -12   2  17   2943.16     82.11
 -12   2  18   1661.38     83.89
 -12   2  19    181.22     32.22
 -12   2  20    736.72     65.68
 -12   2  21    189.17     36.40
 -12   2  22    465.78     34.53
 -12   3   1   2735.51     25.18
 -12   3   6   2533.96     35.47
 -12   3   7   2335.52     22.93
 -12   3   8   1718.39     23.84
 -12   3   9   2987.18     29.45
 -12   3  10   3409.98     38.04
 -12   3  11   8359.28    175.66
 -12   3  12   1555.32     31.63
 -12   3  13   2137.66     66.33
 -12   3  14    400.13     49.90
 -12   3  15    920.88     35.87
 -12   3  16    353.66     50.03
 -12   3  17    714.38     29.01
 -12   3  18   2118.99     85.37
 -12   3  19    688.16     42.97
 -12   3  20    478.24     32.40
 -12   3  21    370.97     33.86
 -12   3  22     42.29     37.98
 -12   4   1   2041.60    157.60
 -12   4   5    816.88     20.88
 -12   4   6      0.00     30.82
 -12   4   7   1070.05     42.90
 -12   4   8    980.94     26.93
 -12   4   9   9396.49    159.80
 -12   4  10   3234.31     41.80
 -12   4  11  10191.53    139.41
 -12   4  12   1408.17     35.08
 -12   4  13   2412.05     68.82
 -12   4  14    275.64     34.43
 -12   4  15   2781.69     98.29
 -12   4  16    501.45     38.03
 -12   4  17    159.08     48.45
 -12   4  18   3752.98     64.24
 -12   4  19   1558.89     47.54
 -12   4  20   1242.51     77.65
 -12   4  21    618.35     58.70
 -12   5   1   2015.55     89.20
 -12   5   5   2004.16     31.37
 -12   5   6    603.97     45.88
 -12   5   7   1687.83    160.44
 -12   5   8   2837.97     36.79
 -12   5   9   1442.38     34.06
 -12   5  10    834.50     59.12
 -12   5  11    128.67     32.37
 -12   5  12    259.46     34.06
 -12   5  13    410.88     36.49
 -12   5  14   1101.30     45.52
 -12   5  15   3442.30     91.02
 -12   5  16    623.80     41.06
 -12   5  17    317.73     41.88
 -12   5  18     44.89     51.66
 -12   5  19    612.56     54.29
 -12   5  20   2355.70    108.39
 -12   6   2  15124.80     90.98
 -12   6   4  16927.40    323.35
 -12   6   5   4924.74     61.62
 -12   6   6    763.52     33.36
 -12   6   7   5903.14     86.00
 -12   6   8    113.75     32.63
 -12   6   9   1583.43     52.57
 -12   6  10    871.82     52.64
 -12   6  11    242.26     48.39
 -12   6  12   1053.65     40.23
 -12   6  13    194.20     42.19
 -12   6  14    522.12     52.95
 -12   6  15     32.28     49.44
 -12   6  16    927.32    121.42
 -12   6  17    195.49     43.11
 -12   6  18    280.29     44.80
 -12   6  19     25.33     58.44
 -12   7   1    619.46     88.43
 -12   7   2     61.45     26.36
 -12   7   4    677.20     92.75
 -12   7   5    647.64     36.86
 -12   7   6    226.85     39.75
 -12   7   7   1862.13     47.57
 -12   7   8    287.76     41.44
 -12   7   9    966.38     40.68
 -12   7  10    224.46     56.33
 -12   7  11   5003.89     83.06
 -12   7  12   1594.86     51.93
 -12   7  13   1700.42     47.32
 -12   7  14     60.78     43.55
 -12   7  15    417.55     60.53
 -12   7  16   1696.79     75.36
 -12   7  17      0.00     55.61
 -12   7  18   1587.89     54.06
 -12   8   1    400.86     73.33
 -12   8   2   1281.53    141.15
 -12   8   4    745.59     41.42
 -12   8   5     30.54     39.21
 -12   8   6    286.83     39.88
 -12   8   7    467.87     47.34
 -12   8   8    961.53     58.18
 -12   8   9    317.38     41.95
 -12   8  10   1165.07     53.32
 -12   8  11   2759.95     51.58
 -12   8  12   1404.25     71.08
 -12   8  13   1248.69     51.20
 -12   8  14    646.08     46.76
 -12   8  15    710.73     53.61
 -12   8  16    413.12     48.36
 -12   9   1    289.45     68.07
 -12   9   2    186.18     67.17
 -12   9   4      0.00     43.12
 -12   9   5   1859.26     48.63
 -12   9   6    614.75     60.68
 -12   9   7   1400.45     63.74
 -12   9   8    562.80     57.86
 -12   9   9   2233.90     73.70
 -12   9  10    152.44     44.50
 -12   9  11   1554.28     50.58
 -12   9  12    162.18     45.90
 -12   9  13    333.32     47.02
 -12   9  14    122.98     66.92
 -12  10   1     94.82     75.89
 -12  10   2    825.18     81.01
 -12  10   4    455.34     77.27
 -12  10   5    398.61     63.69
 -12  10   6    370.83     83.28
 -12  10   7    169.26     46.57
 -12  10   8    834.58     49.50
 -12  10   9    557.35     48.52
 -12  10  10    795.41    105.88
 -11 -11  -4    684.86     33.63
 -11 -11  -3    815.48     35.95
 -11 -11  -2     61.37     41.19
 -11 -11  -1    911.64     58.62
 -11 -11   0   1681.00     81.37
 -11 -10  -9    492.74     37.38
 -11 -10  -8   1032.77     38.50
 -11 -10  -7    133.58     31.97
 -11 -10  -6     19.24     31.41
 -11 -10  -5    136.47     33.51
 -11 -10  -4    321.82     30.82
 -11 -10  -3   1238.67     43.74
 -11 -10  -2    360.97     29.99
 -11 -10  -1    934.21     41.62
 -11 -10   0     70.14     35.63
 -11  -9 -12    923.15     65.97
 -11  -9 -11   1141.97     34.47
 -11  -9 -10    194.26     32.04
 -11  -9  -9   3911.39    100.69
 -11  -9  -8   3611.15     94.80
 -11  -9  -7    141.79     39.34
 -11  -9  -6   1013.08     37.06
 -11  -9  -5   4491.92     93.85
 -11  -9  -4    660.98     37.08
 -11  -9  -3    582.05     34.02
 -11  -9  -2   1107.44     39.68
 -11  -9  -1    647.23     33.69
 -11  -9   0    517.18     34.43
 -11  -8 -14   1173.24     45.17
 -11  -8 -13    237.32     36.79
 -11  -8 -12    721.58     48.45
 -11  -8 -11    356.83     49.99
 -11  -8 -10    295.07     31.78
 -11  -8  -9    953.32     35.05
 -11  -8  -8   1429.53     46.07
 -11  -8  -7    100.55     30.09
 -11  -8  -6    536.30     28.19
 -11  -8  -5   4635.86     99.25
 -11  -8  -4   3902.72     61.17
 -11  -8  -3   2777.96     56.53
 -11  -8  -2    828.18     25.81
 -11  -8  -1    121.93     24.90
 -11  -8   0   3575.51    123.62
 -11  -7 -16    999.59     35.39
 -11  -7 -15    723.34     43.15
 -11  -7 -14    585.32     36.88
 -11  -7 -13   2057.80     68.84
 -11  -7 -12   7108.27     69.70
 -11  -7 -11   1426.39     31.75
 -11  -7 -10    663.07     41.88
 -11  -7  -9    270.75     30.73
 -11  -7  -8   1453.84     28.99
 -11  -7  -7   1048.32     29.71
 -11  -7  -6   2133.23     42.76
 -11  -7  -5   2042.26     41.15
 -11  -7  -4   1183.37     48.63
 -11  -7  -3   1755.86     47.75
 -11  -7  -2    814.10     24.24
 -11  -7  -1   1659.89     26.96
 -11  -7   0    455.27     24.09
 -11  -6 -17   1009.08     37.22
 -11  -6 -16    850.67     33.93
 -11  -6 -15     69.62     31.83
 -11  -6 -14   1175.55     32.71
 -11  -6 -13   3476.64     60.52
 -11  -6 -12   2203.13     69.24
 -11  -6 -11    515.81     35.71
 -11  -6 -10    440.44     27.32
 -11  -6  -9   3908.24     80.97
 -11  -6  -8    506.14     26.88
 -11  -6  -7    353.67     26.44
 -11  -6  -6    583.18     23.67
 -11  -6  -5   3850.20     83.00
 -11  -6  -4    681.37     21.87
 -11  -6  -3   3362.45     62.50
 -11  -6  -2   8361.68    140.07
 -11  -6  -1   6535.69    121.11
 -11  -6   0   2389.12     46.64
 -11  -5 -18   1171.41     49.22
 -11  -5 -17   1419.01     80.42
 -11  -5 -16   1656.13     91.08
 -11  -5 -15   4595.64    160.74
 -11  -5 -14   1095.22     44.37
 -11  -5 -13   1795.05     51.88
 -11  -5 -12   1937.84     33.25
 -11  -5 -11   1059.28     27.99
 -11  -5 -10    909.66     28.64
 -11  -5  -9   2627.23     37.73
 -11  -5  -8   3705.28     48.39
 -11  -5  -7    137.36     23.66
 -11  -5  -6   1324.30     24.14
 -11  -5  -5    173.25     19.61
 -11  -5  -4   2760.35     37.68
 -11  -5  -3   1704.95     26.37
 -11  -5  -2   3618.34     55.14
 -11  -5  -1   4373.73     59.61
 -11  -5   0    626.88     22.65
 -11  -4 -19    777.11     52.25
 -11  -4 -18   1173.30     61.63
 -11  -4 -17    104.62     44.23
 -11  -4 -16   2561.98     61.75
 -11  -4 -15    922.19     39.25
 -11  -4 -14   1605.68     57.05
 -11  -4 -13   1680.42     43.56
 -11  -4 -12   1893.97     51.26
 -11  -4 -11    826.34     33.21
 -11  -4 -10   1001.33     30.67
 -11  -4  -9   1234.84     24.41
 -11  -4  -8   2508.88     39.22
 -11  -4  -7   7878.77    100.99
 -11  -4  -6   1815.38     27.21
 -11  -4  -5   4055.93     55.58
 -11  -4  -4   6326.83     70.72
 -11  -4  -3   6923.44     85.97
 -11  -4  -2   9296.75     75.22
 -11  -4  -1     21.66     17.18
 -11  -4   0    988.90     21.64
 -11  -3 -19    112.98     42.33
 -11  -3 -18    396.69     41.45
 -11  -3 -17   2942.36     64.67
 -11  -3 -16   2227.82     59.21
 -11  -3 -15    741.56     41.41
 -11  -3 -14    533.66     45.00
 -11  -3 -13    197.33     37.85
 -11  -3 -12    995.98     45.50
 -11  -3 -11   2844.67     65.34
 -11  -3 -10   1019.10     37.27
 -11  -3  -9   7491.97    155.26
 -11  -3  -8   1812.97     28.17
 -11  -3  -7   4756.29     74.66
 -11  -3  -6  27473.54    251.85
 -11  -3  -5   6756.55     93.13
 -11  -3  -4   5633.68     55.02
 -11  -3  -3   4916.99     53.70
 -11  -3  -2    886.97     12.12
 -11  -3  -1    300.67     25.76
 -11  -3   0   4889.30     69.54
 -11  -2 -20   2236.21     73.92
 -11  -2 -19    377.98     44.50
 -11  -2 -18   1006.44     49.94
 -11  -2 -17    315.97     39.14
 -11  -2 -16   3079.12     52.99
 -11  -2 -15   1203.98     45.72
 -11  -2 -14   1199.12     36.37
 -11  -2 -13   1715.07     35.75
 -11  -2 -12   1891.40     35.95
 -11  -2 -11    465.65     32.26
 -11  -2 -10    934.10     28.86
 -11  -2  -9   5249.21    122.50
 -11  -2  -8   1854.22     36.86
 -11  -2  -7   9256.94    165.07
 -11  -2  -6   1541.57     45.28
 -11  -2  -5   5270.03     68.74
 -11  -2  -4   1151.07     18.78
 -11  -2  -3   8164.43     93.60
 -11  -2  -2   3736.33     80.78
 -11  -2  -1   1062.92     27.86
 -11  -2   0   9361.51    132.17
 -11  -1 -20    146.37     42.88
 -11  -1 -19   3517.32     73.76
 -11  -1 -18    526.65     40.88
 -11  -1 -17   1065.48     40.57
 -11  -1 -16   2233.49     55.09
 -11  -1 -15   4131.22     79.11
 -11  -1 -14   4671.39     92.40
 -11  -1 -13   8492.70    130.03
 -11  -1 -12   2260.53     73.32
 -11  -1 -11   1175.89     49.47
 -11  -1 -10    781.18     31.72
 -11  -1  -9   4851.62     76.23
 -11  -1  -8   1531.49     41.72
 -11  -1  -7   9035.95    185.86
 -11  -1  -6   1135.41     29.13
 -11  -1  -5    384.62     19.14
 -11  -1  -4     81.13     16.86
 -11  -1  -3   5252.04     81.72
 -11  -1  -2   4973.35     52.99
 -11  -1  -1   6005.92     95.15
 -11  -1   0    355.80     18.11
 -11   0   1     25.40     30.69
 -11   0   2  36703.70   1127.75
 -11   0   3  24842.52    860.90
 -11   0   4   2495.01     34.37
 -11   0   5  19272.30    163.12
 -11   0   6     14.08     19.10
 -11   0   8   6667.86    331.70
 -11   0   9  20112.51    421.44
 -11   0  10     12.29     13.08
 -11   0  11  13396.78    218.27
 -11   0  12   2751.49     76.00
 -11   0  13   4019.61     70.53
 -11   0  14    269.21     20.01
 -11   0  15     24.23     25.33
 -11   0  16     53.59     20.99
 -11   0  17    460.09     27.14
 -11   0  18  11488.47    303.92
 -11   0  19    460.39     30.15
 -11   0  20   2136.59     73.46
 -11   0  21     69.68     28.48
 -11   0  22    138.97     29.77
 -11   0  23    693.84     35.73
 -11   0  24    399.07     34.35
 -11   1   1  20280.19    152.15
 -11   1   2    211.84     13.92
 -11   1   3   1839.46     14.62
 -11   1   7  13336.50     70.34
 -11   1   8   4310.33     56.40
 -11   1   9    732.47     23.43
 -11   1  10   1209.68     28.58
 -11   1  11   1685.47     69.44
 -11   1  12   2628.86     54.18
 -11   1  13    315.04     21.07
 -11   1  14    318.75     32.70
 -11   1  15   4167.81    104.79
 -11   1  16   2058.23     78.14
 -11   1  17   4902.09    115.34
 -11   1  18   6147.96    130.76
 -11   1  19   1133.26    125.39
 -11   1  20   3193.68    185.86
 -11   1  21    795.39     38.01
 -11   1  22    480.94     43.54
 -11   1  23    274.29     33.89
 -11   1  24    135.12     35.13
 -11   2   1   1476.05     24.68
 -11   2   6   2247.22     33.46
 -11   2   7   1612.23     19.83
 -11   2   8    668.04     23.58
 -11   2   9   6539.68    106.19
 -11   2  10   6052.46     48.97
 -11   2  11  21721.20    113.87
 -11   2  12   5079.09    105.80
 -11   2  13   3497.61    102.75
 -11   2  14   1199.87     29.17
 -11   2  15    296.50     21.25
 -11   2  16    214.81     22.82
 -11   2  17    879.68     43.64
 -11   2  18   1362.72     42.82
 -11   2  19   2311.88     80.49
 -11   2  20     86.83     27.39
 -11   2  21   1496.89     62.67
 -11   2  22    105.71     30.00
 -11   2  23    103.05     35.33
 -11   3   1    842.91     48.66
 -11   3   5    813.43     16.57
 -11   3   6   9144.77     45.41
 -11   3   7   1578.69     51.19
 -11   3   8   1786.57     25.58
 -11   3   9   8562.10     98.10
 -11   3  10   1748.86     36.58
 -11   3  11  14539.66    272.35
 -11   3  12   5962.62    206.85
 -11   3  13   1258.44     34.38
 -11   3  14   1199.23     48.74
 -11   3  15    249.50     18.93
 -11   3  16   3226.04    121.94
 -11   3  17   5339.28    137.10
 -11   3  18    524.74     27.76
 -11   3  19   2542.33     92.34
 -11   3  20    621.86     38.67
 -11   3  21    315.65     37.54
 -11   3  22    489.06     41.34
 -11   3  23    314.23     36.91
 -11   4   1   1959.97    133.16
 -11   4   4   5088.46     52.02
 -11   4   5   6219.55     55.16
 -11   4   6    817.80     26.32
 -11   4   7     63.93     27.54
 -11   4   8    593.60     37.37
 -11   4   9   6905.40    114.85
 -11   4  10    299.49     28.82
 -11   4  11   8652.20    338.22
 -11   4  12   1960.50     37.39
 -11   4  13    240.25     33.75
 -11   4  14   6387.90    162.73
 -11   4  15    818.08     53.05
 -11   4  16   1239.40     60.91
 -11   4  17     66.99     39.68
 -11   4  18   1460.20     58.88
 -11   4  19    283.34     32.96
 -11   4  20   2740.75     48.34
 -11   4  21    647.75     36.76
 -11   4  22     52.67     36.09
 -11   5   1   4419.65    321.97
 -11   5   2  21636.00     89.41
 -11   5   4  17167.16    248.63
 -11   5   5   1180.18     42.40
 -11   5   6    701.27     29.19
 -11   5   7   7088.19     93.73
 -11   5   8   5173.52     65.62
 -11   5   9   4941.25     48.97
 -11   5  10   2350.93     52.39
 -11   5  11   3050.02     55.06
 -11   5  12   1949.52     49.02
 -11   5  13   2087.34     48.34
 -11   5  14   6447.33    274.94
 -11   5  15      5.16     38.48
 -11   5  16    324.75     47.82
 -11   5  17   2780.62     82.56
 -11   5  18    223.04     43.38
 -11   5  19   2105.41     51.39
 -11   5  20   1161.89     55.82
 -11   5  21    500.09     49.41
 -11   6   1   6503.39    355.72
 -11   6   2   5399.23     67.31
 -11   6   3  16359.83    236.51
 -11   6   4   1830.81     64.35
 -11   6   5   4948.71     54.00
 -11   6   6   4068.82     58.83
 -11   6   7   4193.50     44.89
 -11   6   8    939.01     36.33
 -11   6   9   4433.92    131.50
 -11   6  10   5132.18     95.74
 -11   6  11   4419.77    110.57
 -11   6  12   5006.39    114.72
 -11   6  13   1921.57    109.42
 -11   6  14     72.90     44.91
 -11   6  15   1828.73     72.29
 -11   6  16    397.52     53.09
 -11   6  17    506.51     61.67
 -11   6  18   4730.57    269.35
 -11   6  19     70.07     46.95
 -11   6  20    569.99     49.22
 -11   7   1   1557.58     77.36
 -11   7   2    541.19     47.55
 -11   7   3   1037.61    115.24
 -11   7   4   3332.19     61.48
 -11   7   5   1231.65     47.40
 -11   7   6   1238.59     42.07
 -11   7   7   1681.21     51.57
 -11   7   8   1078.32     40.93
 -11   7   9    258.28     40.70
 -11   7  10    154.03     46.26
 -11   7  11    431.91     50.07
 -11   7  12    745.73     43.32
 -11   7  13    232.01     42.30
 -11   7  14    544.49     44.67
 -11   7  16   1630.04     50.60
 -11   7  17     73.70     46.21
 -11   7  18    922.50     55.10
 -11   7  19    413.77     49.74
 -11   8   1    755.91     82.64
 -11   8   2    670.34     64.08
 -11   8   3    269.17     27.77
 -11   8   4     65.99     57.04
 -11   8   5   4275.47     61.98
 -11   8   6   2967.67     49.24
 -11   8   7   2824.20     65.23
 -11   8   8    264.99     51.49
 -11   8   9    586.94     48.10
 -11   8  10   2757.08     54.11
 -11   8  11   5429.73    121.69
 -11   8  12    257.31     44.68
 -11   8  13   2531.61     97.20
 -11   8  14    924.77     48.74
 -11   8  15   1810.58     95.87
 -11   8  16   1446.91     52.91
 -11   8  17    643.61     62.14
 -11   9   1   3208.71     58.47
 -11   9   2   2122.20    139.80
 -11   9   3    922.04     77.14
 -11   9   4   1243.43     64.19
 -11   9   5     61.22     59.09
 -11   9   6   3114.10     53.55
 -11   9   7   2320.04     51.04
 -11   9   8   1026.36     47.30
 -11   9   9   2040.42    110.31
 -11   9  10    709.14     47.49
 -11   9  11   1145.90     65.24
 -11   9  12   1730.27     61.59
 -11   9  13    217.89     48.07
 -11   9  14     64.71     47.96
 -11   9  15    118.54     64.55
 -11  10   1   1293.68     59.71
 -11  10   2   1482.60     68.50
 -11  10   3    165.71     65.22
 -11  10   4   1901.56     70.32
 -11  10   5   1585.82     64.51
 -11  10   6     63.59     46.63
 -11  10   7      0.00     46.81
 -11  10   8    413.10     48.24
 -11  10   9    190.21     48.28
 -11  10  10    372.39     48.86
 -11  10  11   1391.73     53.41
 -11  10  12    622.00     51.54
 -11  11   1    958.58     95.13
 -11  11   2   2823.40    105.05
 -11  11   3    248.35     72.76
 -11  11   4   5206.03    297.54
 -11  11   5    811.29    157.71
 -11  11   6    623.14     52.06
 -11  11   7   1232.50     70.28
 -11  11   8   1319.32     55.15
 -10 -11  -7     48.38     33.60
 -10 -11  -6    501.62     37.20
 -10 -11  -5    141.26     35.79
 -10 -11  -4    761.06     46.10
 -10 -11  -3    251.32     34.05
 -10 -11  -2    737.75     36.67
 -10 -11  -1   1054.69     46.10
 -10 -11   0    649.09     40.63
 -10 -10 -11    758.38     47.64
 -10 -10 -10    409.62     35.95
 -10 -10  -9    280.83     34.86
 -10 -10  -8    513.87     33.38
 -10 -10  -7     76.50     32.05
 -10 -10  -6    603.50     32.58
 -10 -10  -5   5699.53    135.73
 -10 -10  -4   4004.13     93.08
 -10 -10  -3  12330.61    164.71
 -10 -10  -2   2746.50     57.33
 -10 -10  -1     35.61     32.91
 -10 -10   0   1261.69     39.13
 -10  -9 -13    584.37     91.80
 -10  -9 -12    651.69     35.86
 -10  -9 -11   1591.44     45.79
 -10  -9 -10    128.23     38.24
 -10  -9  -9    353.59     31.63
 -10  -9  -8    275.58     31.75
 -10  -9  -7   2953.71     83.25
 -10  -9  -6   1096.92     35.81
 -10  -9  -5   1914.21     35.42
 -10  -9  -4   1180.64     31.95
 -10  -9  -3   1625.85     63.81
 -10  -9  -2   1547.10     33.94
 -10  -9  -1      0.00     30.04
 -10  -9   0   1029.12     35.12
 -10  -8 -15    156.09     44.54
 -10  -8 -14    428.89     35.51
 -10  -8 -13    177.06     36.14
 -10  -8 -12    539.42     39.44
 -10  -8 -11    582.97     35.47
 -10  -8 -10   1031.77     31.61
 -10  -8  -9   1301.78     32.64
 -10  -8  -8   2894.15     57.53
 -10  -8  -7    612.55     31.47
 -10  -8  -6   6947.86    139.79
 -10  -8  -5   5900.97    119.95
 -10  -8  -4    404.33     27.61
 -10  -8  -3   2131.65     51.10
 -10  -8  -2   5287.06     61.77
 -10  -8  -1    376.77     26.87
 -10  -8   0    540.84     48.93
 -10  -7 -17    279.02     34.81
 -10  -7 -16    716.48     36.87
 -10  -7 -15      8.27     37.72
 -10  -7 -14   2912.36     93.14
 -10  -7 -13    141.17     35.19
 -10  -7 -12   8919.99    137.52
 -10  -7 -11    493.76     33.55
 -10  -7 -10   4319.10     84.64
 -10  -7  -9    897.26     31.82
 -10  -7  -8   1263.20     39.80
 -10  -7  -7   7846.78    100.06
 -10  -7  -6   5650.94    101.56
 -10  -7  -5   1003.93     35.96
 -10  -7  -4   3794.63     60.17
 -10  -7  -3   3209.26     54.66
 -10  -7  -2    819.51     30.35
 -10  -7  -1   2299.92     49.02
 -10  -7   0  11379.50    217.69
 -10  -6 -18   1392.53     43.66
 -10  -6 -17    340.58     34.06
 -10  -6 -16   1579.20     51.45
 -10  -6 -15   2027.56     57.73
 -10  -6 -14    216.85     31.08
 -10  -6 -13    726.09     37.56
 -10  -6 -12    647.93     29.70
 -10  -6 -11   1175.82     49.01
 -10  -6 -10   1739.69     44.30
 -10  -6  -9   7479.75     78.21
 -10  -6  -8     26.16     24.52
 -10  -6  -7   8020.32    116.91
 -10  -6  -6   3141.51     61.52
 -10  -6  -5   1261.28     33.17
 -10  -6  -4    538.26     23.51
 -10  -6  -3   4187.74     72.79
 -10  -6  -2   2295.96     29.60
 -10  -6  -1    294.59     20.15
 -10  -6   0  11487.81    131.41
 -10  -5 -19   1234.55     61.88
 -10  -5 -18    355.18     57.90
 -10  -5 -17    552.94     45.87
 -10  -5 -16   3157.95     70.04
 -10  -5 -15   1618.93     41.65
 -10  -5 -14   3291.23     77.55
 -10  -5 -13   2077.77     33.08
 -10  -5 -12   3301.93     79.22
 -10  -5 -11   2552.03     36.51
 -10  -5 -10   3891.17     66.39
 -10  -5  -9   7155.14    101.36
 -10  -5  -8   9015.31     89.21
 -10  -5  -7   1000.09     34.24
 -10  -5  -6   6228.79    100.39
 -10  -5  -5   5842.23     57.16
 -10  -5  -4   1352.59     21.51
 -10  -5  -3    442.66     17.97
 -10  -5  -2   1802.67     19.70
 -10  -5  -1     39.10     25.82
 -10  -5   0   1456.51     27.17
 -10  -4 -20    498.81     54.94
 -10  -4 -19   1755.49     73.28
 -10  -4 -18   1151.35     53.92
 -10  -4 -17    302.03     44.89
 -10  -4 -16   1204.37     40.87
 -10  -4 -15   1695.54     44.10
 -10  -4 -14   2754.58     51.15
 -10  -4 -13   4296.87     54.14
 -10  -4 -12   2040.20     36.59
 -10  -4 -11   1616.33     41.84
 -10  -4 -10   3762.34     83.39
 -10  -4  -9   3184.22     43.11
 -10  -4  -8   2193.54     24.47
 -10  -4  -7   3508.75     51.90
 -10  -4  -6   1413.01     26.50
 -10  -4  -5  23992.27    204.52
 -10  -4  -4   1647.08     18.84
 -10  -4  -3   6262.29     55.27
 -10  -4  -2  16265.59    108.06
 -10  -4  -1   3295.81     38.66
 -10  -4   0  14047.70    123.76
 -10  -3 -21     37.66     49.35
 -10  -3 -20    434.88     43.80
 -10  -3 -19    207.11     43.25
 -10  -3 -18    991.93     42.15
 -10  -3 -17   1314.86     41.45
 -10  -3 -16   1025.05     49.11
 -10  -3 -15     91.83     45.36
 -10  -3 -14    265.91     41.30
 -10  -3 -13   5420.73     91.73
 -10  -3 -12   3419.01     41.61
 -10  -3 -11    527.40     33.26
 -10  -3 -10    733.29     29.17
 -10  -3  -9     42.83     26.00
 -10  -3  -8   5053.64     89.14
 -10  -3  -7   8333.64     83.59
 -10  -3  -6   1047.66     22.76
 -10  -3  -5   1517.84     23.01
 -10  -3  -4   1501.51     17.23
 -10  -3  -3   8265.15     72.71
 -10  -3  -2   6319.37     73.81
 -10  -3  -1     45.22     11.32
 -10  -3   0  12551.85    135.37
 -10  -2 -21    274.28     58.86
 -10  -2 -20    223.09     50.82
 -10  -2 -19   1169.14     43.23
 -10  -2 -18   1342.88     45.50
 -10  -2 -17   5556.16     76.14
 -10  -2 -16   2145.98     55.97
 -10  -2 -15    416.49     44.09
 -10  -2 -14   2173.43     37.88
 -10  -2 -13   4830.16    122.17
 -10  -2 -12   2055.58     41.98
 -10  -2 -11   9505.65    137.49
 -10  -2 -10   2599.10     51.88
 -10  -2  -9   5415.63     78.57
 -10  -2  -8   2588.52     62.21
 -10  -2  -7   5370.08     73.57
 -10  -2  -6  10694.14    129.08
 -10  -2  -5  24568.58    243.16
 -10  -2  -4   5552.20     76.01
 -10  -2  -3    841.67     14.77
 -10  -2  -2   9545.61     79.25
 -10  -2  -1     45.77     12.40
 -10  -2   0   8995.18    131.73
 -10  -1 -21    340.68     49.50
 -10  -1 -20    210.29     47.09
 -10  -1 -19   3253.16     80.93
 -10  -1 -18   1035.80     45.79
 -10  -1 -17    944.68     39.72
 -10  -1 -16   1942.07     62.77
 -10  -1 -15    374.75     39.36
 -10  -1 -14   2796.52     61.55
 -10  -1 -13   9008.28    271.63
 -10  -1 -12  11858.16    334.57
 -10  -1 -11    194.93     33.09
 -10  -1 -10   6297.38     62.19
 -10  -1  -9   9971.13    203.44
 -10  -1  -8    603.70     25.34
 -10  -1  -7   9302.90    200.25
 -10  -1  -6  13923.27    139.21
 -10  -1  -5  22140.05    288.49
 -10  -1  -4  20280.77    257.06
 -10  -1  -3   9229.97    183.81
 -10  -1  -2  10059.01     79.41
 -10  -1  -1    757.08     16.70
 -10  -1   0   8612.39    127.99
 -10   0   1   3599.26     44.34
 -10   0   2   3735.30     39.11
 -10   0   3    853.52     19.24
 -10   0   4    536.61     24.97
 -10   0   5  10903.71    290.40
 -10   0   6  10620.69    637.01
 -10   0   7    244.46     28.96
 -10   0   8   3644.84     83.88
 -10   0   9   6745.04    119.72
 -10   0  10  17249.20    284.23
 -10   0  11    730.34     22.75
 -10   0  12     47.91     18.12
 -10   0  13     89.32     18.33
 -10   0  14  36533.17    455.51
 -10   0  15    235.23     24.14
 -10   0  16    917.04     34.05
 -10   0  17   4043.98     49.37
 -10   0  18    354.44     28.30
 -10   0  19   4022.93     93.25
 -10   0  20   8899.10    125.05
 -10   0  21    245.46     32.94
 -10   0  22     44.75     30.67
 -10   0  23   1109.64     41.79
 -10   0  24   1415.68     56.54
 -10   1   1  21057.40    241.33
 -10   1   3  27996.35    339.25
 -10   1   6  10593.42    355.80
 -10   1   7   4536.88     87.97
 -10   1   8  13775.35    177.92
 -10   1   9    656.48     44.22
 -10   1  10   9063.43    161.71
 -10   1  11   2968.58     78.32
 -10   1  12   1810.50     36.38
 -10   1  13    644.75     30.12
 -10   1  14   1975.86     69.26
 -10   1  15   1935.69     46.53
 -10   1  16    646.18     27.99
 -10   1  17   1609.12     46.18
 -10   1  18   1988.71     57.62
 -10   1  19     80.02     29.93
 -10   1  20   1122.22     42.52
 -10   1  21    768.32     43.89
 -10   1  22    220.78     31.21
 -10   1  23   1421.13     54.78
 -10   1  24   1817.44     85.44
 -10   2   1   3039.07     27.76
 -10   2   5    523.42     13.30
 -10   2   6    377.12     16.85
 -10   2   7   2477.16     27.14
 -10   2   8   4322.74     28.34
 -10   2   9   3418.78     35.00
 -10   2  10   7208.90    118.87
 -10   2  11   8932.95    154.19
 -10   2  12   4114.49     81.09
 -10   2  13    889.88     34.63
 -10   2  14   2615.07     65.89
 -10   2  15   2100.29     63.82
 -10   2  16   2255.70     88.45
 -10   2  17    315.00     32.67
 -10   2  18   1866.14     57.77
 -10   2  19   2522.09     38.14
 -10   2  20   1577.89     70.28
 -10   2  21   2147.81    101.34
 -10   2  22   1095.37     37.67
 -10   2  23   1320.23     89.76
 -10   2  24     82.91     33.70
 -10   3   1   2272.63     54.33
 -10   3   4   5179.51     71.08
 -10   3   5  10342.67     50.43
 -10   3   6   7511.47     34.22
 -10   3   7   4222.54     40.18
 -10   3   8    457.28     23.11
 -10   3   9   4248.70     68.44
 -10   3  10  20591.02    137.30
 -10   3  11   6753.70     68.33
 -10   3  12    365.81     31.02
 -10   3  13   2783.42     97.15
 -10   3  14   1114.09     42.81
 -10   3  15   7832.83    141.72
 -10   3  16   4141.78     81.67
 -10   3  17   6953.65    127.68
 -10   3  18    935.58     47.76
 -10   3  19    173.60     29.91
 -10   3  20    181.04     33.68
 -10   3  21   1308.08     37.93
 -10   3  22    209.81     40.56
 -10   3  23    142.23     38.66
 -10   3  24     86.39     38.34
 -10   4   1   1385.79     53.02
 -10   4   2  22984.60    224.93
 -10   4   3    352.92     31.30
 -10   4   4   2484.64     32.21
 -10   4   5   2906.88     29.80
 -10   4   6    147.13     23.53
 -10   4   7  12999.40     89.82
 -10   4   8   4520.40     38.08
 -10   4   9    387.25     38.41
 -10   4  10   1585.36     38.59
 -10   4  11   1275.80     36.71
 -10   4  12    988.68     43.42
 -10   4  13    584.43     35.06
 -10   4  14    557.16     37.97
 -10   4  15    693.38     40.23
 -10   4  16     19.20     60.77
 -10   4  17    505.00     28.67
 -10   4  18   2119.15     55.90
 -10   4  19   1042.28     55.43
 -10   4  20   1033.34     58.88
 -10   4  21    238.80     34.17
 -10   4  22    129.56     47.87
 -10   4  23    313.52     38.88
 -10   5   1  33274.40    293.68
 -10   5   3  17408.42    217.25
 -10   5   4   3368.24     84.92
 -10   5   5    627.65     31.52
 -10   5   6    561.73     51.47
 -10   5   7   5544.27     66.03
 -10   5   8   2809.23     55.64
 -10   5   9   5649.26    101.93
 -10   5  10   4811.73     69.13
 -10   5  11   6029.02    153.14
 -10   5  12    734.27     37.60
 -10   5  13   1138.33     43.90
 -10   5  14   1161.65     41.79
 -10   5  15    843.59     42.36
 -10   5  16    743.32     67.34
 -10   5  17   2077.59     58.01
 -10   5  18   5973.37    151.85
 -10   5  19   1659.00     63.99
 -10   5  20   1247.20     51.56
 -10   5  21    768.26     50.69
 -10   5  22    117.40     50.07
 -10   6   2   3847.86    188.57
 -10   6   3   1346.97     66.27
 -10   6   4   5660.16     82.31
 -10   6   5    291.86     46.72
 -10   6   6      2.25     54.04
 -10   6   7   4529.02    133.06
 -10   6   8   1109.87     62.72
 -10   6   9   1331.26     39.08
 -10   6  10   1891.22     42.12
 -10   6  11   2349.71     49.54
 -10   6  12   1067.14     45.51
 -10   6  13   1879.14     45.42
 -10   6  14   3745.64    127.01
 -10   6  15   2581.54     55.40
 -10   6  16   3090.53    136.53
 -10   6  17   1076.58     48.53
 -10   6  18   1001.07     49.23
 -10   6  19   3807.30    112.42
 -10   6  20   3143.71     99.32
 -10   6  21   1979.36     81.70
 -10   7   1    809.42     44.71
 -10   7   2   1969.33    115.08
 -10   7   3   8400.96    153.91
 -10   7   4  10276.04    363.80
 -10   7   5   6719.95     62.65
 -10   7   6    923.58     39.50
 -10   7   7   1236.14     40.79
 -10   7   8   3627.63    122.97
 -10   7   9    210.32     39.16
 -10   7  10    659.76     41.38
 -10   7  11    341.57     41.41
 -10   7  12    304.01     42.37
 -10   7  13    319.22     43.97
 -10   7  14    501.21     45.41
 -10   7  15    587.78     46.54
 -10   7  16    325.27     63.41
 -10   7  17    224.02     56.21
 -10   7  18    405.40     49.62
 -10   7  19    610.38     95.12
 -10   7  20    402.48     51.37
 -10   8   1   1324.06     68.72
 -10   8   2    491.00     46.20
 -10   8   3   1132.87     57.55
 -10   8   4   1276.02     43.51
 -10   8   5   1366.28     44.26
 -10   8   6    762.68     88.03
 -10   8   7   1867.03     60.79
 -10   8   8   2151.65     48.25
 -10   8   9   4041.38     83.71
 -10   8  10     58.28     43.10
 -10   8  11   7155.07     90.09
 -10   8  12    236.32     45.41
 -10   8  13   1126.21     57.74
 -10   8  14   1081.62     50.73
 -10   8  15   1343.06     51.92
 -10   8  16   1029.48     51.57
 -10   8  17    216.22     50.32
 -10   8  18    334.90     51.26
 -10   9   1    243.49     44.74
 -10   9   2    960.06     94.76
 -10   9   3    549.81     35.43
 -10   9   4     48.16     43.57
 -10   9   5   1393.17     99.82
 -10   9   6     89.98     43.94
 -10   9   7    617.37     66.35
 -10   9   8    159.23     55.05
 -10   9   9    587.09     47.14
 -10   9  10   4457.93    106.86
 -10   9  11   2024.14     53.21
 -10   9  12   1752.13     64.01
 -10   9  13    660.81     50.47
 -10   9  14   1580.41     81.12
 -10   9  15    234.44     50.91
 -10   9  16   1244.29     54.78
 -10  10   1    439.22     90.07
 -10  10   2    413.13     40.98
 -10  10   3   1858.75    114.62
 -10  10   4   1259.76     68.24
 -10  10   5    472.26    112.65
 -10  10   6    116.40     47.68
 -10  10   7   3442.71     82.15
 -10  10   8   1676.51     53.29
 -10  10   9    611.44     60.73
 -10  10  10    785.61     68.71
 -10  10  11     65.84     67.45
 -10  10  12    280.00     50.76
 -10  10  13    631.87     52.31
 -10  10  14    291.70     52.34
 -10  11   1   1312.78     98.56
 -10  11   2   1351.57     73.25
 -10  11   3    434.85     69.41
 -10  11   4    893.30    125.05
 -10  11   5    660.08     69.97
 -10  11   6    889.34     96.24
 -10  11   7   2176.47     56.83
 -10  11   8    293.02     51.63
 -10  11   9    555.69     53.12
 -10  11  10    134.07     51.66
  -9 -12  -4    408.03     35.39
  -9 -12  -3   1251.40     36.58
  -9 -12  -2     79.40     43.62
  -9 -12  -1    939.62     45.09
  -9 -12   0   1350.60     50.86
  -9 -11  -9    464.51     35.27
  -9 -11  -8     86.94     34.45
  -9 -11  -7    351.13     36.04
  -9 -11  -6    203.99     33.75
  -9 -11  -5    178.36     33.49
  -9 -11  -4    605.09     35.13
  -9 -11  -3   1948.06     59.74
  -9 -11  -2    104.48     36.09
  -9 -11  -1    457.28     43.55
  -9 -11   0    564.33     40.24
  -9 -10 -12    173.74     34.67
  -9 -10 -11   1249.16     38.41
  -9 -10 -10   1033.42     42.92
  -9 -10  -9   4992.26    100.81
  -9 -10  -8   1002.32     34.57
  -9 -10  -7    426.00     36.93
  -9 -10  -6   1840.72     54.37
  -9 -10  -5   3624.87     88.45
  -9 -10  -4    198.38     30.80
  -9 -10  -3   1144.46     33.94
  -9 -10  -2      0.00     29.76
  -9 -10  -1    963.94     51.01
  -9 -10   0   2185.27    106.60
  -9  -9 -15   1318.80     44.43
  -9  -9 -14   2065.89     61.72
  -9  -9 -13   1554.86     40.77
  -9  -9 -12    755.29     36.02
  -9  -9 -11    368.86     33.08
  -9  -9 -10    332.89     34.01
  -9  -9  -9   2253.18     66.87
  -9  -9  -8    498.85     31.20
  -9  -9  -7     58.11     29.88
  -9  -9  -6      0.00     30.74
  -9  -9  -5   1903.71     37.88
  -9  -9  -4    998.33     36.36
  -9  -9  -3   1438.65     33.85
  -9  -9  -2    505.11     28.30
  -9  -9  -1   1571.88     35.00
  -9  -9   0   1713.43     42.33
  -9  -8 -16    193.52     49.75
  -9  -8 -15    294.43     38.48
  -9  -8 -14   1607.54     40.40
  -9  -8 -13   2276.49     78.23
  -9  -8 -12   8295.98    110.39
  -9  -8 -11    497.08     33.40
  -9  -8 -10    512.90     32.36
  -9  -8  -9    897.15     32.65
  -9  -8  -8   2871.31     37.27
  -9  -8  -7   2809.54     55.61
  -9  -8  -6   1003.79     44.32
  -9  -8  -5    134.46     26.66
  -9  -8  -4   2333.46     49.78
  -9  -8  -3   1734.50     34.52
  -9  -8  -2    710.93     27.01
  -9  -8  -1   1990.03     34.34
  -9  -8   0    643.91     35.22
  -9  -7 -18    546.13     36.09
  -9  -7 -17    979.46     35.83
  -9  -7 -16   1047.33     35.03
  -9  -7 -15     24.20     36.81
  -9  -7 -14   3172.24     70.57
  -9  -7 -13   1930.29     36.04
  -9  -7 -12   1271.03     43.11
  -9  -7 -11    383.37     31.49
  -9  -7 -10   4701.88     48.17
  -9  -7  -9   2975.05     38.83
  -9  -7  -8    224.38     32.10
  -9  -7  -7   1186.47     33.44
  -9  -7  -6   5743.76     75.19
  -9  -7  -5    890.24     30.15
  -9  -7  -4  11195.74    155.91
  -9  -7  -3   1136.76     24.64
  -9  -7  -2   9351.81    121.09
  -9  -7  -1   3567.58     43.10
  -9  -7   0   6421.71    101.91
  -9  -6 -19   1190.32     51.32
  -9  -6 -18   1759.55     56.64
  -9  -6 -17   1705.71     66.25
  -9  -6 -16   5333.18     86.05
  -9  -6 -15    268.31     31.75
  -9  -6 -14   2698.08     48.38
  -9  -6 -13   2912.24     58.63
  -9  -6 -12   1160.62     30.17
  -9  -6 -11   1199.33     30.34
  -9  -6 -10    444.86     28.91
  -9  -6  -9    425.44     26.97
  -9  -6  -8   4967.34     72.17
  -9  -6  -7   2620.47     43.26
  -9  -6  -6   5817.50     69.22
  -9  -6  -5   3440.13     63.43
  -9  -6  -4   1098.64     22.53
  -9  -6  -3   1701.66     23.69
  -9  -6  -2   1780.81     28.66
  -9  -6  -1   8027.51    125.28
  -9  -6   0   3327.02     47.39
  -9  -5 -20   2440.79    113.99
  -9  -5 -19     94.29     47.42
  -9  -5 -18    146.48     50.63
  -9  -5 -17   1621.52     65.51
  -9  -5 -16   1302.28     58.39
  -9  -5 -15    835.86     52.80
  -9  -5 -14    917.54     41.29
  -9  -5 -13    467.16     36.11
  -9  -5 -12     75.33     34.12
  -9  -5 -11   2604.78     56.41
  -9  -5 -10    205.34     25.83
  -9  -5  -9    716.14     26.20
  -9  -5  -8   4095.91     58.99
  -9  -5  -7   4277.41     66.09
  -9  -5  -6   1565.70     23.73
  -9  -5  -5   9342.70     71.16
  -9  -5  -4   1861.43     28.55
  -9  -5  -3  32074.28    223.13
  -9  -5  -2    290.04     24.10
  -9  -5  -1     60.36     16.43
  -9  -5   0    639.79     25.70
  -9  -4 -21    930.80     46.35
  -9  -4 -20     77.11     43.24
  -9  -4 -19    532.92     53.51
  -9  -4 -18    998.06     46.82
  -9  -4 -17   1165.92     45.64
  -9  -4 -16   3706.09     74.02
  -9  -4 -15   3339.69     63.98
  -9  -4 -14   2958.43     44.66
  -9  -4 -13   1624.54     36.94
  -9  -4 -12   4100.92     50.20
  -9  -4 -11   3101.53     39.47
  -9  -4 -10   4297.26     52.72
  -9  -4  -9   8216.85    104.60
  -9  -4  -8   3307.24     39.90
  -9  -4  -7   9846.80     92.62
  -9  -4  -6  14152.83    145.14
  -9  -4  -5  17527.34    151.88
  -9  -4  -4   5709.17     39.14
  -9  -4  -3   2667.73     35.30
  -9  -4  -2   2060.92     31.44
  -9  -4  -1   1327.18     19.28
  -9  -4   0   8812.98     45.32
  -9  -3 -21    704.66     44.96
  -9  -3 -20    330.40     42.88
  -9  -3 -19    883.19     43.11
  -9  -3 -18   2005.39     48.51
  -9  -3 -17   2517.22     43.17
  -9  -3 -16   5587.55    111.27
  -9  -3 -15   1988.06     39.83
  -9  -3 -14     57.68     34.44
  -9  -3 -13   8971.83    145.41
  -9  -3 -12   2422.15     44.23
  -9  -3 -11   1888.68     43.73
  -9  -3 -10    906.93     28.93
  -9  -3  -9  13486.64    147.18
  -9  -3  -8   5684.04     72.07
  -9  -3  -7   8999.61     88.85
  -9  -3  -6   7762.17     63.05
  -9  -3  -5   1818.33     19.71
  -9  -3  -4   3985.87     24.65
  -9  -3  -3   1009.01     17.81
  -9  -3  -2   9827.48     59.12
  -9  -3  -1   2710.35     29.55
  -9  -3   0   3031.63     20.99
  -9  -2 -22    344.78     45.27
  -9  -2 -21    319.46     43.74
  -9  -2 -20   2576.51     58.59
  -9  -2 -19   2207.06     66.94
  -9  -2 -18    816.23     40.75
  -9  -2 -17   3474.46     91.60
  -9  -2 -16   2607.23     41.18
  -9  -2 -15    467.97     39.51
  -9  -2 -14   7945.06    102.99
  -9  -2 -13  10399.39    193.18
  -9  -2 -12   1920.29     45.53
  -9  -2 -11    307.80     33.27
  -9  -2 -10   1445.22     28.91
  -9  -2  -9   4561.47     64.49
  -9  -2  -8   1151.32     35.70
  -9  -2  -7  38514.20    341.56
  -9  -2  -6   6038.30     52.48
  -9  -2  -5   1531.20     22.85
  -9  -2  -4    128.48     15.19
  -9  -2  -3   3847.33     39.56
  -9  -2  -2     80.74      8.95
  -9  -2  -1   1037.83     11.86
  -9  -2   0  25878.50    290.83
  -9  -1 -22   3787.13     69.54
  -9  -1 -21   1165.26     45.96
  -9  -1 -20   1418.62     44.60
  -9  -1 -19    314.95     40.87
  -9  -1 -18   2211.22     43.00
  -9  -1 -17    155.16     41.78
  -9  -1 -16    819.75     37.60
  -9  -1 -15   2702.63     64.24
  -9  -1 -14   2250.69     63.27
  -9  -1 -13    203.62     31.64
  -9  -1 -12   2604.03     40.34
  -9  -1 -11   5670.76     79.07
  -9  -1 -10   9819.50    109.57
  -9  -1  -9   1269.47     66.83
  -9  -1  -8   3210.44     54.61
  -9  -1  -7   2551.90     33.01
  -9  -1  -6   3577.87     26.65
  -9  -1  -5   5826.80     77.58
  -9  -1  -4   1475.16     23.35
  -9  -1  -3  19764.78    296.20
  -9  -1  -2  35844.88    212.17
  -9  -1  -1   4553.31     27.37
  -9  -1   0  10037.95     44.69
  -9   0   1    200.46     19.77
  -9   0   2  18350.00    238.13
  -9   0   3   4554.68     61.69
  -9   0   4  29395.76    612.45
  -9   0   5   3536.11    102.79
  -9   0   6  31911.30    506.52
  -9   0   7  24885.03    291.29
  -9   0   8   2847.08     48.75
  -9   0   9    199.13     12.53
  -9   0  10   6482.77     89.04
  -9   0  11   2382.51     39.12
  -9   0  12  11937.92    293.82
  -9   0  13    124.66     18.20
  -9   0  14   1820.45     38.51
  -9   0  15  12461.79    142.58
  -9   0  16   4895.99     84.29
  -9   0  17  14245.90    137.89
  -9   0  18  15119.31    146.01
  -9   0  19   1266.56     33.09
  -9   0  20   1652.81     46.21
  -9   0  21    989.62     44.48
  -9   0  22   1793.02     44.27
  -9   0  23    253.07     33.41
  -9   0  24     38.34     36.93
  -9   0  25    307.48     35.76
  -9   1   1   9688.43     97.36
  -9   1   2  47671.60    376.24
  -9   1   3   7863.21     90.34
  -9   1   5  11308.93    305.45
  -9   1   6   3391.25     18.84
  -9   1   7  14547.76     75.41
  -9   1   8   7802.89    139.20
  -9   1   9   6231.63     66.99
  -9   1  10  17337.97    342.73
  -9   1  11    420.04     20.88
  -9   1  12  10600.43    219.51
  -9   1  13    644.34     22.22
  -9   1  14   1324.23     23.28
  -9   1  15    162.86     21.64
  -9   1  16    181.20     23.54
  -9   1  17   7103.06    130.71
  -9   1  18   1721.53     52.41
  -9   1  19   6767.57     88.22
  -9   1  20    473.56     30.10
  -9   1  21    406.70     31.20
  -9   1  22    212.35     35.74
  -9   1  23   1288.70     39.50
  -9   1  24    339.44     37.97
  -9   1  25   1921.44     77.53
  -9   2   1   6690.39    211.36
  -9   2   4   9593.87     67.68
  -9   2   5   9398.47    173.02
  -9   2   6   4783.30     25.21
  -9   2   7   7882.08     90.23
  -9   2   8   4767.85     30.56
  -9   2   9   5310.72     41.77
  -9   2  10   9106.50    131.73
  -9   2  11   2753.82     81.96
  -9   2  12    990.82     20.71
  -9   2  13    839.44     48.66
  -9   2  14    280.52     22.83
  -9   2  15   4776.36     75.10
  -9   2  16   1675.23     38.25
  -9   2  17  11687.38    182.70
  -9   2  18    516.37     42.90
  -9   2  19   3792.42     48.21
  -9   2  20   1260.76     32.37
  -9   2  21    997.45     46.33
  -9   2  22     78.68     32.13
  -9   2  23     90.75     33.35
  -9   2  24    913.83     40.41
  -9   2  25   2264.91     61.86
  -9   3   1   7938.03     37.01
  -9   3   2    346.54     17.16
  -9   3   3   1529.13     31.97
  -9   3   4   9110.60     45.48
  -9   3   5   2994.35     25.23
  -9   3   6   4989.36     52.48
  -9   3   7    694.83     23.08
  -9   3   8   3638.12     56.97
  -9   3   9  16022.93     96.70
  -9   3  10   4199.24     37.03
  -9   3  11  33225.43    411.93
  -9   3  12   2184.14     72.38
  -9   3  13   6259.91    199.83
  -9   3  14   9735.00    202.10
  -9   3  15    296.99     23.24
  -9   3  16   1474.24     50.62
  -9   3  17    308.26     30.88
  -9   3  18    297.15     38.00
  -9   3  19   3047.03     93.61
  -9   3  20    593.03     33.85
  -9   3  21   2771.55     66.24
  -9   3  22    364.07     44.22
  -9   3  23    537.52     35.16
  -9   3  24   2446.82     82.44
  -9   4   1    321.32     21.81
  -9   4   2   9037.48    213.25
  -9   4   3  16696.44     86.28
  -9   4   4   2449.11     28.49
  -9   4   5    959.39     25.72
  -9   4   6  10311.10    127.70
  -9   4   7   3262.05     33.70
  -9   4   8   4109.52     36.82
  -9   4   9   6432.96     43.57
  -9   4  10   4862.12     77.58
  -9   4  11  13713.81    161.00
  -9   4  12   2767.55     40.10
  -9   4  13     96.82     35.53
  -9   4  14   3255.50     51.66
  -9   4  15    696.89     35.67
  -9   4  16    195.35     25.54
  -9   4  17   4935.70     97.49
  -9   4  18   1687.63    105.52
  -9   4  19   2380.35     56.43
  -9   4  20   2662.45     63.79
  -9   4  21   1267.21     35.25
  -9   4  22    152.65     36.99
  -9   4  23   1171.67     50.70
  -9   4  24    574.58     41.03
  -9   5   1   7081.36     51.13
  -9   5   2   1329.83     23.88
  -9   5   3  18907.66    644.05
  -9   5   4    767.17     30.28
  -9   5   5   2254.32     44.00
  -9   5   6    650.26     30.50
  -9   5   7   3731.68    101.83
  -9   5   8   1867.66     54.90
  -9   5   9   9688.65     78.24
  -9   5  10  21375.29    205.25
  -9   5  11   1127.22     60.33
  -9   5  12   9608.02     69.12
  -9   5  13   1367.72     41.16
  -9   5  14   5129.81    117.96
  -9   5  15    336.56     41.37
  -9   5  16    442.16     44.27
  -9   5  17   4803.44     85.67
  -9   5  18    821.19     48.11
  -9   5  19   2447.14     47.20
  -9   5  20    862.52     34.37
  -9   5  21    462.86     34.34
  -9   5  22    549.92     35.65
  -9   5  23      0.00     35.68
  -9   6   1   2673.67    112.66
  -9   6   2  19795.30    105.20
  -9   6   3   1826.38     93.64
  -9   6   4  11688.89     73.87
  -9   6   5   1790.14     55.44
  -9   6   6   1836.59     38.27
  -9   6   7  12262.73    252.00
  -9   6   8   3473.30     58.09
  -9   6   9   3679.30     61.00
  -9   6  10   4311.70     48.50
  -9   6  11   2161.05     58.58
  -9   6  12   7996.53     94.17
  -9   6  13   4382.43     69.27
  -9   6  14   1524.67     59.19
  -9   6  15    628.88     45.05
  -9   6  16    412.85     45.27
  -9   6  17   2830.99     54.27
  -9   6  18   1469.49     78.50
  -9   6  19   2012.33     64.18
  -9   6  20    266.47     50.04
  -9   6  21    478.38     64.25
  -9   6  22    980.76    210.34
  -9   7   1   4323.16    127.31
  -9   7   2   6064.14    125.07
  -9   7   3   2541.97    135.74
  -9   7   4   5249.30     95.37
  -9   7   5   9725.58    118.45
  -9   7   6   3602.47     84.04
  -9   7   7    938.11     41.12
  -9   7   8   2377.04     45.27
  -9   7   9    279.37     40.21
  -9   7  10  10293.95     79.02
  -9   7  11    945.87     44.01
  -9   7  12   3817.60     86.05
  -9   7  13    401.14     45.92
  -9   7  14   2091.47     50.51
  -9   7  15   1200.52     49.28
  -9   7  16    467.42     47.96
  -9   7  17   1260.55     97.79
  -9   7  18   2490.54     71.22
  -9   7  19    165.99     55.39
  -9   7  20   1855.50     56.57
  -9   7  21    170.29     52.17
  -9   8   1     36.50     32.36
  -9   8   2    512.56     49.44
  -9   8   3    490.60     55.21
  -9   8   4   1647.87     59.94
  -9   8   5   1276.03     89.80
  -9   8   6     88.28     41.60
  -9   8   7     74.10     41.91
  -9   8   8   2542.15     60.27
  -9   8   9   1714.42     48.75
  -9   8  10   4327.92     56.43
  -9   8  11    869.79     47.50
  -9   8  12   1385.20     88.00
  -9   8  13    644.02     48.24
  -9   8  14   1046.10     49.97
  -9   8  15   2992.86    183.61
  -9   8  16   1078.69     56.79
  -9   8  17   1791.13     66.14
  -9   8  18     56.03     52.96
  -9   8  19    989.35     54.94
  -9   9   1   4552.52    194.91
  -9   9   2   1696.20     68.83
  -9   9   3   2890.38    106.74
  -9   9   4   1931.56     92.36
  -9   9   5   5094.79     66.00
  -9   9   6   2947.00     53.72
  -9   9   7   2645.12     52.27
  -9   9   8    940.99     48.44
  -9   9   9    495.56     47.66
  -9   9  10    131.31     46.84
  -9   9  11   3167.37     57.28
  -9   9  12   1018.87     51.62
  -9   9  13   1906.10     55.65
  -9   9  14   2939.69     58.54
  -9   9  15   1396.75     54.82
  -9   9  16   1205.91     55.32
  -9   9  17     59.87     52.14
  -9  10   1   8013.81     87.09
  -9  10   2    653.12     56.19
  -9  10   3   4512.69    115.99
  -9  10   4    421.75     83.20
  -9  10   5   1069.06     51.28
  -9  10   6   2464.85    133.98
  -9  10   7   2572.20    104.79
  -9  10   8    130.68     48.97
  -9  10   9   1321.84     53.37
  -9  10  10    282.16     50.24
  -9  10  11    954.86     53.11
  -9  10  12    733.62     52.79
  -9  10  13    673.52     54.04
  -9  10  14    217.96     52.71
  -9  10  15     26.19     53.14
  -9  11   1    926.04     50.20
  -9  11   2    184.24     54.81
  -9  11   3   1124.78     85.36
  -9  11   4    637.71     68.65
  -9  11   5    690.28     52.65
  -9  11   6    457.69     93.74
  -9  11   7    524.23     51.89
  -9  11   8    159.87     52.74
  -9  11   9   1235.40    143.03
  -9  11  10   1549.23     69.52
  -9  11  11     21.39     52.85
  -9  11  12    656.34     71.34
  -9  12   1    136.45     77.10
  -9  12   2   1111.69     51.08
  -9  12   3   1926.50    119.74
  -9  12   4   3763.25    230.98
  -9  12   5   1374.17     77.44
  -9  12   6    552.73    104.85
  -8 -12  -6    663.41     36.16
  -8 -12  -5    175.35     37.57
  -8 -12  -4   1066.19     36.48
  -8 -12  -3    291.87     39.68
  -8 -12  -2   1163.88     62.21
  -8 -12  -1    303.10     51.80
  -8 -12   0    274.11     51.73
  -8 -11 -11    435.51     38.22
  -8 -11 -10    309.35     38.10
  -8 -11  -9    522.19     35.47
  -8 -11  -8    207.98     40.50
  -8 -11  -7   1098.48     35.72
  -8 -11  -6   4676.56     92.82
  -8 -11  -5   1792.73     36.27
  -8 -11  -4   9251.35    136.68
  -8 -11  -3   2244.76     53.41
  -8 -11  -2   1241.16     42.79
  -8 -11  -1    418.99     48.60
  -8 -11   0    315.27     71.09
  -8 -10 -13    246.62     35.46
  -8 -10 -12   1407.71     49.88
  -8 -10 -11    340.67     34.45
  -8 -10 -10    849.78     34.84
  -8 -10  -9     98.26     36.81
  -8 -10  -8    992.51     33.98
  -8 -10  -7   2179.12     35.51
  -8 -10  -6   1305.57     33.68
  -8 -10  -5    210.20     31.18
  -8 -10  -4   2896.00     55.69
  -8 -10  -3   2423.98     47.71
  -8 -10  -2    570.79     30.89
  -8 -10  -1   1284.42     36.44
  -8 -10   0   3312.70    128.64
  -8  -9 -16   1858.36     38.59
  -8  -9 -15   1234.21     44.26
  -8  -9 -14   1416.34     47.09
  -8  -9 -13     52.40     40.95
  -8  -9 -12    458.02     35.74
  -8  -9 -11   1700.02     46.26
  -8  -9 -10    576.72     32.50
  -8  -9  -9   1581.78     42.38
  -8  -9  -8   2186.29     44.32
  -8  -9  -7   1194.12     33.36
  -8  -9  -6     37.61     31.35
  -8  -9  -5   4525.27     76.46
  -8  -9  -4   2616.30     40.77
  -8  -9  -3   7526.94    101.65
  -8  -9  -2   5638.62     99.16
  -8  -9  -1     95.57     31.43
  -8  -9   0   2120.60     49.77
  -8  -8 -17   1024.09     54.20
  -8  -8 -16    484.82     42.86
  -8  -8 -15   1256.00     39.87
  -8  -8 -14    583.83     35.77
  -8  -8 -13   2352.84     49.14
  -8  -8 -12   4493.88     66.86
  -8  -8 -11    902.95     33.33
  -8  -8 -10   2400.48     55.14
  -8  -8  -9   1569.20     35.49
  -8  -8  -8   3895.87     73.07
  -8  -8  -7   3734.44     59.31
  -8  -8  -6   1781.87     31.99
  -8  -8  -5   2368.35     44.12
  -8  -8  -4   2592.13     29.57
  -8  -8  -3   1941.79     35.90
  -8  -8  -2   3171.58     68.34
  -8  -8  -1    605.04     30.81
  -8  -8   0   3746.80    126.80
  -8  -7 -19    234.12     36.15
  -8  -7 -18    353.56     35.26
  -8  -7 -17   1911.34     47.46
  -8  -7 -16   1917.67     54.15
  -8  -7 -15    568.88     35.18
  -8  -7 -14    406.50     34.33
  -8  -7 -13    432.53     38.54
  -8  -7 -12   1968.22     34.42
  -8  -7 -11   1160.49     30.54
  -8  -7 -10   2022.02     43.31
  -8  -7  -9   2271.01     52.01
  -8  -7  -8   1872.55     31.64
  -8  -7  -7  10221.50    118.77
  -8  -7  -6  13450.98    147.85
  -8  -7  -5   3785.69     34.54
  -8  -7  -4   3308.45     31.47
  -8  -7  -3   5693.55     54.02
  -8  -7  -2   5031.68     69.06
  -8  -7  -1   2173.56     26.80
  -8  -7   0  18665.96    861.60
  -8  -6 -20   3096.17    112.54
  -8  -6 -19     83.86     48.18
  -8  -6 -18    486.22     43.34
  -8  -6 -17    169.56     41.95
  -8  -6 -16   2224.65     68.74
  -8  -6 -15   1672.27     38.05
  -8  -6 -14   2080.04     47.77
  -8  -6 -13   1147.25     30.84
  -8  -6 -12   7789.38    100.03
  -8  -6 -11   9258.77     83.04
  -8  -6 -10   6665.94     69.60
  -8  -6  -9   6844.20     88.73
  -8  -6  -8   1129.64     26.04
  -8  -6  -7  14105.56    155.79
  -8  -6  -6    803.40     25.45
  -8  -6  -5   8770.94     83.81
  -8  -6  -4    570.68     27.73
  -8  -6  -3    213.64     20.25
  -8  -6  -2   4535.29     60.74
  -8  -6  -1   7945.39     90.21
  -8  -6   0   5268.99     92.21
  -8  -5 -21   1531.97     59.78
  -8  -5 -20    635.34     56.15
  -8  -5 -19    143.00     62.96
  -8  -5 -18   1389.67     54.76
  -8  -5 -17    508.17     40.99
  -8  -5 -16   1610.80     41.56
  -8  -5 -15    734.74     42.12
  -8  -5 -14   3835.16     56.84
  -8  -5 -13    395.57     36.17
  -8  -5 -12   2859.57     38.41
  -8  -5 -11   3511.38     45.52
  -8  -5 -10    235.69     24.73
  -8  -5  -9  14970.30    148.33
  -8  -5  -8   2916.29     26.62
  -8  -5  -7   2522.28     37.10
  -8  -5  -6  12308.92    105.18
  -8  -5  -5  14010.39     99.21
  -8  -5  -4   5496.05     47.86
  -8  -5  -3   3514.62     34.08
  -8  -5  -2   5817.93     50.23
  -8  -5  -1  10902.35     84.73
  -8  -5   0  12179.75    102.11
  -8  -4 -22    613.81     45.99
  -8  -4 -21     56.18     44.23
  -8  -4 -20    135.05     51.45
  -8  -4 -19   1035.28     54.09
  -8  -4 -18   3703.52     69.95
  -8  -4 -17   2346.18     47.79
  -8  -4 -16   1554.46     40.60
  -8  -4 -15   2344.32     51.04
  -8  -4 -14   7246.77     96.14
  -8  -4 -13   3192.61     38.95
  -8  -4 -12    142.17     40.67
  -8  -4 -11    215.97     33.74
  -8  -4 -10   2465.57     32.67
  -8  -4  -9   1288.29     29.22
  -8  -4  -8   7241.16     62.44
  -8  -4  -7   3708.93     43.73
  -8  -4  -6   6291.29     51.31
  -8  -4  -5   1861.38     26.81
  -8  -4  -4   6680.89     65.98
  -8  -4  -3   4132.66     27.77
  -8  -4  -2   7419.73     34.34
  -8  -4  -1   6201.87     62.42
  -8  -4   0  20406.90    141.47
  -8  -3 -22    313.86     57.62
  -8  -3 -21    562.18     43.96
  -8  -3 -20    157.78     52.45
  -8  -3 -19   5504.02     88.63
  -8  -3 -18   2707.48     48.95
  -8  -3 -17   1755.25     41.29
  -8  -3 -16    343.73     45.38
  -8  -3 -15   3427.21     63.84
  -8  -3 -14   8919.92     90.92
  -8  -3 -13   4543.28     49.97
  -8  -3 -12   9392.70    216.53
  -8  -3 -11   1851.88     31.89
  -8  -3 -10   3191.24     34.33
  -8  -3  -9   8493.83     69.94
  -8  -3  -8   7720.38     58.73
  -8  -3  -7  13474.61    103.81
  -8  -3  -6   1448.52     32.27
  -8  -3  -5   8773.99     59.79
  -8  -3  -4   3860.78     43.42
  -8  -3  -3   5678.86     24.59
  -8  -3  -2  11989.44     69.76
  -8  -3  -1   1322.26     13.47
  -8  -3   0  13341.58     97.69
  -8  -2 -23      6.61     49.32
  -8  -2 -22    905.21     49.66
  -8  -2 -21    440.02     47.81
  -8  -2 -20   1447.22     49.03
  -8  -2 -19   1079.87     42.31
  -8  -2 -18   1538.71     41.36
  -8  -2 -17   4625.41     82.85
  -8  -2 -16    451.74     40.79
  -8  -2 -15    410.97     34.96
  -8  -2 -14    836.90     34.41
  -8  -2 -13  26123.39    307.99
  -8  -2 -12    660.03     30.77
  -8  -2 -11   4794.01     74.92
  -8  -2 -10   3586.44     47.55
  -8  -2  -9   9079.18     56.76
  -8  -2  -8   1262.21     29.15
  -8  -2  -7   6674.50     60.17
  -8  -2  -6   1267.51     25.44
  -8  -2  -5   6770.00     75.85
  -8  -2  -4  38791.52    249.99
  -8  -2  -3   4917.07     24.90
  -8  -2  -2  24526.88    154.32
  -8  -2  -1    361.75      8.26
  -8  -2   0  14788.36    198.44
  -8  -1 -23    327.16     45.45
  -8  -1 -22   2488.01     48.90
  -8  -1 -21   1423.42     66.15
  -8  -1 -20    557.64     46.73
  -8  -1 -19      9.64     54.93
  -8  -1 -18    199.47     38.75
  -8  -1 -17   4878.18     65.38
  -8  -1 -16   2468.73     55.77
  -8  -1 -15   3056.43     45.83
  -8  -1 -14   1750.85     37.90
  -8  -1 -13   2994.95     77.81
  -8  -1 -12   3342.50     42.01
  -8  -1 -11   8549.95     99.07
  -8  -1 -10   6725.80     71.78
  -8  -1  -9   1592.22     27.64
  -8  -1  -8   6222.77     99.71
  -8  -1  -7   6871.71     56.23
  -8  -1  -6  30445.65    330.94
  -8  -1  -5  35537.96    341.31
  -8  -1  -4    337.65     14.09
  -8  -1  -3    102.94     12.53
  -8  -1  -2   7940.81     69.56
  -8  -1  -1  17924.50    129.21
  -8  -1   0   5983.67     70.13
  -8   0   1   1177.52     20.33
  -8   0   3   3561.87     29.98
  -8   0   4   3954.22     64.43
  -8   0   5  13608.86    100.80
  -8   0   6  13206.60    118.20
  -8   0   7     12.10      8.40
  -8   0   8  12504.57    174.87
  -8   0   9  20319.50    162.25
  -8   0  10  11100.95     94.90
  -8   0  11   5711.58     74.81
  -8   0  12    431.92     22.58
  -8   0  13   3731.58     45.06
  -8   0  14  10301.43    121.90
  -8   0  15   5415.25     57.75
  -8   0  16   1424.99     43.04
  -8   0  17   4239.63     36.45
  -8   0  18    256.11     36.34
  -8   0  19    148.10     36.57
  -8   0  20    737.17     33.16
  -8   0  21    748.33     35.40
  -8   0  22   4892.17     88.41
  -8   0  23    152.35     34.52
  -8   0  24   3304.18    104.78
  -8   0  25    401.37     36.91
  -8   0  26   1436.60     56.78
  -8   1   1   1525.82     16.13
  -8   1   2  11722.47     89.27
  -8   1   4   1422.13     38.40
  -8   1   5   2741.24     26.40
  -8   1   6  12355.08     95.98
  -8   1   7   2176.71     45.41
  -8   1   8  17031.00    200.84
  -8   1   9    687.28     31.40
  -8   1  10  40478.44    508.39
  -8   1  11   4392.94     85.53
  -8   1  12    496.46     20.67
  -8   1  13   8723.93    149.67
  -8   1  14  20772.35    126.53
  -8   1  15   2068.32     33.57
  -8   1  16    829.15     33.66
  -8   1  17   3938.29     40.85
  -8   1  18    722.44     28.64
  -8   1  19   9526.43     66.97
  -8   1  20    813.52     31.70
  -8   1  21    496.37     32.21
  -8   1  22     28.70     32.80
  -8   1  23   3480.82     63.81
  -8   1  24    207.60     35.47
  -8   1  25     74.29     39.80
  -8   2   1  43592.70    310.14
  -8   2   3  37802.20    464.25
  -8   2   4  11297.10     68.69
  -8   2   5  11272.17    101.30
  -8   2   6  10800.81    115.44
  -8   2   7  14213.89     72.69
  -8   2   8    199.62     18.35
  -8   2   9  24695.34    365.35
  -8   2  10   9636.87    227.41
  -8   2  11  13204.97    232.06
  -8   2  12   2860.01     70.09
  -8   2  13    190.47     19.90
  -8   2  14   4906.31     99.95
  -8   2  15   1375.22     25.68
  -8   2  16   4687.34    131.30
  -8   2  17    539.29     27.30
  -8   2  18   3871.67     54.88
  -8   2  19   1323.27     45.88
  -8   2  20    146.48     30.60
  -8   2  21   2294.76     45.40
  -8   2  22     10.19     33.00
  -8   2  23   1146.86     36.81
  -8   2  24   1032.79     37.73
  -8   2  25    301.23     37.34
  -8   3   1  13035.96     97.90
  -8   3   2   8586.07     56.09
  -8   3   3    457.26     18.31
  -8   3   4   3256.56     37.97
  -8   3   5   2127.01     24.07
  -8   3   6  11021.28     63.97
  -8   3   7   4917.28     34.84
  -8   3   8   3822.83     41.89
  -8   3   9   1305.62     29.46
  -8   3  10   1024.64     30.76
  -8   3  11    119.41     17.13
  -8   3  12   3779.06     83.45
  -8   3  13    292.52     23.49
  -8   3  14   1893.25     70.00
  -8   3  15    892.06     36.25
  -8   3  16   2303.52     49.08
  -8   3  17   1367.46     29.70
  -8   3  18   1137.84     30.93
  -8   3  19   2485.44     35.74
  -8   3  20   4697.02    118.10
  -8   3  21    757.52     43.52
  -8   3  22    964.58     39.15
  -8   3  23    593.26     53.42
  -8   3  24    548.68     41.92
  -8   3  25   2570.00     83.81
  -8   4   1  61212.06    362.31
  -8   4   2  41471.64    304.47
  -8   4   3  18167.60    198.81
  -8   4   4   9707.02     99.35
  -8   4   5  11913.26     45.03
  -8   4   6  19734.83    177.76
  -8   4   7    181.25     27.01
  -8   4   8    991.88     30.39
  -8   4   9   5653.58     89.46
  -8   4  10   7840.79     47.85
  -8   4  11   2657.68     62.03
  -8   4  12   1589.12     40.11
  -8   4  13    426.57     50.75
  -8   4  14   2918.66     40.40
  -8   4  15   8800.13    147.08
  -8   4  16   6876.70    151.27
  -8   4  17   3703.26     77.51
  -8   4  18   1109.01     47.04
  -8   4  19    670.82     35.44
  -8   4  20    270.21     32.46
  -8   4  21   2604.49     40.72
  -8   4  22    877.10     39.32
  -8   4  23    257.44     38.94
  -8   4  24    620.69     38.01
  -8   5   1   6786.75     93.43
  -8   5   2   5831.12    231.51
  -8   5   3   4289.56    264.51
  -8   5   4     34.87     28.03
  -8   5   5    575.48     30.30
  -8   5   6   3414.19     49.87
  -8   5   7  11355.57    113.67
  -8   5   8   3198.36     51.88
  -8   5   9   3209.28     40.74
  -8   5  10   6037.24     51.46
  -8   5  11   6891.79     51.69
  -8   5  12   2548.32     60.92
  -8   5  13   3461.58     58.90
  -8   5  14     77.36     40.34
  -8   5  15   2036.59     48.24
  -8   5  16   2214.28     49.94
  -8   5  17   6347.42    114.58
  -8   5  18   4248.58     84.48
  -8   5  19   5144.53     96.87
  -8   5  20    662.40     35.10
  -8   5  21    498.33     38.35
  -8   5  22    865.48     48.87
  -8   5  23   1067.91     42.49
  -8   5  24    176.22     44.74
  -8   6   1   4808.41     58.73
  -8   6   2   2603.65    136.39
  -8   6   3   1278.52     74.55
  -8   6   4   3956.42     81.46
  -8   6   5   1997.38     67.03
  -8   6   6    393.70     57.72
  -8   6   7    836.45     36.77
  -8   6   8   8225.50    110.24
  -8   6   9   7753.71     73.54
  -8   6  10   3513.49     47.96
  -8   6  11   1650.04     43.83
  -8   6  12   1510.81     44.48
  -8   6  13    263.93     59.46
  -8   6  14   1285.75     46.16
  -8   6  15   2865.54    107.43
  -8   6  16   1492.99     56.41
  -8   6  17   3355.14     92.32
  -8   6  18   3716.80    221.32
  -8   6  19   5164.93     84.39
  -8   6  20    923.88     53.66
  -8   6  21    322.91     53.30
  -8   6  22    492.70     55.43
  -8   6  23    348.61     55.75
  -8   7   1   9994.13     97.09
  -8   7   2   5677.27    240.81
  -8   7   3   8300.60    151.50
  -8   7   4   1777.13     88.91
  -8   7   5   6621.37     52.85
  -8   7   6     95.19     37.92
  -8   7   7   2921.12     68.50
  -8   7   8   6954.02     56.45
  -8   7   9   4639.11     75.51
  -8   7  10   4528.53     52.83
  -8   7  11   1600.52     75.16
  -8   7  12      0.00     43.71
  -8   7  13   2466.25     61.40
  -8   7  14   2729.80     52.89
  -8   7  15   2524.87     79.61
  -8   7  16   1148.58     64.11
  -8   7  17    278.83     49.42
  -8   7  18    608.08     51.48
  -8   7  19   1685.60     56.09
  -8   7  20   1708.59     67.79
  -8   7  21    867.22     55.34
  -8   8   1   1409.59     64.95
  -8   8   2   2394.58    119.75
  -8   8   3  16792.20    134.49
  -8   8   4   9865.44    111.93
  -8   8   5   2069.03     52.99
  -8   8   6   2382.14     73.87
  -8   8   7   3576.80     72.76
  -8   8   8    128.23     42.83
  -8   8   9   4845.79     73.71
  -8   8  10    110.98     44.54
  -8   8  11    968.13     48.29
  -8   8  12    228.29     46.80
  -8   8  13   2383.61     60.64
  -8   8  14    519.94     80.64
  -8   8  15   1462.84     52.91
  -8   8  16     68.97     50.72
  -8   8  17    139.19     51.33
  -8   8  18    513.04     65.51
  -8   8  19    236.96     67.65
  -8   8  20    572.34     55.20
  -8   9   1    886.24     60.44
  -8   9   2    838.87     70.39
  -8   9   3   5239.31    147.95
  -8   9   4    131.64     44.27
  -8   9   5    189.35     45.26
  -8   9   6   2197.04     51.03
  -8   9   7   4362.42     57.28
  -8   9   8   1880.27     98.09
  -8   9   9    644.08     48.54
  -8   9  10   3184.49     56.19
  -8   9  11   3016.44     66.53
  -8   9  12    256.50     49.93
  -8   9  13   1607.23     69.88
  -8   9  14    581.35     52.20
  -8   9  15   1053.63     54.49
  -8   9  16   1032.92     85.33
  -8   9  17    188.92     69.49
  -8   9  18    217.37     54.71
  -8  10   1   2883.62    114.28
  -8  10   2   1692.78     97.54
  -8  10   3    438.29     41.64
  -8  10   4    361.82     70.70
  -8  10   5   4873.43    143.52
  -8  10   6   2556.00     55.99
  -8  10   7    466.33     76.72
  -8  10   8    476.79     71.82
  -8  10   9    922.48     52.15
  -8  10  10   3139.72     83.64
  -8  10  11   1944.50    128.27
  -8  10  12   3178.79     73.99
  -8  10  13    499.68     54.38
  -8  10  14      0.00     53.34
  -8  10  15    233.15     54.97
  -8  10  16    716.50     57.12
  -8  11   1    112.26     50.52
  -8  11   2    398.01     51.31
  -8  11   3    640.73     45.13
  -8  11   4    582.09     52.25
  -8  11   5    296.63     51.95
  -8  11   6    852.76     53.54
  -8  11   7   1781.56     61.70
  -8  11   8   1445.72     68.51
  -8  11   9    146.25     52.84
  -8  11  10    531.78     54.11
  -8  11  11   1303.25    112.96
  -8  11  12   1412.54     71.65
  -8  11  13    201.99    114.69
  -8  12   1    572.70     58.30
  -8  12   2      0.00     53.95
  -8  12   3      0.00     53.43
  -8  12   4    804.37    109.25
  -8  12   5    565.27     98.16
  -8  12   6    562.21     55.87
  -8  12   7    427.10     55.39
  -8  12   8   1070.00     76.54
  -8  12   9    212.06     55.96
  -7 -12  -8    542.35     39.06
  -7 -12  -7    632.01     40.92
  -7 -12  -6    954.36     39.17
  -7 -12  -5   1048.67     36.78
  -7 -12  -4    558.06     37.82
  -7 -12  -3    268.20     34.91
  -7 -12  -2   1615.32     55.52
  -7 -12  -1     45.74     51.26
  -7 -12   0    173.23     56.36
  -7 -11 -12    213.00     40.42
  -7 -11 -11   1004.12     41.75
  -7 -11 -10   2097.10     44.94
  -7 -11  -9   3471.58     74.21
  -7 -11  -8    715.57     39.52
  -7 -11  -7    210.00     34.59
  -7 -11  -6   4111.89     73.49
  -7 -11  -5    969.46     36.49
  -7 -11  -4    470.99     35.91
  -7 -11  -3   2286.89     46.86
  -7 -11  -2    144.13     40.65
  -7 -11  -1      0.00     48.08
  -7 -11   0   2369.51     60.44
  -7 -10 -15   1416.99     51.57
  -7 -10 -14    207.36     41.11
  -7 -10 -13   2298.62     45.76
  -7 -10 -12    717.48     35.58
  -7 -10 -11   1101.50     35.53
  -7 -10 -10     82.42     36.26
  -7 -10  -9    367.07     33.23
  -7 -10  -8    921.24     35.19
  -7 -10  -7    222.26     32.08
  -7 -10  -6    254.64     31.75
  -7 -10  -5   3453.97     67.96
  -7 -10  -4    220.89     33.11
  -7 -10  -3   2717.24     34.21
  -7 -10  -2   1315.32     38.20
  -7 -10  -1    361.63     56.72
  -7 -10   0   3470.08    163.00
  -7  -9 -17     64.51     43.97
  -7  -9 -16     80.92     39.85
  -7  -9 -15    446.41     42.34
  -7  -9 -14    684.18     37.36
  -7  -9 -13   4938.41    103.46
  -7  -9 -12   4785.12     60.09
  -7  -9 -11   1123.77     34.03
  -7  -9 -10    760.50     32.63
  -7  -9  -9   3079.67     52.32
  -7  -9  -8    233.70     35.35
  -7  -9  -7    171.57     30.05
  -7  -9  -6   1084.49     38.89
  -7  -9  -5    355.81     30.67
  -7  -9  -4   2397.09     36.87
  -7  -9  -3   4295.03     58.68
  -7  -9  -2   1565.05     31.66
  -7  -9  -1   2867.62     72.10
  -7  -9   0    948.59     46.30
  -7  -8 -18     10.99     37.38
  -7  -8 -17    783.17     46.90
  -7  -8 -16    135.38     37.24
  -7  -8 -15   4107.68    101.67
  -7  -8 -14   6739.69    106.14
  -7  -8 -13    740.21     33.04
  -7  -8 -12   2119.66     34.13
  -7  -8 -11   2991.45     43.84
  -7  -8 -10   3334.94     69.78
  -7  -8  -9   3827.47     55.54
  -7  -8  -8    152.34     30.34
  -7  -8  -7    319.21     36.11
  -7  -8  -6   2638.02     47.49
  -7  -8  -5   1718.13     28.93
  -7  -8  -4   1421.85     31.84
  -7  -8  -3   2203.49     30.68
  -7  -8  -2   5172.15     61.55
  -7  -8  -1   5714.98    166.00
  -7  -8   0   3377.70     48.77
  -7  -7 -20   2113.57     41.62
  -7  -7 -19    822.57     36.68
  -7  -7 -18   2166.24     39.00
  -7  -7 -17   1941.31     37.15
  -7  -7 -16    645.65     36.18
  -7  -7 -15   2977.71     38.89
  -7  -7 -14    207.29     31.42
  -7  -7 -13   3493.45     39.29
  -7  -7 -12   3294.20     53.18
  -7  -7 -11   1087.16     30.19
  -7  -7 -10    937.33     33.68
  -7  -7  -9   1616.83     29.46
  -7  -7  -8  10775.46     85.49
  -7  -7  -7    847.96     30.53
  -7  -7  -6   2049.60     31.65
  -7  -7  -5   3273.39     47.26
  -7  -7  -4    635.42     24.17
  -7  -7  -3   1662.78     26.89
  -7  -7  -2   8840.06     89.15
  -7  -7  -1   1053.88     39.14
  -7  -7   0   2470.99    136.28
  -7  -6 -21    844.19     58.53
  -7  -6 -20   1229.32     88.15
  -7  -6 -19   1059.17     61.69
  -7  -6 -18    376.74     42.48
  -7  -6 -17   1715.37     54.24
  -7  -6 -16    750.53     44.33
  -7  -6 -15    453.27     39.28
  -7  -6 -14   1124.99     32.10
  -7  -6 -13    511.57     31.21
  -7  -6 -12   2024.12     38.99
  -7  -6 -11      0.00     27.17
  -7  -6 -10   2062.86     44.87
  -7  -6  -9    771.12     26.98
  -7  -6  -8   2787.20     44.62
  -7  -6  -7  14328.52    121.65
  -7  -6  -6  12144.33    117.31
  -7  -6  -5    801.49     22.93
  -7  -6  -4  24032.31    224.41
  -7  -6  -3   8581.85     91.21
  -7  -6  -2   1555.50     21.80
  -7  -6  -1   2871.68     55.30
  -7  -6   0   2088.39     64.42
  -7  -5 -22   3590.01    118.56
  -7  -5 -21    334.78     55.60
  -7  -5 -20    288.92     43.72
  -7  -5 -19    297.52     59.96
  -7  -5 -18   2240.93     71.73
  -7  -5 -17    666.68     42.26
  -7  -5 -16   7262.16    115.66
  -7  -5 -15    803.94     56.09
  -7  -5 -14   1516.94     57.00
  -7  -5 -13   1493.74     36.95
  -7  -5 -12   3670.15     54.81
  -7  -5 -11   5980.40     52.76
  -7  -5 -10   2488.30     27.57
  -7  -5  -9   4961.65     49.37
  -7  -5  -8  13261.41    130.12
  -7  -5  -7   5892.18     69.29
  -7  -5  -6  30327.85    268.75
  -7  -5  -5  14300.22    128.83
  -7  -5  -4   3870.51     25.26
  -7  -5  -3    175.52     17.74
  -7  -5  -2   5219.98     40.92
  -7  -5  -1   2863.26     28.68
  -7  -5   0   2609.01     26.82
  -7  -4 -23   2318.59     62.49
  -7  -4 -22    204.96     48.17
  -7  -4 -21   2022.83     90.64
  -7  -4 -20   1063.30     54.52
  -7  -4 -19      3.48     51.11
  -7  -4 -18   2793.73     44.51
  -7  -4 -17    678.38     44.01
  -7  -4 -16   5248.30     97.05
  -7  -4 -15   3464.37     51.43
  -7  -4 -14    585.47     50.20
  -7  -4 -13   5733.38    105.26
  -7  -4 -12   2532.76     60.78
  -7  -4 -11   2102.15     52.45
  -7  -4 -10   3338.79     38.70
  -7  -4  -9   4843.15     60.58
  -7  -4  -8   9489.23     71.17
  -7  -4  -7   2492.52     22.41
  -7  -4  -6   5698.58     24.81
  -7  -4  -5  12061.10    103.34
  -7  -4  -4   3835.92     24.94
  -7  -4  -3  20223.67    125.94
  -7  -4  -2   8403.13     56.77
  -7  -4  -1   4366.39     29.54
  -7  -4   0   4015.03     22.62
  -7  -3 -23    159.07     45.45
  -7  -3 -22    448.67     44.97
  -7  -3 -21   3678.62     96.83
  -7  -3 -20   1119.29     43.43
  -7  -3 -19   2473.79     50.40
  -7  -3 -18    582.47     44.47
  -7  -3 -17   2756.72     46.07
  -7  -3 -16   6149.58     54.15
  -7  -3 -15   5520.60     68.22
  -7  -3 -14  13140.85    115.25
  -7  -3 -13  19978.69    320.26
  -7  -3 -12    726.30     33.00
  -7  -3 -11    394.49     29.07
  -7  -3 -10   9800.73     69.21
  -7  -3  -9   1530.90     27.46
  -7  -3  -8  32821.24    154.67
  -7  -3  -7   1351.76     23.92
  -7  -3  -6   3142.01     37.41
  -7  -3  -5   5457.78     66.42
  -7  -3  -4   8717.43     37.89
  -7  -3  -3   9352.79     68.07
  -7  -3  -2    349.06     12.19
  -7  -3  -1  21879.62    101.73
  -7  -3   0  11272.61     50.02
  -7  -2 -23   1774.12     52.08
  -7  -2 -22    232.76     43.81
  -7  -2 -21    646.91     48.28
  -7  -2 -20      0.00     41.46
  -7  -2 -19   2493.39     48.82
  -7  -2 -18   2621.90     72.64
  -7  -2 -17   2866.99     41.42
  -7  -2 -16   4867.33     78.47
  -7  -2 -15   4380.48     62.42
  -7  -2 -14   4616.70     39.55
  -7  -2 -13   3364.08     40.59
  -7  -2 -12   4585.10     56.80
  -7  -2 -11  12857.59     67.73
  -7  -2 -10   5345.94     71.14
  -7  -2  -9   6716.30     46.96
  -7  -2  -8  10386.30     85.35
  -7  -2  -7   7614.62     70.43
  -7  -2  -6  11001.01     93.81
  -7  -2  -5   2096.19     19.89
  -7  -2  -4  14538.69    119.27
  -7  -2  -3  10463.09     59.17
  -7  -2  -2  45008.22    245.77
  -7  -2  -1   5771.67     45.94
  -7  -2   0   8595.66     36.56
  -7  -1 -24     61.46     45.93
  -7  -1 -23    625.05     51.70
  -7  -1 -22    759.55     50.12
  -7  -1 -21   3888.44     80.03
  -7  -1 -20   1404.84     48.50
  -7  -1 -19    124.70     39.68
  -7  -1 -18   3585.01     47.80
  -7  -1 -17   5193.36     85.28
  -7  -1 -16  12264.85    169.16
  -7  -1 -15   6131.21    102.95
  -7  -1 -14   4842.35     54.57
  -7  -1 -13    362.12     30.67
  -7  -1 -12    188.59     28.79
  -7  -1 -11   2573.77     44.51
  -7  -1 -10   5863.13     59.39
  -7  -1  -9   9002.24     47.11
  -7  -1  -8   6083.39     32.66
  -7  -1  -7  19951.07    206.05
  -7  -1  -6  18748.00    201.47
  -7  -1  -5   1702.10     20.19
  -7  -1  -4    725.64     14.52
  -7  -1  -3  18774.77    142.26
  -7  -1  -2  14363.54     98.03
  -7  -1  -1  10597.33     87.19
  -7  -1   0  19983.51    120.48
  -7   0   1   7370.13    163.16
  -7   0   2  79014.50    570.76
  -7   0   4  19424.92    400.24
  -7   0   5     85.67      6.88
  -7   0   6   4604.63     33.64
  -7   0   7  18960.80    149.77
  -7   0   8   9725.86    121.42
  -7   0   9   6692.92     77.46
  -7   0  10   9619.29     87.85
  -7   0  11  24679.20    177.93
  -7   0  12    515.62     23.66
  -7   0  13    633.77     25.25
  -7   0  14     72.54     21.70
  -7   0  15      2.65     25.00
  -7   0  16   1585.50     36.90
  -7   0  17   3205.40     44.44
  -7   0  18   4930.14     53.66
  -7   0  19   6368.69     56.98
  -7   0  20    139.18     30.68
  -7   0  21    346.72     34.46
  -7   0  22    175.11     41.34
  -7   0  23    712.26     35.73
  -7   0  24   1327.13     38.49
  -7   0  25    351.60     37.87
  -7   0  26    353.65     38.69
  -7   1   1  22663.50    236.21
  -7   1   2  11598.70    124.55
  -7   1   3  11578.60    134.26
  -7   1   4  41009.30    426.80
  -7   1   5   9787.05     65.59
  -7   1   6  46187.77    561.15
  -7   1   7    334.41      9.68
  -7   1   8  21940.25    321.38
  -7   1   9   1391.26     28.49
  -7   1  10  18045.65    218.79
  -7   1  11   3860.75     46.75
  -7   1  12   8416.08    144.38
  -7   1  13     75.62     20.24
  -7   1  14   6244.28     89.82
  -7   1  15  15672.73    159.21
  -7   1  16   7843.64    146.07
  -7   1  17  18462.05    153.70
  -7   1  18   4029.76     39.10
  -7   1  19   4053.91     53.29
  -7   1  20    542.69     36.18
  -7   1  21   3337.36     76.54
  -7   1  22    700.81     34.80
  -7   1  23    197.69     40.48
  -7   1  24    936.28     37.76
  -7   1  25   1031.19     39.51
  -7   1  26     63.76     43.68
  -7   2   1  59796.67    515.85
  -7   2   2   8142.60     56.49
  -7   2   3  29328.98    197.08
  -7   2   5  31956.43    593.30
  -7   2   6   4133.42     36.28
  -7   2   7   6673.48    102.37
  -7   2   8  21904.73    215.98
  -7   2   9  12040.07    200.81
  -7   2  10   8276.97    137.34
  -7   2  11   4516.32     72.52
  -7   2  12  18854.95    310.27
  -7   2  13   1322.37     24.76
  -7   2  14   8781.57    122.68
  -7   2  15   1147.79     38.35
  -7   2  16   5396.80     98.77
  -7   2  17   1883.12     30.42
  -7   2  18   9913.24    131.99
  -7   2  19    852.43     31.86
  -7   2  20   1131.66     33.68
  -7   2  21    647.27     33.71
  -7   2  22    287.27     34.80
  -7   2  23   4670.94     81.83
  -7   2  24    531.59     37.08
  -7   2  25   4866.88    154.98
  -7   2  26    968.22     44.55
  -7   3   1   5429.19    133.37
  -7   3   2  24724.61    567.33
  -7   3   3  40152.20    493.56
  -7   3   4    981.44     21.53
  -7   3   5   4579.01     32.32
  -7   3   6   6654.22     44.39
  -7   3   7  21259.29    182.60
  -7   3   8   2724.48     31.13
  -7   3   9   1651.17     41.38
  -7   3  10   2494.78     44.04
  -7   3  11   2073.62     41.28
  -7   3  12    468.62     20.98
  -7   3  13   2287.40     29.68
  -7   3  14   1296.58     25.51
  -7   3  15   4582.44     77.66
  -7   3  16   1220.15     30.78
  -7   3  17   6626.22    155.94
  -7   3  18   5394.65     85.12
  -7   3  19   4964.18     74.38
  -7   3  20   3531.68     46.28
  -7   3  21    458.19     37.44
  -7   3  22   1124.10     68.31
  -7   3  23    102.64     39.20
  -7   3  24   2358.22     46.94
  -7   3  25    637.34     39.27
  -7   4   1   7356.10    227.37
  -7   4   2  14707.58    107.01
  -7   4   3   9344.91     48.34
  -7   4   4   1951.79     28.27
  -7   4   5    536.48     25.97
  -7   4   6   5321.90    102.42
  -7   4   7   2688.84     33.30
  -7   4   8  18438.32    145.95
  -7   4   9   9985.15    138.44
  -7   4  10  50122.84    407.15
  -7   4  11  18768.33     67.28
  -7   4  12  13050.56    261.87
  -7   4  13    905.27     30.29
  -7   4  14   6576.72    134.66
  -7   4  15    867.83     37.01
  -7   4  16   1399.07     33.62
  -7   4  17   6994.96    117.31
  -7   4  18   6500.48    147.84
  -7   4  19   1167.96     34.12
  -7   4  20   1417.54     38.07
  -7   4  21   1211.03     36.41
  -7   4  22    678.55     36.67
  -7   4  23   1210.06     39.07
  -7   4  24    647.55     39.02
  -7   4  25   2593.86     73.38
  -7   5   1   3367.29    120.29
  -7   5   2   4057.16    170.26
  -7   5   3   9501.74    270.22
  -7   5   4   1310.38     52.71
  -7   5   5  22920.11    173.78
  -7   5   6   1748.28     34.47
  -7   5   7   1298.93     34.71
  -7   5   8   8646.69     77.66
  -7   5   9   6615.16     47.73
  -7   5  10   6919.11     49.95
  -7   5  11  15959.85    255.37
  -7   5  12   3352.67     46.03
  -7   5  13    982.11     50.81
  -7   5  14    963.51     44.00
  -7   5  15    264.62     43.73
  -7   5  16     79.21     32.18
  -7   5  17   6508.03    135.14
  -7   5  18   1313.41     55.31
  -7   5  19    266.58     33.35
  -7   5  20   2874.49     93.14
  -7   5  21   2866.14     59.34
  -7   5  22    424.85     41.08
  -7   5  23   1276.47     54.69
  -7   5  24    220.73     42.40
  -7   6   1   1853.85     45.44
  -7   6   2   4679.94     58.07
  -7   6   3   3136.14     96.08
  -7   6   4   4391.26    194.86
  -7   6   5   3128.92     61.80
  -7   6   6    103.60     34.06
  -7   6   7    604.72     36.82
  -7   6   8  11173.26     95.50
  -7   6   9   1281.94     49.65
  -7   6  10  21905.33    250.87
  -7   6  11   3258.18     57.63
  -7   6  12    702.43     54.02
  -7   6  13   2535.39    100.96
  -7   6  14   6239.07     79.94
  -7   6  15    411.85     55.34
  -7   6  16   1168.72     59.82
  -7   6  17    300.07     47.69
  -7   6  18    543.59     50.91
  -7   6  19   3396.76     80.17
  -7   6  20    666.86     72.19
  -7   6  21      0.00     53.36
  -7   6  22    433.66     46.69
  -7   6  23    780.70     43.60
  -7   7   1  15842.18    236.50
  -7   7   2  11106.81     64.93
  -7   7   3   4524.59    161.36
  -7   7   4   7005.83    149.72
  -7   7   5   1507.53     42.13
  -7   7   6   1248.62     41.70
  -7   7   7   9881.56     59.94
  -7   7   8   1571.28     44.75
  -7   7   9  16361.20    101.56
  -7   7  10    383.53     42.57
  -7   7  11   3866.75    112.76
  -7   7  12  11545.18     84.05
  -7   7  13   4676.46     56.53
  -7   7  14    547.88     47.32
  -7   7  15   1556.17     65.21
  -7   7  16   2709.69     55.53
  -7   7  17   1890.07     64.43
  -7   7  18   1449.25     65.60
  -7   7  19   2043.14     89.85
  -7   7  20    126.05     52.95
  -7   7  21    548.98     54.89
  -7   7  22    879.62     82.69
  -7   8   1  22418.80    136.66
  -7   8   2      0.00     99.00
  -7   8   3   9645.61    563.31
  -7   8   4   2133.80    156.92
  -7   8   5  15139.72    214.54
  -7   8   6    683.26     57.91
  -7   8   7    680.31     44.53
  -7   8   8   1555.91     47.41
  -7   8   9   2260.72    139.45
  -7   8  10   2040.17     84.67
  -7   8  11    163.72     56.79
  -7   8  12   4326.10    109.38
  -7   8  13    276.39     84.24
  -7   8  14   3889.71     84.76
  -7   8  15    306.16     58.58
  -7   8  16    413.26     51.74
  -7   8  17    798.74     54.03
  -7   8  18   4047.51    246.91
  -7   8  19    720.99     69.83
  -7   8  20   1521.60     77.72
  -7   8  21    130.51     66.13
  -7   9   1   5607.57     69.34
  -7   9   2   8043.99    109.52
  -7   9   3   5144.98     64.79
  -7   9   4     41.15     42.64
  -7   9   5    908.53     57.92
  -7   9   6    288.38     46.34
  -7   9   7      0.46     46.01
  -7   9   8   1210.42     50.05
  -7   9   9    779.96     76.57
  -7   9  10    857.32     50.53
  -7   9  11    394.28     49.94
  -7   9  12    875.17     52.03
  -7   9  13   1733.13    134.25
  -7   9  14   1578.02     55.80
  -7   9  15   4000.99     91.23
  -7   9  16    516.09     94.85
  -7   9  17   1627.19     75.95
  -7   9  18    177.88     55.41
  -7   9  19    954.17     71.80
  -7  10   1    238.48     48.64
  -7  10   2   1992.08     71.53
  -7  10   3    591.62     48.79
  -7  10   4   1362.35     63.00
  -7  10   5   5291.61    116.83
  -7  10   6    989.58     52.09
  -7  10   7   3661.24     59.61
  -7  10   8    944.30     52.64
  -7  10   9   1510.52     54.82
  -7  10  10   2839.21     71.20
  -7  10  11    651.29     53.34
  -7  10  12   1768.78     87.59
  -7  10  13    547.35     54.80
  -7  10  14   1610.04     79.33
  -7  10  15   3289.67     64.79
  -7  10  16   2680.76    130.06
  -7  10  17   2027.64     61.69
  -7  11   1   3786.06    118.30
  -7  11   2    512.98     53.15
  -7  11   3   1516.58     55.47
  -7  11   4    343.19    103.03
  -7  11   5   4743.87    201.19
  -7  11   6   1084.08     77.33
  -7  11   7   1586.08     69.69
  -7  11   8    801.62     54.92
  -7  11   9   1115.58    102.20
  -7  11  10    354.21     70.39
  -7  11  11    539.39     56.49
  -7  11  12    197.27     55.46
  -7  11  13    626.79     67.01
  -7  11  14     69.30     56.57
  -7  12   1    635.23     72.93
  -7  12   2    439.04     68.79
  -7  12   3    508.93     55.78
  -7  12   4    694.32     88.50
  -7  12   5    549.12     71.83
  -7  12   6    399.95     55.74
  -7  12   7      0.00     54.68
  -7  12   8   1137.97     58.99
  -7  12   9    493.04     65.93
  -7  12  10   2488.05     63.95
  -6 -13  -3    845.98     45.48
  -6 -13  -2    135.18     48.28
  -6 -13  -1    172.76     71.96
  -6 -13   0      0.00     81.39
  -6 -12  -9    290.92     38.52
  -6 -12  -8   1042.58     39.90
  -6 -12  -7    475.26     38.68
  -6 -12  -6   4968.92     71.57
  -6 -12  -5   3002.74     78.88
  -6 -12  -4   5064.60     69.93
  -6 -12  -3   1731.02     50.41
  -6 -12  -2    436.76     52.68
  -6 -12  -1    462.08     58.22
  -6 -12   0    169.04     56.93
  -6 -11 -13    826.40     37.70
  -6 -11 -12   1631.35     87.90
  -6 -11 -11    296.22     37.76
  -6 -11 -10    235.00     35.09
  -6 -11  -9   1103.73     38.21
  -6 -11  -8   1910.83     39.61
  -6 -11  -7   6184.37     91.50
  -6 -11  -6    563.81     34.10
  -6 -11  -5    338.33     35.31
  -6 -11  -4   3236.09     52.81
  -6 -11  -3   1797.89     50.95
  -6 -11  -2    151.00     37.26
  -6 -11  -1   1633.07     58.07
  -6 -11   0    648.85     67.13
  -6 -10 -15    946.59     49.09
  -6 -10 -14    827.44     40.96
  -6 -10 -13    601.31     36.46
  -6 -10 -12    299.92     36.57
  -6 -10 -11    181.91     34.13
  -6 -10 -10   1965.74     36.07
  -6 -10  -9   3129.44     39.05
  -6 -10  -8     52.40     32.50
  -6 -10  -7   2835.39     40.44
  -6 -10  -6   3772.73     54.51
  -6 -10  -5    504.74     35.28
  -6 -10  -4   3375.70     48.93
  -6 -10  -3    390.57     33.23
  -6 -10  -2   1519.24     39.80
  -6 -10  -1    462.09     50.35
  -6 -10   0    478.57     50.17
  -6  -9 -17    667.42     41.46
  -6  -9 -16    972.49     44.15
  -6  -9 -15   3978.90     73.71
  -6  -9 -14   2621.18     37.75
  -6  -9 -13   1697.99     46.02
  -6  -9 -12   2719.59     40.44
  -6  -9 -11    748.39     35.01
  -6  -9 -10    788.55     34.39
  -6  -9  -9   2549.04     39.41
  -6  -9  -8   2187.56     38.69
  -6  -9  -7   3117.48     38.88
  -6  -9  -6   1831.10     31.78
  -6  -9  -5    796.11     31.22
  -6  -9  -4   4028.42     46.15
  -6  -9  -3    282.51     35.46
  -6  -9  -2   2528.14     48.82
  -6  -9  -1   4342.09     56.91
  -6  -9   0   9806.05    268.27
  -6  -8 -19    631.12     36.89
  -6  -8 -18   1299.61     50.90
  -6  -8 -17    265.40     42.77
  -6  -8 -16   3871.76     47.45
  -6  -8 -15    704.31     34.15
  -6  -8 -14    846.13     33.88
  -6  -8 -13    732.67     32.98
  -6  -8 -12   3335.42     41.66
  -6  -8 -11    282.76     34.12
  -6  -8 -10   3234.92     55.46
  -6  -8  -9    936.94     30.08
  -6  -8  -8   6786.52     41.55
  -6  -8  -7    345.32     29.73
  -6  -8  -6   4022.60     37.05
  -6  -8  -5   4210.98     42.41
  -6  -8  -4   7087.50     58.11
  -6  -8  -3  15410.16    162.72
  -6  -8  -2   6575.43     85.77
  -6  -8  -1  12477.97    205.89
  -6  -8   0   9456.47    250.00
  -6  -7 -20    629.57     39.38
  -6  -7 -19    186.35     35.30
  -6  -7 -18    711.03     35.32
  -6  -7 -17   1914.32     40.51
  -6  -7 -16   3034.84     47.31
  -6  -7 -15    443.52     32.30
  -6  -7 -14    307.56     31.40
  -6  -7 -13   1233.13     35.72
  -6  -7 -12   6964.58     87.98
  -6  -7 -11   5954.87     77.04
  -6  -7 -10   7704.88     78.20
  -6  -7  -9   3589.00     31.73
  -6  -7  -8   6795.91     81.72
  -6  -7  -7   1010.87     30.40
  -6  -7  -6   6878.52     80.84
  -6  -7  -5   3119.25     28.13
  -6  -7  -4    331.94     32.01
  -6  -7  -3   1452.25     29.16
  -6  -7  -2   1855.18     24.71
  -6  -7  -1   2330.25     79.27
  -6  -7   0    501.89     35.97
  -6  -6 -22    890.10     58.97
  -6  -6 -21   3300.80     92.45
  -6  -6 -20    411.50     44.31
  -6  -6 -19     64.72     42.67
  -6  -6 -18    505.22     46.60
  -6  -6 -17    130.30     44.51
  -6  -6 -16   4204.75     77.97
  -6  -6 -15    630.46     39.20
  -6  -6 -14   2564.32     41.08
  -6  -6 -13    854.16     33.50
  -6  -6 -12   2441.12     36.87
  -6  -6 -11   2817.79     30.49
  -6  -6 -10   6461.82     63.33
  -6  -6  -9   4963.12     52.63
  -6  -6  -8   2709.20     29.61
  -6  -6  -7   5735.02     45.82
  -6  -6  -6  43631.22    267.42
  -6  -6  -5   3244.84     28.71
  -6  -6  -4   7179.39     62.07
  -6  -6  -3  24319.47    199.30
  -6  -6  -2   4010.05     24.72
  -6  -6  -1   4488.02     53.40
  -6  -6   0  19288.79    371.16
  -6  -5 -22   2114.04     60.01
  -6  -5 -21   1044.72     56.56
  -6  -5 -20    774.47     44.00
  -6  -5 -19    544.65     52.05
  -6  -5 -18   4686.78     88.37
  -6  -5 -17    339.76     40.18
  -6  -5 -16    450.07     38.67
  -6  -5 -15   2825.28     86.26
  -6  -5 -14   1307.73     37.63
  -6  -5 -13   9283.74     93.00
  -6  -5 -12   9164.70    114.50
  -6  -5 -11   2759.19     62.29
  -6  -5 -10    963.74     32.58
  -6  -5  -9   1583.24     36.05
  -6  -5  -8   6809.70     41.03
  -6  -5  -7  15964.21    119.63
  -6  -5  -6   5619.01     48.82
  -6  -5  -5   1710.99     21.34
  -6  -5  -4   2412.22     29.56
  -6  -5  -3   8112.40     45.89
  -6  -5  -2   7658.20     66.48
  -6  -5  -1  36684.62    470.24
  -6  -5   0   1011.10     43.58
  -6  -4 -23   1570.30     59.14
  -6  -4 -22   1127.95     45.89
  -6  -4 -21    176.87     43.26
  -6  -4 -20    418.68     52.88
  -6  -4 -19   7315.24    128.01
  -6  -4 -18    659.96     40.70
  -6  -4 -17   3277.32     43.40
  -6  -4 -16     60.05     45.72
  -6  -4 -15   3464.41     56.19
  -6  -4 -14   3737.10     40.24
  -6  -4 -13   3898.59     48.48
  -6  -4 -12   8129.11     42.63
  -6  -4 -11   2850.70     51.71
  -6  -4 -10   3299.62     32.77
  -6  -4  -9  32493.69    191.52
  -6  -4  -8   1627.51     27.54
  -6  -4  -7   9374.02     74.78
  -6  -4  -6   1934.81     20.33
  -6  -4  -5   1529.00     18.77
  -6  -4  -4   2963.40     19.48
  -6  -4  -3   6327.70     42.24
  -6  -4  -2   4991.95     38.38
  -6  -4  -1   2124.98     16.10
  -6  -4   0   7990.24     78.01
  -6  -3 -24    348.15     47.38
  -6  -3 -23     83.23     44.98
  -6  -3 -22    235.96     43.81
  -6  -3 -21    520.57     43.35
  -6  -3 -20    256.69     41.28
  -6  -3 -19   8459.04    151.92
  -6  -3 -18    210.84     38.59
  -6  -3 -17   5614.85     87.37
  -6  -3 -16   1329.44     53.82
  -6  -3 -15   4071.66     40.84
  -6  -3 -14  20745.90    281.99
  -6  -3 -13   2968.66     36.09
  -6  -3 -12   4803.98     36.56
  -6  -3 -11   2880.64     31.99
  -6  -3 -10   4932.76     33.40
  -6  -3  -9   7657.55     42.24
  -6  -3  -8   1789.47     28.96
  -6  -3  -7   6713.18     41.60
  -6  -3  -6   2129.02     22.95
  -6  -3  -5  48530.33    366.86
  -6  -3  -4  19509.34    139.06
  -6  -3  -3   3341.25     20.18
  -6  -3  -2  20950.53    111.86
  -6  -3  -1  24868.43    133.80
  -6  -3   0  31016.84    146.37
  -6  -2 -24    134.11     55.17
  -6  -2 -23   2067.25     84.94
  -6  -2 -22   2474.80     47.10
  -6  -2 -21   1823.50     57.63
  -6  -2 -20   3074.62     67.23
  -6  -2 -19   1797.81     51.07
  -6  -2 -18    506.61     38.52
  -6  -2 -17   1706.73     41.44
  -6  -2 -16   5058.67     51.34
  -6  -2 -15    774.29     35.20
  -6  -2 -14  10652.98    100.66
  -6  -2 -13  11763.39    152.24
  -6  -2 -12   3978.55     57.73
  -6  -2 -11   4244.07     76.41
  -6  -2 -10   7536.86     35.00
  -6  -2  -9   2523.95     36.62
  -6  -2  -8  16306.07    118.60
  -6  -2  -7   5170.02     41.42
  -6  -2  -6  11464.94     63.51
  -6  -2  -5  21215.73    191.61
  -6  -2  -4   3043.64     23.27
  -6  -2  -3   8746.96     93.86
  -6  -2  -2  23483.47     99.95
  -6  -2  -1  19395.48     84.57
  -6  -2   0   5088.01     31.27
  -6  -1 -24    412.49     64.74
  -6  -1 -23   2226.33     52.22
  -6  -1 -22    146.25     46.09
  -6  -1 -21   2122.37     44.99
  -6  -1 -20    310.09     40.59
  -6  -1 -19    995.83     55.61
  -6  -1 -18     62.32     37.52
  -6  -1 -17   4690.94     75.18
  -6  -1 -16    347.00     36.61
  -6  -1 -15   2669.05     40.78
  -6  -1 -14    169.44     39.38
  -6  -1 -13  14679.00    162.59
  -6  -1 -12  14582.60    145.28
  -6  -1 -11   1846.05     32.18
  -6  -1 -10   6119.51     33.63
  -6  -1  -9  14229.23    146.28
  -6  -1  -8  23875.57    218.58
  -6  -1  -7  13467.00    148.12
  -6  -1  -6  39328.58    214.83
  -6  -1  -5  15520.75    106.65
  -6  -1  -4  36927.00    275.70
  -6  -1  -3  28220.81    213.87
  -6  -1  -2   6917.26     58.16
  -6  -1  -1  16028.17     65.22
  -6  -1   0  25227.17    187.33
  -6   0   1   6021.68     58.65
  -6   0   2   8782.40    186.74
  -6   0   3  26842.93    193.86
  -6   0   4   4165.89     51.72
  -6   0   5   9366.04     81.26
  -6   0   6   5459.43     47.82
  -6   0   7     27.93     11.00
  -6   0   8  32423.73    288.22
  -6   0   9  12204.96    112.50
  -6   0  10  69213.72    433.83
  -6   0  11   2737.36     22.05
  -6   0  12   2113.17     27.09
  -6   0  13   2719.77     24.78
  -6   0  14   9204.76     38.57
  -6   0  15   4995.26     55.62
  -6   0  16    246.16     26.17
  -6   0  17   3157.76     40.42
  -6   0  18   8387.05     73.59
  -6   0  19    251.99     30.42
  -6   0  20   1832.20     34.93
  -6   0  21    298.60     33.54
  -6   0  22   1963.11     57.36
  -6   0  23   3175.23    112.04
  -6   0  24    108.13     36.62
  -6   0  25     63.44     42.27
  -6   0  26    357.85     39.94
  -6   1   1    789.97     14.11
  -6   1   2  16782.10    349.45
  -6   1   3   6135.79     92.69
  -6   1   4  12626.49    113.87
  -6   1   5  24345.61    239.89
  -6   1   6   7786.55     94.50
  -6   1   7   9434.60     63.68
  -6   1   8  42794.47    500.10
  -6   1   9   1672.15     32.43
  -6   1  10  49771.90    526.22
  -6   1  11   5451.07     62.43
  -6   1  12    582.69     27.93
  -6   1  13   1354.28     24.53
  -6   1  14  24123.57    235.54
  -6   1  15   4266.96     33.97
  -6   1  16   1454.13     56.01
  -6   1  17   9191.87     96.73
  -6   1  18    185.07     29.20
  -6   1  19   1214.63     36.76
  -6   1  20    390.05     32.37
  -6   1  21    403.86     38.20
  -6   1  22   2972.44     57.41
  -6   1  23   2569.39     49.86
  -6   1  24    361.49     40.70
  -6   1  25   2395.16     54.36
  -6   1  26   1298.37     41.94
  -6   2   1  13861.76    281.53
  -6   2   2  21501.17    342.50
  -6   2   3   9216.41     74.20
  -6   2   4  17813.24    126.46
  -6   2   5  18670.82    154.36
  -6   2   6  16894.12    112.32
  -6   2   7  18487.74    192.39
  -6   2   8   3288.24     53.57
  -6   2   9  17582.85    178.43
  -6   2  10   4882.21     85.32
  -6   2  11   1001.76     40.35
  -6   2  12  10320.00    165.91
  -6   2  13  10623.70    192.38
  -6   2  14  16756.07    175.03
  -6   2  15    193.84     26.01
  -6   2  16   1053.40     30.43
  -6   2  17   2582.25     71.67
  -6   2  18   1191.41     34.26
  -6   2  19  10904.41    152.22
  -6   2  20   1171.10     37.59
  -6   2  21    683.04     38.16
  -6   2  22    428.42     35.45
  -6   2  23   1714.88     84.49
  -6   2  24   1550.72     49.90
  -6   2  25   3340.68     83.94
  -6   2  26   2032.46     47.89
  -6   3   1  370748.4   7594.70
  -6   3   2   1930.03     42.44
  -6   3   3  97595.65    554.98
  -6   3   4   5135.74     57.96
  -6   3   5   7868.83     56.45
  -6   3   6  33267.20    398.26
  -6   3   7   3970.85     40.65
  -6   3   8   7812.09     48.25
  -6   3   9   2882.13     66.82
  -6   3  10   6877.91    135.13
  -6   3  11   3425.65     71.16
  -6   3  12    246.16     25.25
  -6   3  13    252.70     23.16
  -6   3  14    106.24     26.27
  -6   3  15   2872.49     46.38
  -6   3  16   4524.04     72.44
  -6   3  17    234.64     29.66
  -6   3  18   3384.11     58.30
  -6   3  19   2290.95     35.79
  -6   3  20    640.32     33.97
  -6   3  21   4543.21     42.26
  -6   3  22   1028.25     37.27
  -6   3  23   1493.12     39.37
  -6   3  24   1172.45     40.11
  -6   3  25   1046.68     41.10
  -6   3  26    111.33     68.12
  -6   4   1    286.84     23.86
  -6   4   2    482.09     16.23
  -6   4   3   1182.32     31.03
  -6   4   4    103.03     29.62
  -6   4   5   1164.67     39.91
  -6   4   6   8297.07     41.39
  -6   4   7   1793.32     40.91
  -6   4   8   5678.44     40.33
  -6   4   9   6251.87     49.34
  -6   4  10   9012.23     50.44
  -6   4  11  10257.42    117.20
  -6   4  12   3332.73     54.64
  -6   4  13   4687.00     94.58
  -6   4  14    510.49     34.22
  -6   4  15  10996.14    145.81
  -6   4  16   2319.44     76.68
  -6   4  17   8999.31    140.89
  -6   4  18   3758.08     38.65
  -6   4  19   7637.31    136.53
  -6   4  20   1326.84     36.52
  -6   4  21   5611.43     68.31
  -6   4  22    381.16     39.67
  -6   4  23    837.67     38.82
  -6   4  24    249.84     38.49
  -6   4  25    915.60     41.51
  -6   5   1  12470.09    405.43
  -6   5   2   2035.59    119.36
  -6   5   3  11860.10    373.04
  -6   5   4  11822.71    339.37
  -6   5   5  14234.71     77.92
  -6   5   6   4281.56     40.11
  -6   5   7   6967.37     45.84
  -6   5   8   9169.13     50.94
  -6   5   9   6492.89     62.81
  -6   5  10   2420.69     77.49
  -6   5  11   2233.19     42.22
  -6   5  12   1210.70     41.51
  -6   5  13    101.30     42.51
  -6   5  14   6882.40     98.19
  -6   5  15  10502.15    162.18
  -6   5  16   6729.86    123.34
  -6   5  17   3649.39     53.57
  -6   5  18    571.44     33.42
  -6   5  19   2713.80     60.77
  -6   5  20   2244.14     68.17
  -6   5  21     48.76     52.47
  -6   5  22    163.30     40.95
  -6   5  23    102.62     41.83
  -6   5  24   1205.37     45.68
  -6   6   1   4024.00    120.99
  -6   6   2  12329.40    103.64
  -6   6   3     38.22     25.31
  -6   6   4   6287.58    201.40
  -6   6   5  11660.65     56.00
  -6   6   6   6737.40     49.53
  -6   6   7   1006.45     38.18
  -6   6   8  14291.76    135.35
  -6   6   9  11834.40     60.90
  -6   6  10  15157.43     71.14
  -6   6  11   1833.02     44.64
  -6   6  12   1829.67     45.68
  -6   6  13   1761.92     47.25
  -6   6  14   2211.88     49.83
  -6   6  15    615.35     46.75
  -6   6  16     52.62     46.32
  -6   6  17   4543.43     60.10
  -6   6  18    938.46    119.05
  -6   6  19    420.99     64.46
  -6   6  20    244.36     44.18
  -6   6  21     85.54     45.18
  -6   6  22    506.34     47.91
  -6   6  23    702.79     68.56
  -6   7   1   2439.80     78.40
  -6   7   2   2477.28     95.71
  -6   7   3    368.44     48.88
  -6   7   4    231.12     26.64
  -6   7   5    749.08     39.91
  -6   7   6   1177.98     45.69
  -6   7   7   4734.85     51.30
  -6   7   8  14292.66     68.06
  -6   7   9   4896.95     77.85
  -6   7  10   5183.38     54.54
  -6   7  11    941.26     46.12
  -6   7  12   2510.78     50.95
  -6   7  13   2756.89     52.16
  -6   7  14   2647.33     68.21
  -6   7  15   1513.23     61.43
  -6   7  16    748.68     51.01
  -6   7  17   5112.13     81.62
  -6   7  18   5869.15     65.78
  -6   7  19   1594.72     57.44
  -6   7  20   1646.25     59.27
  -6   7  21    522.89     56.03
  -6   7  22    202.80     88.12
  -6   8   1  11649.01     77.01
  -6   8   2   9400.52     70.18
  -6   8   3  11739.76     90.85
  -6   8   4   3914.56    164.64
  -6   8   5   1483.48    107.22
  -6   8   6   3485.67     75.61
  -6   8   7  11422.74     67.44
  -6   8   8    730.00     46.04
  -6   8   9    326.30     45.45
  -6   8  10    161.35     81.60
  -6   8  11   1861.06     51.39
  -6   8  12    664.04     63.03
  -6   8  13     26.82     66.39
  -6   8  14   4196.02     95.96
  -6   8  15     34.15     50.63
  -6   8  16    635.46     53.33
  -6   8  17    230.96     67.32
  -6   8  18    849.65     96.84
  -6   8  19    858.36     68.00
  -6   8  20   2359.29     62.18
  -6   8  21    249.05     71.41
  -6   9   1  14281.61    209.10
  -6   9   2   4200.09    185.03
  -6   9   3   9714.64    398.64
  -6   9   4  12379.04    234.70
  -6   9   5   3036.13    158.92
  -6   9   6   9800.26     68.39
  -6   9   7    291.14     47.29
  -6   9   8   1859.76     53.47
  -6   9   9   1362.10     51.83
  -6   9  10    846.42     65.87
  -6   9  11   2548.36     56.52
  -6   9  12    866.81     53.06
  -6   9  13    722.16     52.92
  -6   9  14    718.85     60.65
  -6   9  15    242.67     94.57
  -6   9  16    307.02     69.55
  -6   9  17   1110.49     57.60
  -6   9  18    126.93     68.81
  -6   9  19     63.34     55.81
  -6  10   1    410.29    110.37
  -6  10   2     46.94     48.50
  -6  10   3   1342.10     71.87
  -6  10   4    925.66    112.53
  -6  10   5    421.86     61.39
  -6  10   6   1967.12     64.56
  -6  10   7    726.78     51.43
  -6  10   8   1675.92     54.75
  -6  10   9   1114.55     93.22
  -6  10  10   3901.62     92.65
  -6  10  11   3895.77     63.27
  -6  10  12   1772.21     75.09
  -6  10  13    830.47     57.97
  -6  10  14    979.58     89.97
  -6  10  15   1138.96     58.80
  -6  10  16    295.38     68.34
  -6  10  17    727.25     58.64
  -6  11   1    324.26     53.19
  -6  11   2    400.68     53.11
  -6  11   3    960.63     74.64
  -6  11   4    161.78     51.84
  -6  11   5   1802.00     75.79
  -6  11   6    362.13     53.01
  -6  11   7    568.86     54.15
  -6  11   8    861.81     55.43
  -6  11   9   1837.25     58.62
  -6  11  10    965.60     57.14
  -6  11  11   2429.37     62.33
  -6  11  12   1118.58     58.56
  -6  11  13    251.63     57.42
  -6  11  14      0.00     57.28
  -6  11  15    240.11     57.92
  -6  12   1     63.56    171.93
  -6  12   2   1233.83     90.06
  -6  12   3      4.40     55.72
  -6  12   4   2204.34    115.68
  -6  12   5    563.49     69.34
  -6  12   6    139.16     55.21
  -6  12   7   2025.76     61.27
  -6  12   8   2863.79     64.41
  -6  12   9    458.87     57.64
  -6  12  10    629.86     59.28
  -6  12  11    338.25     58.66
  -6  13   1   1093.71     77.42
  -6  13   2    351.12     72.12
  -6  13   3    256.30     59.39
  -6  13   4    474.17    112.30
  -6  13   5    469.96    113.17
  -5 -13  -5    249.27     41.57
  -5 -13  -4    555.78     39.75
  -5 -13  -3     51.98     55.27
  -5 -13  -2    341.09     56.07
  -5 -13  -1    578.87    112.69
  -5 -13   0   1043.29    114.54
  -5 -12 -10   2715.58     41.60
  -5 -12  -9   1543.40     45.21
  -5 -12  -8    387.68     36.36
  -5 -12  -7    363.92     36.20
  -5 -12  -6   3504.38     45.57
  -5 -12  -5    505.43     35.86
  -5 -12  -4     83.51     40.14
  -5 -12  -3    933.48     37.82
  -5 -12  -2     61.76     47.05
  -5 -12  -1    334.84     58.69
  -5 -12   0   2338.58     65.03
  -5 -11 -14     52.14     36.66
  -5 -11 -13    425.52     41.07
  -5 -11 -12    203.26     38.18
  -5 -11 -11    156.97     37.20
  -5 -11 -10    313.61     35.33
  -5 -11  -9   1323.98     40.82
  -5 -11  -8     68.33     33.89
  -5 -11  -7   1380.53     35.67
  -5 -11  -6   3197.78     61.69
  -5 -11  -5    373.73     35.92
  -5 -11  -4   1307.84     34.71
  -5 -11  -3   4630.98     70.24
  -5 -11  -2     97.41     48.43
  -5 -11  -1    884.85     73.14
  -5 -11   0   1605.31     60.79
  -5 -10 -16    654.84     48.77
  -5 -10 -15    507.90     41.47
  -5 -10 -14   1490.47     45.17
  -5 -10 -13   5011.34     48.95
  -5 -10 -12   1838.26     41.81
  -5 -10 -11    513.61     36.27
  -5 -10 -10    661.35     34.22
  -5 -10  -9   3725.42     39.70
  -5 -10  -8   1659.80     34.59
  -5 -10  -7   1425.78     33.83
  -5 -10  -6   2079.60     49.91
  -5 -10  -5   1684.70     39.21
  -5 -10  -4    387.70     32.84
  -5 -10  -3   5911.53     97.57
  -5 -10  -2      0.00     50.38
  -5 -10  -1    785.49     51.40
  -5 -10   0    210.16     61.30
  -5  -9 -18    575.73     49.51
  -5  -9 -17    333.03     40.70
  -5  -9 -16    135.99     46.13
  -5  -9 -15   3985.79     46.88
  -5  -9 -14   1555.29     38.23
  -5  -9 -13   5445.16     77.89
  -5  -9 -12    662.97     37.95
  -5  -9 -11   1766.23     34.30
  -5  -9 -10   3595.41     58.32
  -5  -9  -9   1113.42     32.28
  -5  -9  -8    731.62     31.06
  -5  -9  -7     72.41     29.41
  -5  -9  -6   5440.36     48.51
  -5  -9  -5      0.00     28.61
  -5  -9  -4   3831.20     36.00
  -5  -9  -3   5792.95     94.85
  -5  -9  -2   6519.48     65.34
  -5  -9  -1   1482.32     99.14
  -5  -9   0   5643.49     72.78
  -5  -8 -20   1855.34     41.59
  -5  -8 -19   1356.65     37.96
  -5  -8 -18   1892.62     59.83
  -5  -8 -17    827.56     35.79
  -5  -8 -16   2988.79     39.79
  -5  -8 -15     63.09     49.11
  -5  -8 -14   1010.14     33.41
  -5  -8 -13   1479.76     33.51
  -5  -8 -12   2124.14     40.58
  -5  -8 -11   2089.77     32.99
  -5  -8 -10   4773.20     49.69
  -5  -8  -9   2673.90     37.47
  -5  -8  -8   1187.36     29.54
  -5  -8  -7   1992.03     31.87
  -5  -8  -6     45.10     26.71
  -5  -8  -5   3282.35     49.17
  -5  -8  -4    395.30     28.28
  -5  -8  -3   8567.65     97.91
  -5  -8  -2   4244.32     71.14
  -5  -8  -1   8448.37    114.07
  -5  -8   0    335.17     99.98
  -5  -7 -21   1031.12     47.35
  -5  -7 -20   2077.17     47.69
  -5  -7 -19   1783.69     49.72
  -5  -7 -18    120.77     34.26
  -5  -7 -17    803.17     34.41
  -5  -7 -16   2397.81     41.09
  -5  -7 -15   3972.14     36.92
  -5  -7 -14   4163.79     53.23
  -5  -7 -13   6156.76     49.50
  -5  -7 -12    246.72     29.47
  -5  -7 -11   3114.11     48.02
  -5  -7 -10   4429.49     47.42
  -5  -7  -9    232.20     28.58
  -5  -7  -8   2333.30     30.92
  -5  -7  -7   8063.25     55.82
  -5  -7  -6   4294.56     29.74
  -5  -7  -5   5461.82     31.90
  -5  -7  -4   7985.77     49.79
  -5  -7  -3   4295.82     39.23
  -5  -7  -2    253.15     26.79
  -5  -7  -1     78.82     32.13
  -5  -7   0  10707.28    200.20
  -5  -6 -22   1325.69     58.59
  -5  -6 -21      0.00     67.68
  -5  -6 -20    622.88     44.41
  -5  -6 -19    117.80     55.69
  -5  -6 -18   1214.90     53.39
  -5  -6 -17   3510.62     97.67
  -5  -6 -16     86.11     39.43
  -5  -6 -15   2382.49     49.97
  -5  -6 -14    477.39     37.36
  -5  -6 -13   1407.66     34.09
  -5  -6 -12  10974.59     77.68
  -5  -6 -11   1132.75     29.54
  -5  -6 -10   3885.15     30.24
  -5  -6  -9   5219.31     39.27
  -5  -6  -8  17584.51    134.53
  -5  -6  -7  16225.91    127.81
  -5  -6  -6  23349.00    179.04
  -5  -6  -5   1242.52     26.24
  -5  -6  -4   8207.47     43.11
  -5  -6  -3   1582.99     23.01
  -5  -6  -2   1312.98     25.12
  -5  -6  -1   2049.42     45.27
  -5  -6   0   4783.38     87.18
  -5  -5 -23   1627.50     73.49
  -5  -5 -22    523.49     56.20
  -5  -5 -21    933.98     45.08
  -5  -5 -20   1789.45     58.44
  -5  -5 -19   1492.79     54.27
  -5  -5 -18   1673.25     61.69
  -5  -5 -17    556.49     39.38
  -5  -5 -16   2417.21     50.79
  -5  -5 -15   4506.86     72.18
  -5  -5 -14   4004.23     43.78
  -5  -5 -13   5089.77     56.51
  -5  -5 -12    696.00     33.11
  -5  -5 -11    428.56     31.12
  -5  -5 -10   7300.67     60.07
  -5  -5  -9   7292.96     30.96
  -5  -5  -8   5520.03     41.61
  -5  -5  -7  14502.33     80.66
  -5  -5  -6  18505.84    136.17
  -5  -5  -5   7247.17     40.92
  -5  -5  -4  13693.86     68.63
  -5  -5  -3  10260.90     67.54
  -5  -5  -2   4464.47     24.17
  -5  -5  -1   8706.79     84.13
  -5  -5   0   9220.57     81.93
  -5  -4 -24    183.86     48.10
  -5  -4 -23   2926.82     71.29
  -5  -4 -22   4895.03     78.13
  -5  -4 -21   1807.58     45.63
  -5  -4 -20   2785.73     66.74
  -5  -4 -19    822.32     41.86
  -5  -4 -18    831.25     40.01
  -5  -4 -17   5749.91     87.07
  -5  -4 -16   5740.06     89.88
  -5  -4 -15   9925.57     78.75
  -5  -4 -14  13531.37    109.01
  -5  -4 -13  15177.26    162.25
  -5  -4 -12   1570.63     32.99
  -5  -4 -11   1259.27     30.63
  -5  -4 -10   7562.47     49.36
  -5  -4  -9   3892.87     31.63
  -5  -4  -8  40246.22    276.28
  -5  -4  -7   4224.66     36.55
  -5  -4  -6   9636.40     39.92
  -5  -4  -5   2321.58     19.47
  -5  -4  -4   3015.84     20.22
  -5  -4  -3   3380.33     23.20
  -5  -4  -2  14469.08    114.07
  -5  -4  -1   3531.08     20.77
  -5  -4   0  32809.66    198.62
  -5  -3 -24    319.59     45.65
  -5  -3 -23   3482.28     80.66
  -5  -3 -22    975.13     44.60
  -5  -3 -21   1781.64     46.42
  -5  -3 -20   1403.84     42.63
  -5  -3 -19    267.04     40.13
  -5  -3 -18   2443.93     41.93
  -5  -3 -17    583.90     37.59
  -5  -3 -16   7940.84     80.09
  -5  -3 -15   2409.45     47.47
  -5  -3 -14   2764.57     45.36
  -5  -3 -13   2862.94     35.09
  -5  -3 -12  12884.02    175.37
  -5  -3 -11   1113.63     28.99
  -5  -3 -10   6723.83     34.86
  -5  -3  -9   1216.62     29.19
  -5  -3  -8   2149.60     28.12
  -5  -3  -7   4004.68     26.53
  -5  -3  -6  16100.44    123.92
  -5  -3  -5  20273.97    173.32
  -5  -3  -4   1169.25     15.93
  -5  -3  -3  90613.23    592.43
  -5  -3  -2   3193.17     23.76
  -5  -3  -1  19850.43    102.32
  -5  -3   0  29243.32    144.62
  -5  -2 -25    409.35     46.49
  -5  -2 -24    707.99     46.15
  -5  -2 -23   1376.64     45.85
  -5  -2 -22   2403.87     73.07
  -5  -2 -21   2435.51     72.24
  -5  -2 -20   1593.57     42.49
  -5  -2 -19    224.59     50.57
  -5  -2 -18    951.31     38.86
  -5  -2 -17   9794.73     94.06
  -5  -2 -16  22912.50    191.85
  -5  -2 -15   3027.02     54.22
  -5  -2 -14  14189.38    145.04
  -5  -2 -13    974.26     30.92
  -5  -2 -12    727.22     28.89
  -5  -2 -11   1542.35     29.01
  -5  -2 -10  33793.64    194.60
  -5  -2  -9   5676.98     39.23
  -5  -2  -8  10285.12    122.09
  -5  -2  -7  10059.32     89.60
  -5  -2  -6    986.56     19.27
  -5  -2  -5  33245.08    182.14
  -5  -2  -4  21809.80    152.91
  -5  -2  -3  26065.31    197.37
  -5  -2  -2  16533.63     86.57
  -5  -2  -1   2177.23     13.63
  -5  -2   0  53186.31    212.89
  -5  -1 -25   2900.42     60.97
  -5  -1 -24      7.33     62.79
  -5  -1 -23   3118.10     67.53
  -5  -1 -22   1689.68     49.63
  -5  -1 -21   4070.32     92.12
  -5  -1 -20    592.58     49.77
  -5  -1 -19   8253.02    199.48
  -5  -1 -18   1174.26     42.42
  -5  -1 -17   4829.39     78.54
  -5  -1 -16   3155.21     48.00
  -5  -1 -15   8559.75     84.17
  -5  -1 -14    431.99     31.41
  -5  -1 -13  11224.96    123.37
  -5  -1 -12  12534.03    164.99
  -5  -1 -11     26.30     25.52
  -5  -1 -10  10148.67     99.87
  -5  -1  -9  19583.75    138.04
  -5  -1  -8  35459.04    282.33
  -5  -1  -7   2409.41     31.71
  -5  -1  -6  13753.69     84.53
  -5  -1  -5   9769.48     85.52
  -5  -1  -4   4806.17     33.66
  -5  -1  -3  27030.55    157.01
  -5  -1  -2  66462.32    507.86
  -5  -1  -1  53634.47    575.96
  -5  -1   0   2933.68     34.96
  -5   0   1  30300.95    231.58
  -5   0   2   3393.32     88.08
  -5   0   3  49248.10    308.56
  -5   0   4  72354.86    407.48
  -5   0   5   2492.88     16.21
  -5   0   6  31965.30    240.93
  -5   0   7  28217.59    237.68
  -5   0   8  66712.80    323.69
  -5   0   9   2325.15     25.74
  -5   0  10  22414.76    136.20
  -5   0  11   1134.38     21.83
  -5   0  12   4106.79     37.92
  -5   0  13   2596.18     37.62
  -5   0  14   4437.50     54.15
  -5   0  15  13784.49    115.51
  -5   0  16  19242.56     75.37
  -5   0  17    412.82     28.95
  -5   0  18   2807.11     38.76
  -5   0  19   1630.03     36.99
  -5   0  20    829.97     36.72
  -5   0  21   3766.70     64.80
  -5   0  22    472.50     35.64
  -5   0  23    140.26     44.61
  -5   0  24   6104.49     53.24
  -5   0  25      0.00     39.12
  -5   0  26    295.22     40.06
  -5   0  27   2793.85     52.95
  -5   1   1  74112.90    376.02
  -5   1   2  34247.76    269.30
  -5   1   3  27550.46    172.88
  -5   1   4  41104.19    456.22
  -5   1   5  12430.30    167.09
  -5   1   6   5922.37     64.90
  -5   1   7   1559.83     23.78
  -5   1   8  21056.79    196.03
  -5   1   9   8204.84     84.40
  -5   1  10  35630.96    492.86
  -5   1  11  18453.57    217.58
  -5   1  12   6340.16     86.82
  -5   1  13   8378.93     86.79
  -5   1  14   5785.67     50.53
  -5   1  15   2677.07     53.37
  -5   1  16     99.10     29.35
  -5   1  17   8046.60    123.58
  -5   1  18   2081.87     47.33
  -5   1  19   5368.84     43.77
  -5   1  20   1106.55     34.51
  -5   1  21    362.16     34.36
  -5   1  22    728.54     36.48
  -5   1  23   4759.33     84.97
  -5   1  24   1459.02     44.87
  -5   1  25   1865.74     46.38
  -5   1  26    593.36     40.99
  -5   2   1  56492.70    784.93
  -5   2   2  12463.76    178.65
  -5   2   3  72914.55    711.12
  -5   2   4  35686.22    242.18
  -5   2   5   3261.86     23.60
  -5   2   6  68696.74    852.32
  -5   2   7  16926.58    206.71
  -5   2   8   8785.30     76.77
  -5   2   9    497.37     23.87
  -5   2  10   4437.94     60.29
  -5   2  11   9236.53    102.68
  -5   2  12   3131.12     52.84
  -5   2  13   8156.49     88.36
  -5   2  14   7771.48    118.45
  -5   2  15  12275.77    132.87
  -5   2  16  13008.99    149.93
  -5   2  17  10177.91     73.73
  -5   2  18  11321.58    107.41
  -5   2  19   4272.46     38.82
  -5   2  20   5297.60     45.84
  -5   2  21   1376.69     44.61
  -5   2  22   1680.07     38.65
  -5   2  23    303.57     37.28
  -5   2  24   1280.99     40.65
  -5   2  25    515.31     40.11
  -5   2  26     54.23     41.74
  -5   3   1  32394.29    734.24
  -5   3   2  60665.33   1547.68
  -5   3   3  40819.62    706.64
  -5   3   4  15679.41    118.93
  -5   3   5  13488.88    100.23
  -5   3   6  28426.35    255.02
  -5   3   7  11331.30     43.29
  -5   3   8  41295.11    390.39
  -5   3   9   3745.22     68.52
  -5   3  10  38410.24    312.79
  -5   3  11   9250.86    121.13
  -5   3  12  21055.58    163.92
  -5   3  13    762.36     26.97
  -5   3  14   2839.80     32.76
  -5   3  15   2609.79     37.19
  -5   3  16   1147.16     30.36
  -5   3  17  24808.85    310.03
  -5   3  18   3822.35     37.53
  -5   3  19    529.80     33.57
  -5   3  20    109.13     33.86
  -5   3  21      9.07     35.00
  -5   3  22   1122.16     38.25
  -5   3  23   5204.85     67.61
  -5   3  24   2051.30     46.03
  -5   3  25   1133.26     41.68
  -5   3  26   2600.37     66.28
  -5   4   1   4349.08    102.24
  -5   4   2   7168.59    259.68
  -5   4   3  29945.90    694.32
  -5   4   4  12894.34     95.70
  -5   4   5   9654.36     48.78
  -5   4   6  10443.81     44.58
  -5   4   7  17706.69    149.50
  -5   4   8   2688.02     35.19
  -5   4   9    441.78     32.78
  -5   4  10  10884.67    140.57
  -5   4  11   9142.67    103.39
  -5   4  12    812.84     30.54
  -5   4  13    222.37     25.70
  -5   4  14   5637.70     92.39
  -5   4  15   1891.53     31.53
  -5   4  16   1373.26     35.24
  -5   4  17  10649.20    121.54
  -5   4  18   4059.83     61.92
  -5   4  19   1931.76     83.14
  -5   4  20   5270.11     68.65
  -5   4  21   1020.57     38.07
  -5   4  22    954.82     38.70
  -5   4  23    543.18     38.96
  -5   4  24   1061.52     41.23
  -5   4  25   2115.05     44.50
  -5   5   1   3625.60     63.96
  -5   5   2    842.35     28.39
  -5   5   3   3004.75     70.65
  -5   5   4  15231.80    242.50
  -5   5   5    568.60     31.20
  -5   5   6    840.69     42.99
  -5   5   7   2292.35     37.37
  -5   5   8  14237.06     59.72
  -5   5   9   6411.15     48.02
  -5   5  10  59967.79    411.92
  -5   5  11   4030.94     72.19
  -5   5  12   2346.39     45.05
  -5   5  13   2866.65     62.07
  -5   5  14   6202.18     50.01
  -5   5  15    608.03     30.99
  -5   5  16   1072.32     35.00
  -5   5  17    925.98     34.13
  -5   5  18   6964.31     91.92
  -5   5  19    904.51     44.16
  -5   5  20   5866.56     65.56
  -5   5  21      0.00     40.38
  -5   5  22     46.91     41.62
  -5   5  23    127.59     44.71
  -5   5  24   1951.51     78.28
  -5   5  25   1139.91     47.54
  -5   6   1   2576.74     66.74
  -5   6   2   4459.79    137.15
  -5   6   3   6271.35    134.34
  -5   6   4     48.01     23.30
  -5   6   5  12267.48     56.24
  -5   6   6   2576.43     41.08
  -5   6   7    393.93     37.26
  -5   6   8  21223.58    107.31
  -5   6   9  15887.27     66.73
  -5   6  10    241.53     40.48
  -5   6  11  11871.45     86.07
  -5   6  12   3736.20     50.19
  -5   6  13   1963.16     53.50
  -5   6  14   2245.95     50.43
  -5   6  15   1278.97     61.85
  -5   6  16   4804.78     59.99
  -5   6  17    444.94     50.84
  -5   6  18   4033.04     66.27
  -5   6  19    227.51     44.44
  -5   6  20    546.98     41.78
  -5   6  21   1342.63     44.36
  -5   6  22    892.32     57.79
  -5   6  23   1280.59     51.94
  -5   6  24    746.43     46.71
  -5   7   1  18607.12    642.85
  -5   7   2    749.76     44.34
  -5   7   3   9390.36    261.38
  -5   7   4   9995.08    275.85
  -5   7   5   2161.32     44.31
  -5   7   6    468.40     40.65
  -5   7   7   2505.60     45.75
  -5   7   8   4811.08     51.96
  -5   7   9   6049.65     55.66
  -5   7  10   9530.27     73.75
  -5   7  11   2948.80     51.16
  -5   7  12    563.62     46.52
  -5   7  13   7692.35     76.62
  -5   7  14   3669.21     67.22
  -5   7  15    216.97     49.12
  -5   7  16    318.35     50.54
  -5   7  17   1860.51     88.01
  -5   7  18    575.36     68.58
  -5   7  19   4215.13     64.27
  -5   7  20    690.39     67.94
  -5   7  21    216.30     66.93
  -5   7  22   1462.89    103.02
  -5   7  23    223.22     72.18
  -5   8   1  45434.40    487.39
  -5   8   2    496.54     89.39
  -5   8   3  10966.18    286.90
  -5   8   4    920.28     37.23
  -5   8   5   2191.71     61.23
  -5   8   6   2210.11     48.53
  -5   8   7   7198.52     62.83
  -5   8   8   2240.42     51.49
  -5   8   9   5106.81     92.89
  -5   8  10    780.64     48.19
  -5   8  11   6107.86     93.93
  -5   8  12   2735.02     68.52
  -5   8  13   9400.61    101.14
  -5   8  14     35.93     49.96
  -5   8  15     55.21     51.58
  -5   8  16   5601.03     79.29
  -5   8  17    693.56     94.86
  -5   8  18   2770.95     62.30
  -5   8  19    986.29     57.60
  -5   8  20    375.39     57.46
  -5   8  21   1618.50     61.38
  -5   9   1   2046.91    120.01
  -5   9   2   8041.09    496.22
  -5   9   3   2165.53    116.33
  -5   9   4   3767.77    134.11
  -5   9   5   7413.26    135.09
  -5   9   6   1381.90     50.25
  -5   9   7    646.85     55.56
  -5   9   8   2889.61     55.25
  -5   9   9   3830.92     58.60
  -5   9  10   1991.34     54.62
  -5   9  11   1008.62     53.32
  -5   9  12    934.62     63.53
  -5   9  13    857.26     54.16
  -5   9  14   2900.54     60.38
  -5   9  15   4000.26     80.17
  -5   9  16   2889.06     63.24
  -5   9  17   6049.15     94.28
  -5   9  18   1248.67     59.65
  -5   9  19    447.54     74.27
  -5   9  20     27.65    102.27
  -5  10   1   1418.92    110.67
  -5  10   2   1315.61     55.04
  -5  10   3   1717.45     86.58
  -5  10   4   3550.04    131.69
  -5  10   5    564.95     50.76
  -5  10   6    874.90     52.03
  -5  10   7    944.73     59.43
  -5  10   8    968.32     93.98
  -5  10   9    284.94     52.42
  -5  10  10    126.02     52.84
  -5  10  11    617.74     56.18
  -5  10  12    150.07     74.50
  -5  10  13   2395.77     80.76
  -5  10  14   1314.05     58.69
  -5  10  15   4205.18    104.10
  -5  10  16    391.77     58.05
  -5  10  17    663.52     59.61
  -5  10  18    281.57     75.70
  -5  11   1    585.13     68.21
  -5  11   2   1037.90     87.12
  -5  11   3    100.39     53.06
  -5  11   4   1572.19     68.40
  -5  11   5   6752.60    342.71
  -5  11   6   1770.05     73.72
  -5  11   7     57.18     54.15
  -5  11   8    586.56     55.13
  -5  11   9   3838.39     87.55
  -5  11  10   3240.55     63.80
  -5  11  11   1041.25     58.52
  -5  11  12    771.58     80.15
  -5  11  13   2300.45     75.74
  -5  11  14    858.92     60.54
  -5  11  15   1236.70     94.96
  -5  12   1   1990.25    104.25
  -5  12   2    328.71     57.49
  -5  12   3    194.38     56.46
  -5  12   4    854.65    107.80
  -5  12   5   1109.40    173.67
  -5  12   6   2221.59     61.93
  -5  12   7   1398.87     59.38
  -5  12   8   2470.45     62.84
  -5  12   9    562.30     58.89
  -5  12  10    936.96     63.33
  -5  12  11    207.76     58.48
  -5  12  12     47.17     68.86
  -5  13   1    804.60     62.37
  -5  13   2     48.59    107.86
  -5  13   3   1462.96     63.88
  -5  13   4   1433.96    117.40
  -5  13   5    139.20     72.24
  -5  13   6     50.12     58.42
  -5  13   7    413.51     59.58
  -4 -13  -7    253.42     37.40
  -4 -13  -6   4010.50     45.77
  -4 -13  -5   1341.72     39.26
  -4 -13  -4   4024.26     42.76
  -4 -13  -3   1423.18     59.05
  -4 -13  -2    624.82     57.76
  -4 -13  -1   1998.92     87.31
  -4 -13   0    718.39     99.58
  -4 -12 -11    377.34     36.86
  -4 -12 -10     81.92     36.28
  -4 -12  -9    164.94     36.28
  -4 -12  -8    878.84     50.18
  -4 -12  -7   1957.69     47.70
  -4 -12  -6   1692.15     38.76
  -4 -12  -5    624.18     42.55
  -4 -12  -4   2759.14     46.62
  -4 -12  -3    108.06     49.90
  -4 -12  -2    100.99     58.96
  -4 -12  -1    203.77     58.58
  -4 -12   0    611.17     59.91
  -4 -11 -14   1091.15     40.03
  -4 -11 -13    503.98     36.76
  -4 -11 -12    407.07     38.11
  -4 -11 -11   1125.42     36.56
  -4 -11 -10    888.64     35.81
  -4 -11  -9   2662.21     38.06
  -4 -11  -8    762.01     34.96
  -4 -11  -7   2637.52     37.17
  -4 -11  -6   3374.79     55.31
  -4 -11  -5   1458.25     37.12
  -4 -11  -4    765.98     33.69
  -4 -11  -3   1054.09     47.17
  -4 -11  -2   1184.32     62.42
  -4 -11  -1    550.69     56.12
  -4 -11   0    666.86     55.68
  -4 -10 -17      0.00     61.68
  -4 -10 -16    237.66     44.83
  -4 -10 -15   4673.86     78.81
  -4 -10 -14    464.77     37.88
  -4 -10 -13   4753.74     77.06
  -4 -10 -12    528.39     34.61
  -4 -10 -11    824.42     34.41
  -4 -10 -10   1452.71     34.82
  -4 -10  -9   2606.18     45.98
  -4 -10  -8   4763.99     59.94
  -4 -10  -7   6187.71     50.38
  -4 -10  -6    876.45     36.37
  -4 -10  -5    530.28     36.94
  -4 -10  -4   3547.66     35.47
  -4 -10  -3   1338.91     31.98
  -4 -10  -2   1205.01    131.84
  -4 -10  -1   4960.94    237.99
  -4 -10   0   1210.74     64.62
  -4  -9 -19   1469.35     66.31
  -4  -9 -18    305.58     44.49
  -4  -9 -17    579.00     40.93
  -4  -9 -16   1389.93     41.60
  -4  -9 -15    267.18     34.49
  -4  -9 -14    521.56     34.31
  -4  -9 -13    154.17     48.58
  -4  -9 -12    862.01     33.20
  -4  -9 -11   1796.02     40.52
  -4  -9 -10   5086.65     41.41
  -4  -9  -9    652.40     35.76
  -4  -9  -8   3622.07     36.88
  -4  -9  -7   6930.31     66.00
  -4  -9  -6   1485.16     30.79
  -4  -9  -5    397.94     30.97
  -4  -9  -4   6694.10     45.08
  -4  -9  -3   1299.17     66.04
  -4  -9  -2   2373.05     53.89
  -4  -9  -1  11845.76    125.85
  -4  -9   0  12969.75    291.65
  -4  -8 -20    844.91     37.61
  -4  -8 -19    513.49     38.63
  -4  -8 -18   1481.28     55.99
  -4  -8 -17   2757.98     38.12
  -4  -8 -16   3508.79     43.42
  -4  -8 -15   2545.00     43.95
  -4  -8 -14   2377.11     51.16
  -4  -8 -13   4275.46     43.77
  -4  -8 -12   2557.96     52.51
  -4  -8 -11   5312.18     52.16
  -4  -8 -10   2752.76     32.60
  -4  -8  -9   3942.59     34.30
  -4  -8  -8    569.27     28.47
  -4  -8  -7   4813.12     47.79
  -4  -8  -6   1586.13     28.62
  -4  -8  -5   5805.21     51.86
  -4  -8  -4    842.36     26.75
  -4  -8  -3   1477.98     32.44
  -4  -8  -2   1852.85     46.41
  -4  -8  -1  13401.70     83.99
  -4  -8   0  15013.58    223.00
  -4  -7 -22   1025.90     47.41
  -4  -7 -21   1055.26     46.50
  -4  -7 -20    198.10     47.68
  -4  -7 -19      6.93     42.87
  -4  -7 -18    709.58     34.47
  -4  -7 -17   2164.62     39.57
  -4  -7 -16   4183.89     39.99
  -4  -7 -15   1152.87     36.05
  -4  -7 -14   4559.22     63.57
  -4  -7 -13   1421.98     33.32
  -4  -7 -12    132.84     28.90
  -4  -7 -11   6042.00    142.37
  -4  -7 -10   8807.91     73.33
  -4  -7  -9   2637.72     29.61
  -4  -7  -8   1999.62     32.83
  -4  -7  -7   4446.67     30.45
  -4  -7  -6  27947.00    215.11
  -4  -7  -5   3349.61     35.24
  -4  -7  -4  16906.21     91.20
  -4  -7  -3  34409.16    284.56
  -4  -7  -2   1965.50     30.88
  -4  -7  -1  15225.81    238.96
  -4  -7   0   1665.49     79.40
  -4  -6 -23    658.93     92.77
  -4  -6 -22     88.94     55.53
  -4  -6 -21   1322.49     65.05
  -4  -6 -20    658.58     48.40
  -4  -6 -19    577.62     42.63
  -4  -6 -18   2927.41    148.75
  -4  -6 -17    667.96     44.81
  -4  -6 -16   2282.02     42.08
  -4  -6 -15    537.80     38.81
  -4  -6 -14   1763.14     38.92
  -4  -6 -13   1365.79     45.50
  -4  -6 -12   6052.11     48.86
  -4  -6 -11   2020.35     28.45
  -4  -6 -10    738.40     29.39
  -4  -6  -9     67.62     24.36
  -4  -6  -8  16542.98    140.84
  -4  -6  -7   1425.99     24.35
  -4  -6  -6   5743.92     65.39
  -4  -6  -5    318.58     31.54
  -4  -6  -4   3343.68     24.67
  -4  -6  -3  13380.76     71.37
  -4  -6  -2   2643.37     31.97
  -4  -6  -1  13621.76     92.39
  -4  -6   0    775.98     64.76
  -4  -5 -24   1640.66     79.11
  -4  -5 -23    311.28     81.57
  -4  -5 -22    998.50     56.31
  -4  -5 -21   1265.71     60.58
  -4  -5 -20    690.79     42.76
  -4  -5 -19   5260.54    128.84
  -4  -5 -18   3254.79     57.31
  -4  -5 -17   4337.61     44.94
  -4  -5 -16    985.08     47.43
  -4  -5 -15   2208.70     42.32
  -4  -5 -14   4481.94     41.13
  -4  -5 -13   2375.52     36.61
  -4  -5 -12   5522.14     71.09
  -4  -5 -11    835.72     31.59
  -4  -5 -10  12729.37     99.72
  -4  -5  -9  21197.16    115.10
  -4  -5  -8   2743.78     27.13
  -4  -5  -7  22983.45    107.12
  -4  -5  -6  23231.64    123.57
  -4  -5  -5   5614.68     34.26
  -4  -5  -4   1912.36     21.97
  -4  -5  -3  24356.67    119.55
  -4  -5  -2   2235.60     23.19
  -4  -5  -1    598.00     24.32
  -4  -5   0  11902.53    140.08
  -4  -4 -24    613.39     46.32
  -4  -4 -23    448.30     45.14
  -4  -4 -22   1579.24     45.61
  -4  -4 -21   1767.08     55.63
  -4  -4 -20   3214.52    156.93
  -4  -4 -19   5171.24     69.77
  -4  -4 -18    648.34     39.26
  -4  -4 -17    965.15     47.85
  -4  -4 -16    767.98     45.83
  -4  -4 -15   8566.33     67.43
  -4  -4 -14   6999.52    112.14
  -4  -4 -13  28177.83    145.78
  -4  -4 -12   8198.66     40.96
  -4  -4 -11   5835.61     36.37
  -4  -4 -10   4863.37     37.89
  -4  -4  -9   2151.37     42.75
  -4  -4  -8  13806.51     50.64
  -4  -4  -7  13835.33     51.28
  -4  -4  -6  15612.57     98.49
  -4  -4  -5  32292.46    161.68
  -4  -4  -4  36416.45    228.50
  -4  -4  -3  19012.32     90.38
  -4  -4  -2  21279.56    128.27
  -4  -4  -1  63124.90    391.94
  -4  -4   0  23904.41    148.13
  -4  -3 -25    900.40     51.84
  -4  -3 -24   4028.93     91.42
  -4  -3 -23    983.12     45.58
  -4  -3 -22   3960.10     53.08
  -4  -3 -21   1224.62     43.41
  -4  -3 -20    921.64     41.23
  -4  -3 -19   2685.22     46.56
  -4  -3 -18    214.54     40.01
  -4  -3 -17   3797.46     47.00
  -4  -3 -16   2740.61     38.89
  -4  -3 -15    900.53     42.95
  -4  -3 -14   3248.39     48.26
  -4  -3 -13   4005.09     54.14
  -4  -3 -12   6773.51     37.60
  -4  -3 -11  10446.37     63.56
  -4  -3 -10  23442.44    149.29
  -4  -3  -9   1795.37     26.33
  -4  -3  -8  11908.36     79.51
  -4  -3  -7    565.58     21.44
  -4  -3  -6   4533.37     40.93
  -4  -3  -5  10742.04     48.32
  -4  -3  -4  15529.62    101.16
  -4  -3  -3   8664.88     54.08
  -4  -3  -2   5473.73     23.68
  -4  -3  -1  36521.62    183.54
  -4  -3   0  12771.82     68.61
  -4  -2 -25    193.13     45.50
  -4  -2 -24    934.06     45.63
  -4  -2 -23   2449.50     47.20
  -4  -2 -22    441.23     42.96
  -4  -2 -21    457.46     41.47
  -4  -2 -20   5295.97     78.77
  -4  -2 -19   3939.10     51.61
  -4  -2 -18    882.21     38.18
  -4  -2 -17   4564.66     66.46
  -4  -2 -16   4579.23     40.69
  -4  -2 -15   1599.62     39.83
  -4  -2 -14  14858.05    113.86
  -4  -2 -13   3517.29     54.58
  -4  -2 -12   5736.48     82.96
  -4  -2 -11   7052.93     38.55
  -4  -2 -10   7703.78     44.05
  -4  -2  -9  19184.76    110.16
  -4  -2  -8  10205.58     88.78
  -4  -2  -7  40836.29    317.04
  -4  -2  -6  37672.75    367.55
  -4  -2  -5  55658.55    448.70
  -4  -2  -4  17579.91    231.93
  -4  -2  -3  12413.71     90.86
  -4  -2  -2    142.66     10.04
  -4  -2  -1  30179.21    195.74
  -4  -2   0  435554.8   1922.05
  -4  -1 -25    410.35     50.13
  -4  -1 -24    697.71     44.99
  -4  -1 -23   1691.22     50.29
  -4  -1 -22    913.12     47.46
  -4  -1 -21   1345.41     52.18
  -4  -1 -20   2683.90     73.88
  -4  -1 -19    553.75     48.84
  -4  -1 -18   1298.88     53.13
  -4  -1 -17  11729.08     96.55
  -4  -1 -16   1643.80     38.54
  -4  -1 -15  11267.64    120.46
  -4  -1 -14  12240.04    126.11
  -4  -1 -13   2382.17     38.53
  -4  -1 -12   7152.16     40.88
  -4  -1 -11   8077.59     66.53
  -4  -1 -10   2678.32     34.96
  -4  -1  -9    198.16     21.77
  -4  -1  -8  84314.69    911.96
  -4  -1  -7  12941.54     97.06
  -4  -1  -6  108578.9    919.25
  -4  -1  -5  21842.68    143.83
  -4  -1  -4   2095.07     24.54
  -4  -1  -3  54354.51    514.57
  -4  -1  -2  14692.05    110.36
  -4  -1  -1  15371.53    128.36
  -4  -1   0  35240.18    127.51
  -4   0   1  38061.83    738.50
  -4   0   2    737.84      8.73
  -4   0   3  91728.52    786.55
  -4   0   4  88607.76    360.58
  -4   0   5  34509.35    275.31
  -4   0   6    696.71     11.96
  -4   0   7  82115.04    789.53
  -4   0   8   6428.34     43.82
  -4   0   9  40703.39    202.13
  -4   0  10  71700.75    390.75
  -4   0  11   3176.67     28.33
  -4   0  12     56.40     20.59
  -4   0  13   5154.84     52.62
  -4   0  14  38998.60    235.41
  -4   0  15    358.59     28.20
  -4   0  16  16169.86    121.96
  -4   0  17   5923.56     54.93
  -4   0  18      6.14     37.17
  -4   0  19   2523.40     56.06
  -4   0  20   3934.34    101.96
  -4   0  21     43.31     47.00
  -4   0  22     50.77     43.23
  -4   0  23    789.14     46.69
  -4   0  24    669.88     51.18
  -4   0  25   5241.76    149.46
  -4   0  26    102.16     48.91
  -4   0  27    795.00     51.99
  -4   1   1  53029.10    424.41
  -4   1   2  13094.66    117.52
  -4   1   3  46821.99    274.34
  -4   1   4  55474.51    437.04
  -4   1   5   1721.83     26.33
  -4   1   6  26386.05    279.67
  -4   1   7  29279.54    220.06
  -4   1   8   9429.21    120.24
  -4   1   9  36703.82    220.86
  -4   1  10  12182.52    142.12
  -4   1  11   7303.32     53.53
  -4   1  12   6139.38     53.17
  -4   1  13   7604.44     65.54
  -4   1  14   7714.36     82.58
  -4   1  15   1559.42     38.69
  -4   1  16    960.93     33.84
  -4   1  17   1322.86     31.22
  -4   1  18   9640.03     62.67
  -4   1  19   2100.00     35.58
  -4   1  20   1119.85     35.31
  -4   1  21    997.00     39.43
  -4   1  22   1163.45     41.60
  -4   1  23   3836.48     71.81
  -4   1  24   1664.95     50.77
  -4   1  25   2799.64    109.57
  -4   1  26   3028.98    107.62
  -4   1  27   1660.55     74.78
  -4   2   1  369418.1   4130.81
  -4   2   2  146180.1   1581.12
  -4   2   3  43244.38    246.75
  -4   2   4  28774.36    213.84
  -4   2   5   6344.68     70.21
  -4   2   6  35961.45    635.37
  -4   2   7   5377.69     59.88
  -4   2   8   9976.08    120.23
  -4   2   9  20101.67    133.36
  -4   2  10  20062.99    150.63
  -4   2  11   2626.20     32.65
  -4   2  12   4700.02     58.64
  -4   2  13   7753.01     60.89
  -4   2  14   3110.13     42.39
  -4   2  15   9071.51    103.73
  -4   2  16   1480.82     30.58
  -4   2  17   4702.11     36.98
  -4   2  18    201.21     31.31
  -4   2  19   2008.90     36.00
  -4   2  20   2896.22     53.53
  -4   2  21    625.73     35.89
  -4   2  22   7393.15     73.87
  -4   2  23    654.97     38.96
  -4   2  24    759.23     40.43
  -4   2  25   1354.20     46.66
  -4   2  26    121.83     40.97
  -4   3   1   5999.48    103.13
  -4   3   2   2496.97     56.44
  -4   3   3   1362.88     16.49
  -4   3   4  16362.63    125.17
  -4   3   5  17489.88    134.31
  -4   3   6  20134.76    217.66
  -4   3   7  20765.24    128.72
  -4   3   8   1865.62     40.04
  -4   3   9  52393.82    538.16
  -4   3  10    763.84     21.67
  -4   3  11  10512.50    116.59
  -4   3  12   3530.62     70.36
  -4   3  13  21615.04    203.50
  -4   3  14   8727.65     75.21
  -4   3  15  10701.86    127.24
  -4   3  16  15424.41     82.36
  -4   3  17   3259.73     42.46
  -4   3  18   6251.17     77.45
  -4   3  19  12410.72     89.47
  -4   3  20   1493.17     37.20
  -4   3  21   1841.88     39.09
  -4   3  22   1680.24     40.15
  -4   3  23    817.94     39.56
  -4   3  24     64.84     39.44
  -4   3  25    651.35     54.69
  -4   3  26      0.00     44.85
  -4   4   1  106832.0   2031.50
  -4   4   2  36837.31    658.45
  -4   4   3  32993.35    572.85
  -4   4   4  18575.71    138.40
  -4   4   5  20532.75    150.75
  -4   4   6   4791.38     36.59
  -4   4   7  18084.58    231.75
  -4   4   8   5178.72     50.26
  -4   4   9   6521.40     69.83
  -4   4  10   6056.36     67.91
  -4   4  11    157.37     23.70
  -4   4  12    287.54     25.33
  -4   4  13    638.59     29.58
  -4   4  14   4711.97     68.12
  -4   4  15   4231.13     56.87
  -4   4  16   1088.32     37.70
  -4   4  17   8914.64     61.98
  -4   4  18    603.52     47.21
  -4   4  19   5673.51    132.25
  -4   4  20   1364.32     53.52
  -4   4  21     91.65     40.95
  -4   4  22    797.44     55.53
  -4   4  23   3056.20     71.53
  -4   4  24    620.24     44.78
  -4   4  25    802.28     42.93
  -4   4  26    326.72     42.59
  -4   5   1   1981.78     63.46
  -4   5   2   5279.49     93.32
  -4   5   3   3114.75     60.83
  -4   5   4  16340.20    233.64
  -4   5   5   1689.48     57.60
  -4   5   6   5347.42     66.98
  -4   5   7  15017.80    174.37
  -4   5   8  24400.89    178.08
  -4   5   9  10272.27    156.84
  -4   5  10  15002.05     62.65
  -4   5  11   5404.55     84.36
  -4   5  12    653.76     27.92
  -4   5  13   5171.53     44.20
  -4   5  14   4290.18     61.52
  -4   5  15   3546.03     58.15
  -4   5  16   1972.34     35.54
  -4   5  17   1341.42     43.55
  -4   5  18   1848.47     41.16
  -4   5  19    498.63     54.00
  -4   5  20   3072.30     46.76
  -4   5  21   1683.27     44.39
  -4   5  22    406.82     43.11
  -4   5  23    814.41     48.85
  -4   5  24   1547.46     43.65
  -4   5  25     91.94     41.71
  -4   6   1   7033.06    233.37
  -4   6   2   1444.95     44.61
  -4   6   3   6477.16    127.40
  -4   6   4   8099.15    180.48
  -4   6   5  15962.77     96.87
  -4   6   6   9325.73     90.68
  -4   6   7   3585.17     93.74
  -4   6   8   5152.40     48.65
  -4   6   9  24560.62    113.41
  -4   6  10    766.48     42.11
  -4   6  11   4321.27     50.43
  -4   6  12   2686.92     59.55
  -4   6  13   8308.66     61.39
  -4   6  14   3674.63     53.80
  -4   6  15   6586.51     62.41
  -4   6  16   6051.83     48.08
  -4   6  17   4146.49     46.22
  -4   6  18    530.76     40.57
  -4   6  19   1041.67     47.96
  -4   6  20   3664.73     48.79
  -4   6  21      6.97     38.77
  -4   6  22    496.46     44.67
  -4   6  23    478.92     51.41
  -4   6  24   1834.57     71.78
  -4   7   1   6664.37    374.96
  -4   7   2  12846.80    110.51
  -4   7   3   8511.97    288.02
  -4   7   4   1114.05     52.31
  -4   7   5   2534.51     44.35
  -4   7   6  19113.08    152.65
  -4   7   7  10750.93    101.75
  -4   7   8    858.54     43.89
  -4   7   9   8266.38     59.69
  -4   7  10   2433.03     49.81
  -4   7  11   2868.80     52.95
  -4   7  12   1759.88     49.91
  -4   7  13   2384.71     84.20
  -4   7  14   1289.41     51.21
  -4   7  15    835.34     93.99
  -4   7  16   1404.46     53.64
  -4   7  17    583.44     53.36
  -4   7  18   2034.99     70.01
  -4   7  19     39.88     54.18
  -4   7  20    225.33     55.49
  -4   7  21    327.90     70.69
  -4   7  22    260.95     72.22
  -4   7  23    795.75     74.89
  -4   8   1   7622.64    436.34
  -4   8   2   1382.68    138.60
  -4   8   3   5043.11    245.95
  -4   8   4   6429.83    162.68
  -4   8   5   6741.27     69.81
  -4   8   6  13097.47     69.24
  -4   8   7   2335.14     49.87
  -4   8   8   8430.59     63.05
  -4   8   9    988.88     48.64
  -4   8  10   4380.50     61.14
  -4   8  11   4197.88     57.66
  -4   8  12    959.41     51.59
  -4   8  13   1632.48     54.01
  -4   8  14   1487.44     56.19
  -4   8  15     21.22     66.23
  -4   8  16    364.91     67.27
  -4   8  17   8864.69    125.79
  -4   8  18   2549.66     62.45
  -4   8  19    664.42     57.32
  -4   8  20   1159.10     73.50
  -4   8  21    689.25     72.43
  -4   8  22    569.69     74.15
  -4   9   1   7681.00    347.00
  -4   9   2   3015.13    150.12
  -4   9   3   5310.02    225.26
  -4   9   4   4193.40     54.69
  -4   9   5    315.72     67.74
  -4   9   6   5000.34    182.86
  -4   9   7   4990.25     78.04
  -4   9   8    213.51     56.98
  -4   9   9    353.53     50.05
  -4   9  10   5417.87     77.70
  -4   9  11   2577.57     57.74
  -4   9  12   1509.56     55.30
  -4   9  13    743.32     54.25
  -4   9  14   1296.21     56.60
  -4   9  15   1459.49     58.38
  -4   9  16    750.81     57.59
  -4   9  17    431.74     68.50
  -4   9  18    959.97    103.41
  -4   9  19    365.81    102.43
  -4   9  20   4110.58    102.60
  -4  10   1   1460.37    101.22
  -4  10   2  12087.83    360.63
  -4  10   3   5971.66    232.14
  -4  10   4   6244.86    139.68
  -4  10   5      0.00     51.03
  -4  10   6   1500.32     67.95
  -4  10   7   1357.55     54.08
  -4  10   8   2157.15     57.29
  -4  10   9    112.90     52.76
  -4  10  10   2530.68     63.82
  -4  10  11    296.43     54.53
  -4  10  12    298.01     67.92
  -4  10  13    311.33     56.00
  -4  10  14    657.26     57.39
  -4  10  15    271.95     57.16
  -4  10  16    224.16     73.68
  -4  10  17    228.75     75.18
  -4  10  18    319.33     83.18
  -4  11   1    813.95     66.26
  -4  11   2   2092.34     58.55
  -4  11   3   2007.39     62.26
  -4  11   4   2115.68     74.26
  -4  11   5     52.83     53.04
  -4  11   6   1661.87     57.13
  -4  11   7   2609.52     60.57
  -4  11   8   5324.41    118.81
  -4  11   9   1777.29     86.47
  -4  11  10   1332.65     59.04
  -4  11  11   1294.04     59.66
  -4  11  12   1325.53     60.48
  -4  11  13   2404.49     80.57
  -4  11  14    703.88     59.94
  -4  11  15    936.93     61.94
  -4  11  16    303.95     60.92
  -4  12   1    797.22     73.60
  -4  12   2    858.36     63.56
  -4  12   3    118.33     57.66
  -4  12   4   1362.12    110.43
  -4  12   5    595.93     57.13
  -4  12   6    662.58     58.03
  -4  12   7     61.59     57.13
  -4  12   8    578.46     58.54
  -4  12   9    662.79     59.07
  -4  12  10   2057.89     63.41
  -4  12  11   1682.19    120.78
  -4  12  12    145.09     60.29
  -4  12  13    823.12     62.39
  -4  13   1   1183.41     64.23
  -4  13   2   3146.81    124.31
  -4  13   3   1331.12     67.52
  -4  13   4    154.57    111.50
  -4  13   5    206.07    106.17
  -4  13   6   1283.82     93.91
  -4  13   7    381.11     60.14
  -4  13   8    846.45    102.26
  -3 -13  -7    858.29     38.38
  -3 -13  -6   1308.20     38.56
  -3 -13  -5    345.18     37.11
  -3 -13  -4   1210.84     38.26
  -3 -13  -3    269.01     50.18
  -3 -13  -2     31.57     76.09
  -3 -13  -1    188.31     76.59
  -3 -13   0   4009.86     89.63
  -3 -12 -12    736.37     37.74
  -3 -12 -11    563.04     39.41
  -3 -12 -10   2248.86     42.28
  -3 -12  -9    617.62     36.68
  -3 -12  -8    510.16     36.22
  -3 -12  -7    627.59     35.98
  -3 -12  -6    737.75     36.01
  -3 -12  -5    870.39     38.06
  -3 -12  -4    518.23     35.35
  -3 -12  -3   1904.84     51.60
  -3 -12  -2    448.86     60.38
  -3 -12  -1   1756.58     76.89
  -3 -12   0   2306.41    155.60
  -3 -11 -15    388.74     37.44
  -3 -11 -14   2335.08     56.59
  -3 -11 -13   3751.90     61.03
  -3 -11 -12    435.56     37.79
  -3 -11 -11    826.11     36.06
  -3 -11 -10   1175.65     36.11
  -3 -11  -9   1335.47     35.99
  -3 -11  -8    795.63     34.87
  -3 -11  -7   2873.01     39.90
  -3 -11  -6     60.70     43.71
  -3 -11  -5   3032.70     37.20
  -3 -11  -4   1353.21     34.59
  -3 -11  -3   1452.67     50.75
  -3 -11  -2     94.64     94.02
  -3 -11  -1    529.04     67.63
  -3 -11   0    393.68    100.26
  -3 -10 -17    614.79     50.55
  -3 -10 -16    318.11     41.65
  -3 -10 -15   2621.64     55.16
  -3 -10 -14   1059.13     36.33
  -3 -10 -13    600.57     34.84
  -3 -10 -12    250.48     34.13
  -3 -10 -11   1473.33     37.19
  -3 -10 -10   5064.23     47.61
  -3 -10  -9    952.29     41.56
  -3 -10  -8    266.93     32.31
  -3 -10  -7   6074.52     43.02
  -3 -10  -6    582.40     32.57
  -3 -10  -5   3621.27     38.08
  -3 -10  -4    656.57     31.67
  -3 -10  -3   9700.37    107.85
  -3 -10  -2   3437.93    102.33
  -3 -10  -1    273.16     62.63
  -3 -10   0   2208.91    131.02
  -3  -9 -19   1028.84     61.77
  -3  -9 -18   3654.86     76.48
  -3  -9 -17   3505.27     54.58
  -3  -9 -16     17.79     36.36
  -3  -9 -15    688.02     34.92
  -3  -9 -14    706.69     36.62
  -3  -9 -13   3711.44     39.65
  -3  -9 -12    854.34     32.90
  -3  -9 -11     68.32     31.36
  -3  -9 -10     48.70     30.85
  -3  -9  -9  12473.76     90.29
  -3  -9  -8   2311.44     38.79
  -3  -9  -7   3922.45     36.41
  -3  -9  -6   1806.96     31.22
  -3  -9  -5    269.84     28.74
  -3  -9  -4   3359.32     32.44
  -3  -9  -3   3744.95     69.80
  -3  -9  -2   5641.02     59.73
  -3  -9  -1   4143.59     68.49
  -3  -9   0   2069.10     65.07
  -3  -8 -21    948.63     38.20
  -3  -8 -20    214.93     36.23
  -3  -8 -19     83.67     35.60
  -3  -8 -18   1689.29     61.29
  -3  -8 -17    235.63     33.97
  -3  -8 -16    999.89     38.14
  -3  -8 -15   2839.64     52.10
  -3  -8 -14   3064.94     44.27
  -3  -8 -13   1520.40     34.90
  -3  -8 -12   5960.70     42.31
  -3  -8 -11    280.18     29.88
  -3  -8 -10    374.26     29.26
  -3  -8  -9   2124.52     41.88
  -3  -8  -8   2526.02     30.76
  -3  -8  -7   3418.88     46.26
  -3  -8  -6  10635.48     58.12
  -3  -8  -5    185.72     26.36
  -3  -8  -4  14223.86     82.87
  -3  -8  -3    182.56     30.40
  -3  -8  -2    766.36     38.05
  -3  -8  -1   2867.95    108.85
  -3  -8   0   4538.54    182.53
  -3  -7 -22   3545.27     74.71
  -3  -7 -21    520.31     45.09
  -3  -7 -20    560.13     43.96
  -3  -7 -19    685.75     52.19
  -3  -7 -18   1092.42     35.31
  -3  -7 -17    838.15     33.67
  -3  -7 -16   3035.54     37.87
  -3  -7 -15    619.11     31.58
  -3  -7 -14    344.19     40.56
  -3  -7 -13    867.42     30.32
  -3  -7 -12   9467.25     84.46
  -3  -7 -11   5334.04     41.49
  -3  -7 -10   5060.12     32.83
  -3  -7  -9   1895.12     28.41
  -3  -7  -8   9689.18     41.96
  -3  -7  -7  11155.90     96.88
  -3  -7  -6  15471.85     67.76
  -3  -7  -5   3168.57     27.35
  -3  -7  -4  10502.53     54.24
  -3  -7  -3   3636.76     32.62
  -3  -7  -2   7693.58     79.72
  -3  -7  -1   2937.62     43.58
  -3  -7   0  15078.12    116.80
  -3  -6 -23    640.91     57.34
  -3  -6 -22     79.86     54.64
  -3  -6 -21    495.58     49.06
  -3  -6 -20   2576.43     54.48
  -3  -6 -19    920.85     43.07
  -3  -6 -18    917.44     51.16
  -3  -6 -17   5970.11     58.32
  -3  -6 -16   5737.38     86.07
  -3  -6 -15   1729.05     42.70
  -3  -6 -14  16167.21     87.13
  -3  -6 -13   4950.42     51.02
  -3  -6 -12   2705.08     29.99
  -3  -6 -11   1906.67     28.03
  -3  -6 -10  14830.15     54.03
  -3  -6  -9   1485.41     25.71
  -3  -6  -8   1391.35     25.12
  -3  -6  -7   2806.67     28.03
  -3  -6  -6   5922.95     33.94
  -3  -6  -5   3997.76     48.38
  -3  -6  -4   4283.41     37.71
  -3  -6  -3   3045.51     33.51
  -3  -6  -2  12987.63     70.01
  -3  -6  -1    131.81     35.14
  -3  -6   0  41457.98    518.65
  -3  -5 -24     78.99     56.08
  -3  -5 -23    840.83     80.41
  -3  -5 -22   2451.23     72.78
  -3  -5 -21   1672.25     45.02
  -3  -5 -20   3940.19     57.13
  -3  -5 -19    177.80     49.91
  -3  -5 -18   1753.70     51.21
  -3  -5 -17    749.06     38.80
  -3  -5 -16   1640.33     47.99
  -3  -5 -15  20895.60    136.32
  -3  -5 -14  10868.68     68.71
  -3  -5 -13  16454.76     79.23
  -3  -5 -12   1451.68     37.63
  -3  -5 -11   1287.85     31.80
  -3  -5 -10   7399.28     45.66
  -3  -5  -9    959.12     23.29
  -3  -5  -8  48857.05    202.17
  -3  -5  -7   1190.18     22.90
  -3  -5  -6   2066.49     24.83
  -3  -5  -5   5259.14     28.50
  -3  -5  -4   2553.54     28.51
  -3  -5  -3   1804.27     19.33
  -3  -5  -2   2678.68     28.32
  -3  -5  -1  31785.28    196.96
  -3  -5   0    201.43     27.52
  -3  -4 -25   1343.95     48.29
  -3  -4 -24    212.82     44.84
  -3  -4 -23   2587.32     91.35
  -3  -4 -22   1188.14     44.82
  -3  -4 -21   1482.13     44.12
  -3  -4 -20   1587.63     42.75
  -3  -4 -19   2097.27     41.97
  -3  -4 -18    896.37     38.77
  -3  -4 -17    616.67     52.98
  -3  -4 -16   3543.10     59.56
  -3  -4 -15   9170.35     46.07
  -3  -4 -14    238.88     58.54
  -3  -4 -13   4867.27     41.33
  -3  -4 -12   3678.97     37.52
  -3  -4 -11   9556.59     53.19
  -3  -4 -10   2008.72     29.42
  -3  -4  -9   3802.65     30.35
  -3  -4  -8   8579.07     44.73
  -3  -4  -7  38374.43    333.11
  -3  -4  -6   8283.15     60.61
  -3  -4  -5  28047.71    121.08
  -3  -4  -4  10053.82     39.15
  -3  -4  -3  46574.63    235.36
  -3  -4  -2   9403.06     38.49
  -3  -4  -1  17816.21    107.88
  -3  -4   0  75215.12    356.59
  -3  -3 -25     66.90     49.50
  -3  -3 -24    744.22     45.31
  -3  -3 -23   4288.29     61.43
  -3  -3 -22   8064.78    123.91
  -3  -3 -21    281.34     44.11
  -3  -3 -20    766.79     44.58
  -3  -3 -19   1568.73     40.45
  -3  -3 -18    488.89     37.59
  -3  -3 -17  23554.69    235.76
  -3  -3 -16   1715.45     36.68
  -3  -3 -15  12919.86     68.66
  -3  -3 -14   2311.08     34.45
  -3  -3 -13   4628.73     54.91
  -3  -3 -12   6068.28     55.13
  -3  -3 -11   4663.22     37.37
  -3  -3 -10  15081.74     93.90
  -3  -3  -9  16293.26     88.94
  -3  -3  -8  17656.24     93.41
  -3  -3  -7  21366.10    116.40
  -3  -3  -6   3791.19     34.31
  -3  -3  -5  11820.96     82.92
  -3  -3  -4  22852.27    104.83
  -3  -3  -3   8281.13     35.99
  -3  -3  -2  30251.07    143.42
  -3  -3  -1  27771.76    142.82
  -3  -3   0  23605.97    134.09
  -3  -2 -26    120.71     46.29
  -3  -2 -25   2010.03     51.33
  -3  -2 -24   1105.49     45.42
  -3  -2 -23   6237.84     95.19
  -3  -2 -22   1405.06     48.05
  -3  -2 -21   4600.32     67.19
  -3  -2 -20    471.33     39.43
  -3  -2 -19   4508.31     57.21
  -3  -2 -18   2067.55     47.98
  -3  -2 -17   3848.28     89.66
  -3  -2 -16   5546.29     78.80
  -3  -2 -15   8338.48     85.49
  -3  -2 -14   1758.99     32.40
  -3  -2 -13   5986.42     63.21
  -3  -2 -12   6378.36     54.50
  -3  -2 -11  10713.02     90.60
  -3  -2 -10   5217.18     58.40
  -3  -2  -9  14359.46    125.48
  -3  -2  -8  21051.82    142.65
  -3  -2  -7   3702.99     44.25
  -3  -2  -6  36496.83    297.84
  -3  -2  -5  13778.44    124.41
  -3  -2  -4  49515.22    376.77
  -3  -2  -3  111652.7   1071.57
  -3  -2  -2  45960.63    170.76
  -3  -2  -1  60527.53    408.81
  -3  -2   0  16084.36     89.82
  -3  -1 -26    559.47     50.74
  -3  -1 -25   1379.64     46.86
  -3  -1 -24    921.28     44.92
  -3  -1 -23    758.77     50.82
  -3  -1 -22    340.69     50.88
  -3  -1 -21   2512.44     53.62
  -3  -1 -20    863.59     49.07
  -3  -1 -19   2294.86     44.84
  -3  -1 -18   2206.74     47.09
  -3  -1 -17  14343.40    115.80
  -3  -1 -16   8939.69     85.42
  -3  -1 -15  10778.12    123.95
  -3  -1 -14   5182.12     51.10
  -3  -1 -13   3071.53     35.51
  -3  -1 -12   4360.13     68.03
  -3  -1 -11   8167.40     52.94
  -3  -1 -10  27022.35    226.66
  -3  -1  -9   2945.44     26.93
  -3  -1  -8  79438.21    695.59
  -3  -1  -7   7200.69     63.27
  -3  -1  -6  55070.14    241.05
  -3  -1  -5  55040.40    527.18
  -3  -1  -4  63399.67    518.73
  -3  -1  -3   3838.12     45.88
  -3  -1  -2  26598.17    132.44
  -3  -1  -1  279852.0   2223.77
  -3  -1   0   4751.54     55.30
  -3   0   1  16920.40    167.22
  -3   0   2   8223.15     50.92
  -3   0   3  159720.9    738.45
  -3   0   4  20197.67    225.07
  -3   0   5  10914.50     92.83
  -3   0   6    429.47     11.31
  -3   0   7  12321.56     76.20
  -3   0   8  44339.38    251.80
  -3   0   9    229.36     16.63
  -3   0  10  55964.11    260.87
  -3   0  11  15523.20    127.49
  -3   0  12  19553.68    117.57
  -3   0  13  13721.27     48.54
  -3   0  14  10859.19     70.78
  -3   0  15   4537.04     50.04
  -3   0  16   5989.96     46.43
  -3   0  17     72.32     32.04
  -3   0  18  11043.41     67.92
  -3   0  19    160.12     35.70
  -3   0  20   1283.00     71.99
  -3   0  21    140.94     42.92
  -3   0  22   1075.20    112.27
  -3   0  23  15623.41    314.66
  -3   0  24    778.13     49.76
  -3   0  25   2707.25    136.62
  -3   0  26    235.90     50.39
  -3   0  27    655.62     53.03
  -3   1   1  57622.32    303.67
  -3   1   2  89538.80    372.37
  -3   1   3  72194.28    658.67
  -3   1   4  163676.1   1832.80
  -3   1   5  13232.10     98.60
  -3   1   6  81807.99    667.99
  -3   1   7  41337.12    403.94
  -3   1   8  56103.12    480.12
  -3   1   9  10012.04     74.20
  -3   1  10  11049.86     44.36
  -3   1  11   2293.34     23.38
  -3   1  12   6619.12     41.11
  -3   1  13   1535.96     25.61
  -3   1  14   4798.61     50.56
  -3   1  15   4902.60     51.49
  -3   1  16  16043.28     99.65
  -3   1  17   5283.30     40.97
  -3   1  18   2669.11     39.16
  -3   1  19   5730.43     41.59
  -3   1  20   4988.57     45.47
  -3   1  21    319.89     35.88
  -3   1  22   1601.29     43.06
  -3   1  23   1671.98     45.15
  -3   1  24   4882.59     67.57
  -3   1  25    447.06     49.97
  -3   1  26    728.61     51.70
  -3   1  27    940.74     53.68
  -3   2   1  28367.33    342.38
  -3   2   2  198362.5   1554.80
  -3   2   3   3793.09     24.43
  -3   2   4   8770.20     59.28
  -3   2   5  28251.22    254.80
  -3   2   6  53985.45    472.78
  -3   2   7  28377.41    289.46
  -3   2   8  13567.60    126.54
  -3   2   9  88914.43    678.02
  -3   2  10    819.76     20.81
  -3   2  11  42548.04    275.54
  -3   2  12   5212.14     44.45
  -3   2  13   2595.57     31.94
  -3   2  14   2021.17     28.82
  -3   2  15   2487.95     34.04
  -3   2  16  21679.84    124.50
  -3   2  17   1753.21     40.44
  -3   2  18  10503.77    118.79
  -3   2  19   1075.88     38.48
  -3   2  20    169.77     38.35
  -3   2  21    529.24     36.80
  -3   2  22   2431.51     41.21
  -3   2  23   1006.67     43.78
  -3   2  24   1509.21     52.13
  -3   2  25    392.15     41.25
  -3   2  26   1087.99     43.37
  -3   3   1  76347.73    900.20
  -3   3   2   3115.36     36.19
  -3   3   3  107672.9   1154.59
  -3   3   4  19281.63    146.94
  -3   3   5  43697.88    364.31
  -3   3   6  24181.73    256.38
  -3   3   7  10358.50    108.64
  -3   3   8   9415.86     91.24
  -3   3   9   2790.76     24.27
  -3   3  10  13870.46    123.01
  -3   3  11  31271.97    255.16
  -3   3  12   2730.78     27.95
  -3   3  13   4880.48     46.63
  -3   3  14  14533.88    156.57
  -3   3  15   8338.89     39.98
  -3   3  16   8162.22     53.48
  -3   3  17  16690.66     70.18
  -3   3  18   9701.42     51.18
  -3   3  19   2039.15     41.33
  -3   3  20   7049.18     75.72
  -3   3  21   2547.34     44.65
  -3   3  22   1866.47     50.20
  -3   3  23    161.28     39.02
  -3   3  24     89.39     40.00
  -3   3  25    373.38     41.87
  -3   3  26    537.63     43.05
  -3   4   1  44210.55    693.07
  -3   4   2    376.93     32.42
  -3   4   3  49092.26    619.62
  -3   4   4  28393.88    288.03
  -3   4   5  12515.24     85.05
  -3   4   6  12415.22     67.01
  -3   4   7  23547.69    310.07
  -3   4   8   7055.53     75.58
  -3   4   9  21740.62    145.13
  -3   4  10   7012.77     51.37
  -3   4  11   8788.32     95.01
  -3   4  12   6122.30     72.19
  -3   4  13   7393.03     50.39
  -3   4  14   3226.47     33.53
  -3   4  15    250.41     30.15
  -3   4  16   4930.94     41.99
  -3   4  17   7517.93     69.35
  -3   4  18   3917.54     56.85
  -3   4  19   2492.85     48.22
  -3   4  20   2093.62     48.42
  -3   4  21    635.44     38.58
  -3   4  22   1728.94     41.49
  -3   4  23   3560.37     51.56
  -3   4  24   1949.30     53.70
  -3   4  25   1504.35     57.84
  -3   4  26   1548.62     45.84
  -3   5   1  14388.18    452.31
  -3   5   2  14233.79    236.38
  -3   5   3  11255.84    183.78
  -3   5   4   9256.47    145.18
  -3   5   5   2863.26     70.93
  -3   5   6    912.06     41.37
  -3   5   7  26707.46    174.33
  -3   5   8   1943.98     45.19
  -3   5   9  12667.08    105.26
  -3   5  10   7268.46     70.78
  -3   5  11   6056.79     51.47
  -3   5  12   1980.13     30.80
  -3   5  13    304.58     29.37
  -3   5  14   9527.58     50.54
  -3   5  15    529.94     32.42
  -3   5  16  12064.04     54.78
  -3   5  17   1411.80     53.50
  -3   5  18   4524.14     51.87
  -3   5  19   2042.53     55.82
  -3   5  20   1221.37     39.51
  -3   5  21     87.62     38.38
  -3   5  22     64.74     39.45
  -3   5  23   1363.56     42.66
  -3   5  24   2321.79     45.82
  -3   5  25   2214.27     48.47
  -3   6   1   6301.95    286.38
  -3   6   2   9946.80    294.42
  -3   6   3  11125.46    141.97
  -3   6   4   9708.65    129.97
  -3   6   5   4338.52     71.94
  -3   6   6   2342.04     41.02
  -3   6   7    167.72     37.44
  -3   6   8  11523.27     59.31
  -3   6   9  16168.01     67.06
  -3   6  10  28968.37    184.49
  -3   6  11   2142.31     60.34
  -3   6  12   3336.25     50.54
  -3   6  13  10171.16     65.16
  -3   6  14   2439.46     65.51
  -3   6  15    385.31     42.70
  -3   6  16   2194.00     38.33
  -3   6  17   1047.64     55.49
  -3   6  18  12209.00    107.84
  -3   6  19   2291.68     41.70
  -3   6  20   3169.28     64.97
  -3   6  21    183.97     39.67
  -3   6  22   1248.62     52.37
  -3   6  23   1588.70     55.08
  -3   6  24   1422.99     58.09
  -3   7   1  26126.90    302.11
  -3   7   2  18243.70    789.60
  -3   7   3    973.79     29.80
  -3   7   4   4519.90     95.04
  -3   7   5  12773.82    108.71
  -3   7   6    943.20     44.06
  -3   7   7    318.56     67.60
  -3   7   8  13674.44     67.39
  -3   7   9   4503.28     52.55
  -3   7  10   3074.01     60.50
  -3   7  11   5324.50     56.33
  -3   7  12   1151.59     85.84
  -3   7  13   2808.34     81.55
  -3   7  14   1484.07     65.31
  -3   7  15    636.64     51.68
  -3   7  16   6360.12     71.96
  -3   7  17    645.52     68.13
  -3   7  18   2415.04     59.78
  -3   7  19    294.07     55.56
  -3   7  20   1092.38     72.99
  -3   7  21    135.81     84.57
  -3   7  22   3161.00     84.47
  -3   7  23    120.25     52.78
  -3   8   1    447.23     78.73
  -3   8   2   8775.94    397.41
  -3   8   3    377.02     64.85
  -3   8   4   1992.54     60.01
  -3   8   5   2099.10     48.18
  -3   8   6   3652.05     52.34
  -3   8   7    357.47     45.73
  -3   8   8   6971.84     61.36
  -3   8   9  16553.59    145.08
  -3   8  10     16.61     48.13
  -3   8  11   1513.08     51.83
  -3   8  12   1728.26     53.78
  -3   8  13   2595.11     75.06
  -3   8  14   7884.21     69.22
  -3   8  15   7426.85     72.68
  -3   8  16   6588.94     73.48
  -3   8  17   1851.30     59.51
  -3   8  18     98.96     68.49
  -3   8  19    583.88     70.30
  -3   8  20     55.77     69.45
  -3   8  21   2380.21     77.99
  -3   8  22    589.32    165.83
  -3   9   1  19731.50    144.02
  -3   9   2   1099.35     99.74
  -3   9   3   7120.09    370.07
  -3   9   4   3848.42    113.75
  -3   9   5     23.64     46.96
  -3   9   6   4379.81     58.02
  -3   9   7   3362.76     68.54
  -3   9   8   1112.24     51.29
  -3   9   9   3025.72     57.14
  -3   9  10   1765.82     74.62
  -3   9  11   6023.42     65.55
  -3   9  12   3311.62     61.11
  -3   9  13   4154.79     63.54
  -3   9  14    528.87     70.42
  -3   9  15   1208.59     68.33
  -3   9  16   2173.15     73.08
  -3   9  17   2332.57    147.91
  -3   9  18   2555.78     79.85
  -3   9  19    181.91     73.49
  -3   9  20     69.47    128.95
  -3  10   1   6684.57    362.07
  -3  10   2    821.28     63.62
  -3  10   3    650.86     59.34
  -3  10   4   3191.76     71.54
  -3  10   5   7979.03    130.91
  -3  10   6    196.20     51.20
  -3  10   7   2782.52     82.54
  -3  10   8    957.66     54.95
  -3  10   9   7472.22    175.09
  -3  10  10    720.47     81.53
  -3  10  11   1496.01     58.43
  -3  10  12    791.39     57.32
  -3  10  13   3534.40     74.30
  -3  10  14    195.43     62.77
  -3  10  15     44.38     72.90
  -3  10  16    254.51     73.95
  -3  10  17   2974.50     84.69
  -3  10  18    220.05     75.89
  -3  11   1    167.68     66.26
  -3  11   2    515.51     66.55
  -3  11   3    245.88     65.37
  -3  11   4    145.39     61.61
  -3  11   5   2398.01     59.47
  -3  11   6      8.94     53.75
  -3  11   7   2083.08     59.08
  -3  11   8    583.09     56.77
  -3  11   9   2366.40     69.80
  -3  11  10    118.87     55.99
  -3  11  11    272.03     57.54
  -3  11  12    116.97     57.48
  -3  11  13   4730.49     89.15
  -3  11  14    528.60     72.03
  -3  11  15   2707.72     66.71
  -3  11  16    716.50     62.38
  -3  12   1    644.71    105.33
  -3  12   2   1827.19     75.89
  -3  12   3   1649.28    111.81
  -3  12   4   2679.67    115.34
  -3  12   5   3504.21    120.70
  -3  12   6    725.26     58.96
  -3  12   7    408.44     58.20
  -3  12   8    652.98     59.91
  -3  12   9    359.96     58.83
  -3  12  10   2701.47    106.92
  -3  12  11    508.55     61.21
  -3  12  12    458.56     61.88
  -3  12  13    770.61     63.08
  -3  13   1    212.54    162.35
  -3  13   2     85.84    101.51
  -3  13   3    118.45     73.78
  -3  13   4   2423.04    118.24
  -3  13   5    139.34     65.17
  -3  13   6   2440.41     78.86
  -3  13   7     34.05     96.25
  -3  13   8   1698.00     64.59
  -2 -13  -8    599.73     37.85
  -2 -13  -7   1482.76     38.97
  -2 -13  -6    511.02     39.62
  -2 -13  -5   1348.52     43.63
  -2 -13  -4    835.30     42.83
  -2 -13  -3    719.70     50.03
  -2 -13  -2   1585.35     82.29
  -2 -13  -1   1297.47    218.56
  -2 -13   0   1785.84     82.66
  -2 -12 -12    629.71     39.64
  -2 -12 -11    477.22     36.83
  -2 -12 -10    246.27     36.11
  -2 -12  -9   1257.82     45.75
  -2 -12  -8    267.04     43.99
  -2 -12  -7    139.91     35.10
  -2 -12  -6   3145.90     45.76
  -2 -12  -5   1038.74     35.97
  -2 -12  -4    720.20     35.52
  -2 -12  -3   2472.57     65.11
  -2 -12  -2   1622.16     76.93
  -2 -12  -1   3029.96     81.70
  -2 -12   0   1016.85     75.80
  -2 -11 -15    366.20     40.24
  -2 -11 -14   1541.68     40.26
  -2 -11 -13   1749.48     50.23
  -2 -11 -12    487.80     40.13
  -2 -11 -11    207.05     37.07
  -2 -11 -10   1762.13     39.01
  -2 -11  -9   1232.44     35.75
  -2 -11  -8    322.27     35.94
  -2 -11  -7   2257.39     38.50
  -2 -11  -6   1455.72     34.89
  -2 -11  -5   1175.16     34.34
  -2 -11  -4    552.41     33.10
  -2 -11  -3   1728.30     54.75
  -2 -11  -2   1246.68    129.97
  -2 -11  -1    675.43    102.79
  -2 -11   0   2501.59    143.93
  -2 -10 -18    124.75     45.19
  -2 -10 -17   1221.20     58.18
  -2 -10 -16    123.00     40.70
  -2 -10 -15    785.30     37.96
  -2 -10 -14    150.86     34.48
  -2 -10 -13    294.18     35.99
  -2 -10 -12   1510.98     37.37
  -2 -10 -11   2013.50     35.59
  -2 -10 -10   2260.65     37.71
  -2 -10  -9    419.37     35.01
  -2 -10  -8   6023.53     74.27
  -2 -10  -7   4645.00     39.37
  -2 -10  -6   1075.51     32.28
  -2 -10  -5   4535.67     40.48
  -2 -10  -4   1426.05     32.24
  -2 -10  -3   1023.85     55.30
  -2 -10  -2   4487.77    143.00
  -2 -10  -1  14977.23    288.00
  -2 -10   0   3895.87    109.90
  -2  -9 -20    537.16     46.01
  -2  -9 -19   1022.04     66.72
  -2  -9 -18   1682.13     54.96
  -2  -9 -17    946.66     38.31
  -2  -9 -16   2644.58     46.05
  -2  -9 -15   3285.95     58.33
  -2  -9 -14   1550.13     36.74
  -2  -9 -13   4981.17     60.99
  -2  -9 -12   3856.75     38.92
  -2  -9 -11   2324.72     34.19
  -2  -9 -10   5312.54     55.05
  -2  -9  -9   3079.58     43.88
  -2  -9  -8   6818.94     52.33
  -2  -9  -7   2985.74     32.83
  -2  -9  -6   2509.20     33.12
  -2  -9  -5   5648.30     43.60
  -2  -9  -4    457.24     28.19
  -2  -9  -3   2583.04     42.26
  -2  -9  -2   3607.37     88.31
  -2  -9  -1    441.02     58.20
  -2  -9   0   2961.11    141.05
  -2  -8 -21    353.47     36.71
  -2  -8 -20    609.30     36.40
  -2  -8 -19   1163.11     37.65
  -2  -8 -18    298.34     36.61
  -2  -8 -17    603.70     34.15
  -2  -8 -16    765.54     33.56
  -2  -8 -15   1570.37     34.25
  -2  -8 -14   2645.27     37.03
  -2  -8 -13   2138.43     35.26
  -2  -8 -12   2025.13     34.38
  -2  -8 -11   1409.38     40.93
  -2  -8 -10  10496.36     82.38
  -2  -8  -9    692.79     32.91
  -2  -8  -8    680.38     28.28
  -2  -8  -7  22629.96     92.43
  -2  -8  -6   7283.80     37.88
  -2  -8  -5   7752.81     43.35
  -2  -8  -4    494.56     26.05
  -2  -8  -3  11953.60     53.77
  -2  -8  -2   3361.47     93.87
  -2  -8  -1   5454.49     64.94
  -2  -8   0   5254.29     86.83
  -2  -7 -22    832.96     45.99
  -2  -7 -21   1124.57     45.77
  -2  -7 -20     63.00     42.60
  -2  -7 -19   2100.06     45.40
  -2  -7 -18   3798.16     46.78
  -2  -7 -17   1558.94     34.14
  -2  -7 -16   3946.31     71.88
  -2  -7 -15   4331.07     72.00
  -2  -7 -14    944.23     32.56
  -2  -7 -13    458.33     29.32
  -2  -7 -12    669.78     28.77
  -2  -7 -11     15.06     31.07
  -2  -7 -10     74.16     27.96
  -2  -7  -9   4307.91     37.15
  -2  -7  -8   2564.98     28.13
  -2  -7  -7   5498.23     45.33
  -2  -7  -6   2376.23     26.52
  -2  -7  -5   3271.53     27.24
  -2  -7  -4   3953.45     28.94
  -2  -7  -3  10984.25     57.51
  -2  -7  -2  10244.40     55.11
  -2  -7  -1  32534.44    335.10
  -2  -7   0  21642.25    220.10
  -2  -6 -23    437.09     56.05
  -2  -6 -22     11.92     54.33
  -2  -6 -21     95.46     46.89
  -2  -6 -20   3341.19     51.51
  -2  -6 -19   5968.44    132.95
  -2  -6 -18    841.27     50.55
  -2  -6 -17   3261.67     43.67
  -2  -6 -16   2977.95     53.62
  -2  -6 -15   4080.32     61.15
  -2  -6 -14   5722.42     44.64
  -2  -6 -13   4251.62     43.62
  -2  -6 -12   2789.11     29.59
  -2  -6 -11   2589.89     28.39
  -2  -6 -10  19485.98     67.22
  -2  -6  -9   8880.56     47.76
  -2  -6  -8  10556.61     63.47
  -2  -6  -7    168.42     22.22
  -2  -6  -6  14559.47     65.21
  -2  -6  -5  21574.23     84.57
  -2  -6  -4  15688.54     46.59
  -2  -6  -3  22854.22    151.83
  -2  -6  -2    171.76     32.10
  -2  -6  -1   5579.19     52.81
  -2  -6   0    570.01     40.54
  -2  -5 -24    427.21     56.07
  -2  -5 -23    359.34     55.83
  -2  -5 -22    716.21     76.46
  -2  -5 -21   3336.63     60.89
  -2  -5 -20    587.64     41.65
  -2  -5 -19   3217.37     54.43
  -2  -5 -18   1984.09     45.34
  -2  -5 -17     56.29     40.78
  -2  -5 -16   6320.32    101.29
  -2  -5 -15    144.45     37.19
  -2  -5 -14   8727.26     44.99
  -2  -5 -13   5603.84     54.49
  -2  -5 -12   8432.69     48.03
  -2  -5 -11   8476.41     66.76
  -2  -5 -10   3700.13     33.01
  -2  -5  -9   9978.44     51.98
  -2  -5  -8  11530.13     58.59
  -2  -5  -7   9273.13     49.35
  -2  -5  -6   6607.97     33.18
  -2  -5  -5  43603.64    209.44
  -2  -5  -4  12731.79     42.32
  -2  -5  -3  37778.02    195.05
  -2  -5  -2   7574.83     58.61
  -2  -5  -1  15293.23     81.85
  -2  -5   0  28555.85    265.21
  -2  -4 -25   1194.84     47.64
  -2  -4 -24   1150.64     73.28
  -2  -4 -23   2341.07     47.09
  -2  -4 -22   4724.75     81.40
  -2  -4 -21    169.82     45.17
  -2  -4 -20    379.51     60.61
  -2  -4 -19   1112.99     45.49
  -2  -4 -18   2622.93     46.46
  -2  -4 -17   5398.41    135.13
  -2  -4 -16   1073.26     36.87
  -2  -4 -15    390.65     33.43
  -2  -4 -14   2871.78     44.32
  -2  -4 -13  10022.42     76.60
  -2  -4 -12   5991.83     36.70
  -2  -4 -11   7030.25     42.48
  -2  -4 -10   2375.99     29.42
  -2  -4  -9  10546.67     83.84
  -2  -4  -8  16283.50     86.03
  -2  -4  -7  19549.18    150.63
  -2  -4  -6  30727.90    247.05
  -2  -4  -5  23261.95    105.86
  -2  -4  -4  13588.64     90.60
  -2  -4  -3  24555.73    144.31
  -2  -4  -2  16347.25     86.47
  -2  -4  -1  31400.71    178.58
  -2  -4   0  15141.50    103.74
  -2  -3 -26     31.22     49.79
  -2  -3 -25   1130.72     46.26
  -2  -3 -24   4094.08     55.56
  -2  -3 -23   1701.30     60.99
  -2  -3 -22    560.17     56.34
  -2  -3 -21   3879.84     59.89
  -2  -3 -20    935.37     54.70
  -2  -3 -19   3899.30     47.35
  -2  -3 -18    466.00     36.67
  -2  -3 -17   1171.53     36.51
  -2  -3 -16   5475.07     51.44
  -2  -3 -15   8887.42    121.88
  -2  -3 -14   4417.34     64.41
  -2  -3 -13  19967.38     90.65
  -2  -3 -12  24057.78    170.91
  -2  -3 -11  10215.01     41.91
  -2  -3 -10   5656.23     45.10
  -2  -3  -9  26610.83    165.69
  -2  -3  -8  39447.06    295.41
  -2  -3  -7   9238.95    114.21
  -2  -3  -6  82185.72    544.64
  -2  -3  -5   9148.63     45.12
  -2  -3  -4  60644.29    326.51
  -2  -3  -3  24149.16    181.54
  -2  -3  -2  55499.03    291.53
  -2  -3  -1  52348.27    211.55
  -2  -3   0  32403.69    157.22
  -2  -2 -26   1996.42     48.64
  -2  -2 -25   1121.38     45.79
  -2  -2 -24   1137.00     44.57
  -2  -2 -23   4199.93     60.71
  -2  -2 -22    790.56     41.99
  -2  -2 -21     76.61     62.64
  -2  -2 -20    957.67     39.42
  -2  -2 -19   3488.93     53.63
  -2  -2 -18    750.40     36.66
  -2  -2 -17   8873.42     92.95
  -2  -2 -16     43.68     32.51
  -2  -2 -15   6566.07     39.78
  -2  -2 -14    346.94     29.83
  -2  -2 -13    429.01     28.31
  -2  -2 -12  17624.13    147.41
  -2  -2 -11   5622.25     38.46
  -2  -2 -10  14971.50     79.86
  -2  -2  -9  17194.27    130.24
  -2  -2  -8  61714.31    428.52
  -2  -2  -7  37154.85    442.18
  -2  -2  -6  63663.57    404.60
  -2  -2  -5   1346.56     16.79
  -2  -2  -4  34162.78    306.85
  -2  -2  -3  61141.31    241.86
  -2  -2  -2  38067.24    132.71
  -2  -2  -1  36309.19    164.11
  -2  -2   0   4610.23     33.64
  -2  -1 -26    267.35     45.34
  -2  -1 -25     11.65     48.20
  -2  -1 -24    787.60     44.29
  -2  -1 -23   1800.19     65.47
  -2  -1 -22    251.45     53.48
  -2  -1 -21   2214.05     52.67
  -2  -1 -20   2653.04     51.68
  -2  -1 -19   3871.59     46.52
  -2  -1 -18   6979.71     60.53
  -2  -1 -17    437.47     34.00
  -2  -1 -16   7365.35     45.33
  -2  -1 -15   1082.60     32.21
  -2  -1 -14  24839.78    264.25
  -2  -1 -13   5157.99     65.83
  -2  -1 -12   1587.03     29.89
  -2  -1 -11   1314.65     25.42
  -2  -1 -10    771.75     23.09
  -2  -1  -9  28112.10    176.14
  -2  -1  -8  14975.79    101.58
  -2  -1  -7   5867.42     36.74
  -2  -1  -6  14873.20     97.08
  -2  -1  -5  66739.99    364.39
  -2  -1  -4  55950.22    404.95
  -2  -1  -3  71653.22    648.82
  -2  -1  -2  61966.25    518.48
  -2  -1  -1  258327.3   1788.03
  -2   0   1  120535.1   1739.95
  -2   0   2   7147.47     67.74
  -2   0   3  96797.90    686.48
  -2   0   4  85194.49    478.03
  -2   0   5  85916.09    476.65
  -2   0   6  13058.37     89.53
  -2   0   7   3885.61     25.65
  -2   0   8  15205.01    146.16
  -2   0   9   1889.16     27.44
  -2   0  10   1376.52     22.90
  -2   0  11  34218.25    192.37
  -2   0  12   5520.43     58.07
  -2   0  13   8011.51     41.83
  -2   0  14   2985.16     32.39
  -2   0  15    656.99     30.53
  -2   0  16   4026.13     49.98
  -2   0  17    209.15     33.25
  -2   0  18   6722.77     51.36
  -2   0  19   7235.62     48.21
  -2   0  20    241.93     38.83
  -2   0  21    894.89     52.83
  -2   0  22     16.95     45.39
  -2   0  23   5173.75     62.82
  -2   0  24   1322.15     98.13
  -2   0  25  10425.35    209.20
  -2   0  26    549.57     52.34
  -2   0  27    154.09     66.82
  -2   1   2  248761.9   2762.29
  -2   1   3  141254.0   1004.16
  -2   1   4  115715.6   1686.36
  -2   1   5  13481.76     81.68
  -2   1   6  51595.07    501.23
  -2   1   7  36559.02    310.84
  -2   1   8  36219.50    221.67
  -2   1   9   9929.52     63.18
  -2   1  10  32054.54    302.92
  -2   1  11   2576.42     30.03
  -2   1  12   3370.92     29.78
  -2   1  13  12590.70     75.49
  -2   1  14  18239.84    119.05
  -2   1  15  14380.77     81.12
  -2   1  16   4398.54     39.49
  -2   1  17   4083.86     44.54
  -2   1  18    948.64     45.11
  -2   1  19   1246.52     35.59
  -2   1  20   8860.08     47.88
  -2   1  21   3097.04     47.28
  -2   1  22    589.04     38.49
  -2   1  23   1159.31     44.96
  -2   1  24   1477.21     52.32
  -2   1  25   1165.63     88.09
  -2   1  26   1214.11     54.01
  -2   1  27    444.57     53.28
  -2   2   1  94803.97    490.41
  -2   2   2  41563.95    276.12
  -2   2   3   5585.94     94.04
  -2   2   4  16318.82    130.50
  -2   2   5  21742.39    208.13
  -2   2   6   4394.41     42.87
  -2   2   7  56010.44    436.71
  -2   2   8  20403.39    237.58
  -2   2   9  85014.66    640.47
  -2   2  10   5516.89     33.55
  -2   2  11   8269.75     34.77
  -2   2  12   4165.23     29.06
  -2   2  13   7628.43     38.85
  -2   2  14   5431.50     42.69
  -2   2  15  17062.26    103.37
  -2   2  16  13458.42     61.35
  -2   2  17   1216.89     33.24
  -2   2  18  19778.48     77.64
  -2   2  19     12.55     36.57
  -2   2  20   1509.82     67.91
  -2   2  21    533.07     37.42
  -2   2  22   5675.21     65.43
  -2   2  23    414.51     43.62
  -2   2  24     61.57     41.90
  -2   2  25   1081.81     47.33
  -2   2  26    112.15     42.60
  -2   2  27   4490.25    112.70
  -2   3   1  23016.46    145.75
  -2   3   2  12327.74    153.56
  -2   3   3  12766.06    120.71
  -2   3   4  59135.06    518.81
  -2   3   5  36262.17    321.90
  -2   3   6   1511.51     20.24
  -2   3   7  11891.97     76.97
  -2   3   8  25338.27    222.40
  -2   3   9  29719.01    197.38
  -2   3  10   1910.86     24.50
  -2   3  11   3904.16     57.49
  -2   3  12   6477.16     47.67
  -2   3  13   7925.26     44.51
  -2   3  14  17195.38    108.79
  -2   3  15   3110.88     33.94
  -2   3  16   7448.28     47.56
  -2   3  17    693.02     35.99
  -2   3  18    660.34     42.20
  -2   3  19   3170.30     40.00
  -2   3  20    110.44     36.05
  -2   3  21   2702.34     49.30
  -2   3  22   1962.92     43.89
  -2   3  23   1456.07     42.20
  -2   3  24   1386.22     43.06
  -2   3  25   1157.71     48.52
  -2   3  26     56.41     51.06
  -2   4   1   3991.11     36.29
  -2   4   2   5877.59     45.13
  -2   4   3  13016.60    140.69
  -2   4   4  79532.57    439.79
  -2   4   5   6253.97     37.69
  -2   4   6  15619.42    223.89
  -2   4   7  54721.87    363.40
  -2   4   8  11647.95     98.88
  -2   4   9  54396.41    344.67
  -2   4  10   3277.76     28.49
  -2   4  11   4947.16     35.30
  -2   4  12  11726.18     61.85
  -2   4  13  11159.40     68.04
  -2   4  14   4114.40     46.87
  -2   4  15   3077.92     35.40
  -2   4  16   4924.90     45.83
  -2   4  17   3599.14     64.32
  -2   4  18   5879.73    148.56
  -2   4  19   2686.63     78.79
  -2   4  20    155.01     57.92
  -2   4  21    231.00     38.41
  -2   4  22    562.84     40.15
  -2   4  23   1009.70     42.16
  -2   4  24   1768.62     48.99
  -2   4  25     60.88     46.62
  -2   4  26    140.61     43.52
  -2   5   1  78270.69   2420.30
  -2   5   2  32475.22    376.09
  -2   5   3   6504.53     73.90
  -2   5   4   3595.95     49.54
  -2   5   5  18584.65    160.57
  -2   5   6  26493.44    195.38
  -2   5   7   4672.49     83.98
  -2   5   8  24377.91    184.68
  -2   5   9   5174.13     46.11
  -2   5  10   7813.05     65.24
  -2   5  11   1771.76     34.30
  -2   5  12   6425.85     37.57
  -2   5  13   5451.35     41.04
  -2   5  14   1310.13     32.91
  -2   5  15   4471.17     39.72
  -2   5  16    409.96     51.08
  -2   5  17   8000.07     95.96
  -2   5  18   2559.71     49.18
  -2   5  19   3244.86     51.86
  -2   5  20   2035.48     41.19
  -2   5  21    647.47     40.02
  -2   5  22    869.79     41.76
  -2   5  23   5498.01     67.95
  -2   5  24    174.39     42.48
  -2   5  25   1440.48     45.98
  -2   6   1   1239.03     63.28
  -2   6   2  12952.10    372.79
  -2   6   3   7787.48     80.89
  -2   6   4    708.80     24.24
  -2   6   5  14884.18     59.68
  -2   6   6  13577.18    208.96
  -2   6   7  10356.40     56.04
  -2   6   8   2728.76     57.26
  -2   6   9   3339.12     58.41
  -2   6  10   2164.04    120.30
  -2   6  11   8690.27     59.38
  -2   6  12   2925.45     50.04
  -2   6  13   3703.10     53.32
  -2   6  14   1586.30     51.78
  -2   6  15   4247.00     40.74
  -2   6  16    631.27     36.47
  -2   6  17    436.60     37.14
  -2   6  18   1127.10     57.84
  -2   6  19    182.54     38.55
  -2   6  20   3549.24     45.52
  -2   6  21   1223.68     42.51
  -2   6  22    723.05     67.78
  -2   6  23    435.04     52.28
  -2   6  24   2667.35    124.14
  -2   7   1  11653.66    191.85
  -2   7   2  12309.06    591.90
  -2   7   3   6282.75     72.74
  -2   7   4  10339.33    126.57
  -2   7   5  36695.25    424.80
  -2   7   6   6899.62     99.05
  -2   7   7    709.59     42.62
  -2   7   8  11303.92    153.53
  -2   7   9   9660.22     69.33
  -2   7  10   1111.82     70.20
  -2   7  11   7504.96     60.49
  -2   7  12    154.09    124.77
  -2   7  13   2683.27     68.54
  -2   7  14   9549.84    114.38
  -2   7  15   2926.27     88.19
  -2   7  16   7012.00     67.46
  -2   7  17    694.41     80.39
  -2   7  18   1293.53     60.66
  -2   7  19    175.00     97.58
  -2   7  20   3784.75    128.15
  -2   7  21   1063.94     52.80
  -2   7  22     80.92     52.23
  -2   7  23    378.35     54.78
  -2   8   1   5244.51     85.58
  -2   8   2   1990.55     55.66
  -2   8   3   1803.01     48.94
  -2   8   4   3480.48     71.63
  -2   8   5    501.13     45.35
  -2   8   6   9547.63     63.47
  -2   8   7   7252.77    155.15
  -2   8   8   5368.48     57.86
  -2   8   9   1317.71     50.82
  -2   8  10  16771.45    172.17
  -2   8  11   5429.41     72.54
  -2   8  12    355.94     51.14
  -2   8  13    671.31     51.96
  -2   8  14   2149.06     57.39
  -2   8  15    161.41    117.13
  -2   8  16    469.57     55.59
  -2   8  17   2824.82     78.88
  -2   8  18   1151.78     71.59
  -2   8  19    969.01     59.68
  -2   8  20   2333.52     64.80
  -2   8  21   1231.90     64.02
  -2   8  22    109.42     61.48
  -2   9   1    309.98     67.76
  -2   9   2   1174.35     58.85
  -2   9   3   3573.88     88.33
  -2   9   4   2378.94     84.16
  -2   9   5   1116.26     52.67
  -2   9   6    275.75     48.97
  -2   9   7   8139.33     96.28
  -2   9   8   2488.68     76.25
  -2   9   9   2571.62    102.61
  -2   9  10    152.19     51.73
  -2   9  11   1196.29     55.10
  -2   9  12     24.37     53.07
  -2   9  13   1780.08     58.24
  -2   9  14    540.56     55.35
  -2   9  15     71.46     55.57
  -2   9  16   2262.86     61.47
  -2   9  17   4602.07     68.81
  -2   9  18   1356.21     78.02
  -2   9  19   1470.61    116.10
  -2   9  20    628.78     77.48
  -2  10   1   7130.26    370.64
  -2  10   2  10229.16    164.50
  -2  10   3   1891.05     69.69
  -2  10   4   6917.23    128.29
  -2  10   5   2656.09     56.75
  -2  10   6   1461.02     64.83
  -2  10   7  11173.17     75.77
  -2  10   8   1375.49     56.46
  -2  10   9   1527.64     76.61
  -2  10  10   1525.27     57.73
  -2  10  11   1488.36     73.16
  -2  10  12   1462.42     59.51
  -2  10  13    657.96     57.77
  -2  10  14   1230.39     59.80
  -2  10  15    993.94     77.29
  -2  10  16    201.11     76.07
  -2  10  17    514.21     76.54
  -2  10  18   1298.26    109.65
  -2  11   1   1131.08    103.23
  -2  11   2  10276.80    134.77
  -2  11   3   3622.61    160.13
  -2  11   4    457.63     46.89
  -2  11   5    161.71     54.37
  -2  11   6   2463.93     59.82
  -2  11   7     10.33     54.90
  -2  11   8   1598.70     59.74
  -2  11   9   1259.73     59.18
  -2  11  10    726.03     64.55
  -2  11  11    319.85     57.79
  -2  11  12   2346.61    142.41
  -2  11  13    401.24     60.53
  -2  11  14   2135.34     76.34
  -2  11  15    380.65     61.62
  -2  11  16    202.04     61.69
  -2  12   1   3809.60     93.68
  -2  12   2   6643.19     90.49
  -2  12   3    339.60     72.38
  -2  12   4    322.54    104.79
  -2  12   5   1718.12     61.08
  -2  12   6    217.64     57.53
  -2  12   7    267.34     58.19
  -2  12   8   1541.56     61.65
  -2  12   9   1349.08     62.20
  -2  12  10    925.04     61.73
  -2  12  11    458.09     61.68
  -2  12  12   1510.89     64.64
  -2  12  13    348.33     62.13
  -2  13   1    380.17     74.85
  -2  13   2    660.57     76.08
  -2  13   3      0.00     74.20
  -2  13   4   2514.99    120.67
  -2  13   5      0.00     60.11
  -2  13   6     38.91     72.12
  -2  13   7    387.50     61.71
  -2  13   8    416.99     62.27
  -2  13   9    706.92     62.39
  -1 -13  -9     43.78     37.11
  -1 -13  -8    205.99     36.93
  -1 -13  -7    831.59     37.75
  -1 -13  -6    676.90     43.88
  -1 -13  -5    162.39     38.56
  -1 -13  -4    571.85     55.84
  -1 -13  -3   1662.02     70.27
  -1 -13  -2     26.22    106.94
  -1 -13  -1    432.48     76.87
  -1 -13   0    146.19     76.23
  -1 -12 -13   1701.99     41.29
  -1 -12 -12    239.02     36.74
  -1 -12 -11    388.52     36.47
  -1 -12 -10   1153.72     37.00
  -1 -12  -9    311.69     35.79
  -1 -12  -8     30.75     35.00
  -1 -12  -7   1112.62     38.25
  -1 -12  -6    671.67     35.39
  -1 -12  -5    742.47     43.70
  -1 -12  -4   3598.20     39.40
  -1 -12  -3    879.36     75.50
  -1 -12  -2    386.13     76.35
  -1 -12  -1   1262.67     75.55
  -1 -12   0    865.92     74.07
  -1 -11 -16   1959.66     46.35
  -1 -11 -15   3018.70     43.10
  -1 -11 -14    168.74     38.01
  -1 -11 -13     81.46     35.24
  -1 -11 -12   3003.31     41.01
  -1 -11 -11    785.03     35.40
  -1 -11 -10   6767.51     77.16
  -1 -11  -9     70.59     35.50
  -1 -11  -8   2106.89     37.35
  -1 -11  -7    412.68     38.18
  -1 -11  -6   2375.19     36.14
  -1 -11  -5   2398.19     35.67
  -1 -11  -4    465.81     33.04
  -1 -11  -3   3556.36     96.18
  -1 -11  -2    463.73     98.63
  -1 -11  -1   2561.51     75.72
  -1 -11   0   9522.49    201.17
  -1 -10 -18   1069.23     57.69
  -1 -10 -17    408.85     44.70
  -1 -10 -16    259.31     39.83
  -1 -10 -15    293.95     34.93
  -1 -10 -14    475.54     34.56
  -1 -10 -13   2990.22     69.58
  -1 -10 -12   1060.83     34.32
  -1 -10 -11    511.87     33.09
  -1 -10 -10   1859.66     36.79
  -1 -10  -9   5728.80    100.95
  -1 -10  -8   2098.15     51.56
  -1 -10  -7    983.95     45.05
  -1 -10  -6   3419.94     44.91
  -1 -10  -5    396.28     40.97
  -1 -10  -4    306.48     40.66
  -1 -10  -3   6105.25     65.12
  -1 -10  -2   3041.72     71.63
  -1 -10  -1   1071.73     65.22
  -1 -10   0   5390.36     95.44
  -1  -9 -20    530.92     45.49
  -1  -9 -19    267.04     55.63
  -1  -9 -18    806.68     44.08
  -1  -9 -17    462.12     34.95
  -1  -9 -16    588.84     38.83
  -1  -9 -15    638.14     33.78
  -1  -9 -14    704.49     35.11
  -1  -9 -13   3778.69     42.76
  -1  -9 -12    712.21     32.03
  -1  -9 -11     84.13     30.75
  -1  -9 -10   2793.08     47.41
  -1  -9  -9     21.85     29.80
  -1  -9  -8   5478.70     61.27
  -1  -9  -7  11865.08    121.23
  -1  -9  -6     51.33     28.66
  -1  -9  -5   7442.68     57.44
  -1  -9  -4   2999.22     79.08
  -1  -9  -3   4511.36     56.91
  -1  -9  -2   1704.74     50.75
  -1  -9  -1   1295.31     96.93
  -1  -9   0   2675.36     93.91
  -1  -8 -21     29.76     35.76
  -1  -8 -20    111.53     35.21
  -1  -8 -19   2462.95     37.75
  -1  -8 -18   2221.75     49.02
  -1  -8 -17   5261.63     52.05
  -1  -8 -16    918.28     42.02
  -1  -8 -15     98.35     35.70
  -1  -8 -14    226.36     31.09
  -1  -8 -13   4060.60     52.63
  -1  -8 -12   4740.30     37.45
  -1  -8 -11    939.42     29.86
  -1  -8 -10   3760.92     49.57
  -1  -8  -9  26920.60    136.77
  -1  -8  -8   2210.62     32.95
  -1  -8  -7  14936.63     77.86
  -1  -8  -6   4806.02     43.81
  -1  -8  -5   2846.96     29.19
  -1  -8  -4   8974.40     51.75
  -1  -8  -3   1426.15     31.94
  -1  -8  -2    115.96     43.67
  -1  -8  -1   1497.35     62.28
  -1  -8   0   3395.26     58.36
  -1  -7 -23    157.35     63.95
  -1  -7 -22    250.43     44.23
  -1  -7 -21     61.77     52.35
  -1  -7 -20    189.87     42.46
  -1  -7 -19    594.45     42.47
  -1  -7 -18   1194.13     37.01
  -1  -7 -17   2786.34     55.78
  -1  -7 -16   5026.90     49.98
  -1  -7 -15    390.71     32.33
  -1  -7 -14  11787.55     55.52
  -1  -7 -13    890.35     35.93
  -1  -7 -12   3848.95     34.32
  -1  -7 -11    649.87     33.98
  -1  -7 -10   2112.99     28.63
  -1  -7  -9   4002.33     51.98
  -1  -7  -8     66.47     25.90
  -1  -7  -7   3400.27     27.89
  -1  -7  -6  11710.57     55.58
  -1  -7  -5    782.07     23.80
  -1  -7  -4   6857.55     73.97
  -1  -7  -3   5295.27     40.00
  -1  -7  -2   6423.66     57.16
  -1  -7  -1  11549.85     69.96
  -1  -7   0   1157.51     55.41
  -1  -6 -24    754.88     73.39
  -1  -6 -23   1804.41     58.38
  -1  -6 -22   7328.73    216.74
  -1  -6 -21    525.34     43.20
  -1  -6 -20   1728.48     43.67
  -1  -6 -19    146.48     44.35
  -1  -6 -18   1359.45     57.55
  -1  -6 -17   2615.76     41.86
  -1  -6 -16  10093.17    101.28
  -1  -6 -15   8597.99     68.04
  -1  -6 -14  16519.44    115.09
  -1  -6 -13   6926.99     75.09
  -1  -6 -12   3060.83     29.35
  -1  -6 -11   8475.33     67.45
  -1  -6 -10   1783.94     36.53
  -1  -6  -9  14231.17     63.45
  -1  -6  -8   3484.03     26.46
  -1  -6  -7   5106.36     42.23
  -1  -6  -6   1113.64     22.35
  -1  -6  -5   7578.90     30.18
  -1  -6  -4  10480.64     37.46
  -1  -6  -3   9556.60     51.15
  -1  -6  -2  25702.26    246.96
  -1  -6  -1  20000.50    300.93
  -1  -6   0   8744.64     59.61
  -1  -5 -25   1019.17     67.10
  -1  -5 -24    820.73     56.24
  -1  -5 -23     80.55     61.20
  -1  -5 -22    463.86     50.53
  -1  -5 -21    952.03     42.62
  -1  -5 -20   5135.48     58.16
  -1  -5 -19    929.48     49.33
  -1  -5 -18    443.31     38.07
  -1  -5 -17   5899.42     90.40
  -1  -5 -16   8221.08    107.41
  -1  -5 -15  15537.50    123.43
  -1  -5 -14   7422.44     56.40
  -1  -5 -13   5498.00     52.52
  -1  -5 -12  14363.67     94.64
  -1  -5 -11   4511.70     49.69
  -1  -5 -10   4418.36     33.68
  -1  -5  -9     57.96     22.37
  -1  -5  -8   1793.56     23.32
  -1  -5  -7  14569.86     67.23
  -1  -5  -6   6094.25     33.61
  -1  -5  -5  11416.79     64.94
  -1  -5  -4   4182.30     34.02
  -1  -5  -3  23881.62    119.35
  -1  -5  -2  19698.76    100.02
  -1  -5  -1   6266.94     62.23
  -1  -5   0  154183.8    668.77
  -1  -4 -25    172.29     44.69
  -1  -4 -24     95.79     43.35
  -1  -4 -23    840.92     51.38
  -1  -4 -22   3836.98     47.21
  -1  -4 -21    692.42     41.32
  -1  -4 -20    118.73     39.17
  -1  -4 -19   1725.65     40.43
  -1  -4 -18  10928.91    126.93
  -1  -4 -17   3214.59     49.85
  -1  -4 -16  13067.71     79.44
  -1  -4 -15   2831.04     49.81
  -1  -4 -14    898.08     40.47
  -1  -4 -13  10239.90     79.66
  -1  -4 -12   2022.73     35.49
  -1  -4 -11   4902.39     43.39
  -1  -4 -10  16110.15     78.09
  -1  -4  -9  23549.14    138.29
  -1  -4  -8  10034.87     49.86
  -1  -4  -7  11666.23     46.81
  -1  -4  -6  15506.87     75.22
  -1  -4  -5   1423.98     17.45
  -1  -4  -4  10655.47     49.41
  -1  -4  -3  25008.47    151.74
  -1  -4  -2  18083.35     91.13
  -1  -4  -1   4576.24     90.32
  -1  -4   0  121617.3    467.71
  -1  -3 -26   2941.02     55.27
  -1  -3 -25    376.32     49.94
  -1  -3 -24    391.46     43.40
  -1  -3 -23   8067.17    115.83
  -1  -3 -22    185.21     40.47
  -1  -3 -21   2600.03     43.39
  -1  -3 -20   4429.29     49.32
  -1  -3 -19   1964.82     39.99
  -1  -3 -18    569.88     36.17
  -1  -3 -17   2603.84     38.04
  -1  -3 -16    322.63     33.01
  -1  -3 -15  11478.06     61.14
  -1  -3 -14   7913.84     57.23
  -1  -3 -13   7321.29     37.76
  -1  -3 -12   4251.09     38.51
  -1  -3 -11   6747.68     36.51
  -1  -3 -10   8299.62     54.44
  -1  -3  -9   5953.36     58.32
  -1  -3  -8  40072.19    219.39
  -1  -3  -7  75003.63    669.03
  -1  -3  -6   4119.68     36.54
  -1  -3  -5  22771.77    305.55
  -1  -3  -4   6718.29     33.01
  -1  -3  -3  62666.39    501.91
  -1  -3  -2  83725.94    424.93
  -1  -3  -1   4409.04     25.06
  -1  -3   0  55005.41    217.58
  -1  -2 -26    216.75     44.68
  -1  -2 -25     56.12     43.33
  -1  -2 -24   2161.69     45.90
  -1  -2 -23   6013.28     87.37
  -1  -2 -22   2418.34     45.87
  -1  -2 -21   1597.65     45.29
  -1  -2 -20    846.61     38.79
  -1  -2 -19   5442.74     58.91
  -1  -2 -18   1096.98     36.45
  -1  -2 -17  14924.74    103.36
  -1  -2 -16   3089.15     35.98
  -1  -2 -15   3860.98     35.65
  -1  -2 -14   3222.39     33.16
  -1  -2 -13   1875.03     34.34
  -1  -2 -12  11698.52     49.92
  -1  -2 -11   5857.52     35.93
  -1  -2 -10  14101.63     68.21
  -1  -2  -9  55109.16    769.72
  -1  -2  -8  28147.25    157.12
  -1  -2  -7  45633.15    360.20
  -1  -2  -6   5756.37     33.34
  -1  -2  -5   5764.75     60.48
  -1  -2  -4  41444.67    337.75
  -1  -2  -3  81860.18    783.60
  -1  -2  -2  63459.20    387.66
  -1  -2  -1  152571.5    645.18
  -1  -2   0  13176.72     78.95
  -1  -1 -26    649.59     45.46
  -1  -1 -25    472.87     43.78
  -1  -1 -24   2794.47     60.99
  -1  -1 -23   1605.29     53.56
  -1  -1 -22   2456.07     53.75
  -1  -1 -21    194.43     53.52
  -1  -1 -20    808.24     54.78
  -1  -1 -19  16526.15     88.47
  -1  -1 -18    144.36     40.62
  -1  -1 -17  12621.38    110.04
  -1  -1 -16  11183.94     68.61
  -1  -1 -15   2859.27     42.25
  -1  -1 -14   2240.73     51.66
  -1  -1 -13   6726.03     42.97
  -1  -1 -12  11256.38     53.36
  -1  -1 -11   6751.79     45.39
  -1  -1 -10  18358.91    114.17
  -1  -1  -9  34350.28    188.82
  -1  -1  -8  21594.37    147.18
  -1  -1  -7  13383.07    127.80
  -1  -1  -6  38198.32    355.54
  -1  -1  -5  149009.5   1310.26
  -1  -1  -4  70785.63    680.54
  -1  -1  -3  281808.6   1155.53
  -1  -1  -2  209770.2   1334.89
  -1  -1  -1   4956.56     46.22
  -1  -1   0  49355.12    309.55
  -1   0   1   6278.20     37.50
  -1   0   2  400532.9   1923.70
  -1   0   3    530.42     10.96
  -1   0   4  500902.1   1962.44
  -1   0   5   1118.90     13.12
  -1   0   6  194750.5   1256.97
  -1   0   7  15666.14    110.46
  -1   0   8  23532.61    164.71
  -1   0   9  11421.45    111.98
  -1   0  10   4696.48     25.51
  -1   0  11   5413.48     40.35
  -1   0  12     53.36     25.46
  -1   0  13  11905.38     55.45
  -1   0  14   2528.51     36.64
  -1   0  15   1288.50     41.19
  -1   0  16   5509.42     46.02
  -1   0  17  19165.84     98.54
  -1   0  18   1421.89     34.96
  -1   0  19  12869.82     63.44
  -1   0  20    177.91     44.03
  -1   0  21    278.23     59.14
  -1   0  22   1597.59     49.51
  -1   0  23   5551.26     59.50
  -1   0  24   2125.03     68.38
  -1   0  25    297.44     51.41
  -1   0  26    664.48     53.59
  -1   0  27    127.45     63.02
  -1   1   1  148049.6    543.26
  -1   1   2  78898.87    726.84
  -1   1   3  116718.4    931.96
  -1   1   4  112868.2    628.78
  -1   1   5  35773.78    248.01
  -1   1   6  50466.03    414.11
  -1   1   7  92814.92    418.54
  -1   1   8  25060.90    237.64
  -1   1   9  66613.06    374.88
  -1   1  10  19134.21    110.78
  -1   1  11  53267.16    344.78
  -1   1  12  10009.96     46.97
  -1   1  13   1606.25     27.33
  -1   1  14   1799.74     32.07
  -1   1  15  14769.76     76.01
  -1   1  16  10389.50     69.19
  -1   1  17  19755.87     81.48
  -1   1  18   2135.56     39.79
  -1   1  19    682.98     35.55
  -1   1  20     64.36     38.10
  -1   1  21    304.62     47.17
  -1   1  22   4372.35     57.06
  -1   1  23   5326.58     84.89
  -1   1  24   5285.25     72.86
  -1   1  25    308.95     51.59
  -1   1  26    306.29     52.87
  -1   1  27   1234.82     63.82
  -1   2   1  42316.57    265.03
  -1   2   2  65393.30    530.16
  -1   2   3  168699.1    675.50
  -1   2   4  58684.22    392.59
  -1   2   5  95597.29    920.54
  -1   2   6   1280.04     19.22
  -1   2   7  52283.09    453.64
  -1   2   8  53043.61    480.93
  -1   2   9  23223.81    180.67
  -1   2  10  22935.45    197.39
  -1   2  11  11887.24     58.07
  -1   2  12   3115.00     39.98
  -1   2  13   7928.15     41.07
  -1   2  14   6034.80     38.86
  -1   2  15   2929.43     36.24
  -1   2  16  13530.62    117.03
  -1   2  17   2994.79     40.08
  -1   2  18    855.42     34.78
  -1   2  19   6531.18     44.42
  -1   2  20   9752.83     78.03
  -1   2  21    374.37     38.17
  -1   2  22   2749.86     43.23
  -1   2  23    731.82     44.96
  -1   2  24   2784.18     70.45
  -1   2  25     69.68     42.25
  -1   2  26   1307.19     45.33
  -1   3   1  91485.77    369.50
  -1   3   2  89521.74    661.77
  -1   3   3  31493.62    282.92
  -1   3   4   8824.40     82.37
  -1   3   5   4548.88     31.13
  -1   3   6   8606.66     99.82
  -1   3   7  30866.64    201.18
  -1   3   8  34240.36    306.18
  -1   3   9  32382.86    245.44
  -1   3  10  25988.83    175.51
  -1   3  11   1217.05     28.31
  -1   3  12    435.37     25.98
  -1   3  13   8573.67     46.91
  -1   3  14   1723.74     30.97
  -1   3  15   2981.07     34.34
  -1   3  16   4301.12     37.79
  -1   3  17    386.47     39.93
  -1   3  18  13063.48     71.58
  -1   3  19   1933.41     38.66
  -1   3  20    892.68     38.19
  -1   3  21    371.47     38.55
  -1   3  22    312.41     39.56
  -1   3  23   2239.78     50.05
  -1   3  24    156.94     41.80
  -1   3  25     74.63     42.47
  -1   3  26    807.70     49.46
  -1   4   1  10009.95    123.24
  -1   4   2  19313.69    187.63
  -1   4   3  59577.64    390.92
  -1   4   4   8036.24     38.81
  -1   4   5   5311.51     36.30
  -1   4   6   9130.59     56.43
  -1   4   7  23752.73    209.45
  -1   4   8  14933.53    131.94
  -1   4   9   5479.94     40.59
  -1   4  10   3069.52     31.79
  -1   4  11  25072.71    146.45
  -1   4  12   2433.92     30.61
  -1   4  13   6560.86     43.52
  -1   4  14  20750.23     85.49
  -1   4  15   7995.07     42.19
  -1   4  16  15180.07     85.12
  -1   4  17   5194.30     74.42
  -1   4  18   3746.69     58.64
  -1   4  19    552.09     78.43
  -1   4  20   6758.41    151.07
  -1   4  21   2261.03     42.94
  -1   4  22    166.12     40.36
  -1   4  23   2082.50     44.64
  -1   4  24   1547.70     48.85
  -1   4  25    262.89     43.69
  -1   4  26   2338.23     95.71
  -1   5   1   1893.41    184.95
  -1   5   2  25586.83    279.88
  -1   5   3  14454.10    110.93
  -1   5   4  43467.44    238.41
  -1   5   5   3674.51     41.67
  -1   5   6  13797.00     74.85
  -1   5   7   1604.17     42.42
  -1   5   8   8335.31     62.85
  -1   5   9      7.65     36.54
  -1   5  10   2011.69     36.91
  -1   5  11  21122.10     91.58
  -1   5  12     81.08     29.18
  -1   5  13  10337.34     44.58
  -1   5  14    738.73     32.81
  -1   5  15   3364.79     41.94
  -1   5  16    174.49     41.98
  -1   5  17  16077.32     69.31
  -1   5  18   4459.93     53.22
  -1   5  19   1644.84     58.53
  -1   5  20    812.79     40.21
  -1   5  21    557.60     40.93
  -1   5  22   4277.89     66.88
  -1   5  23   3746.14     51.77
  -1   5  24   1182.44     45.30
  -1   5  25   1694.76     47.51
  -1   6   1  48464.05    393.44
  -1   6   2  20352.96    351.03
  -1   6   3   3021.80     51.05
  -1   6   4  12758.82    123.12
  -1   6   5   2268.75     55.78
  -1   6   6   5365.27     96.16
  -1   6   7  16056.80     77.10
  -1   6   8     68.61     38.53
  -1   6   9   1519.73     43.35
  -1   6  10    119.11     41.15
  -1   6  11   1849.09     64.91
  -1   6  12   4467.95     53.37
  -1   6  13   2398.26     51.05
  -1   6  14   8582.10     57.52
  -1   6  15   2966.57     39.64
  -1   6  16   8474.74     48.54
  -1   6  17   2292.93     44.81
  -1   6  18   2662.05     51.58
  -1   6  19    692.99     39.97
  -1   6  20    817.56     41.24
  -1   6  21    765.84     42.36
  -1   6  22    779.00     53.13
  -1   6  23    366.71     53.78
  -1   6  24   1794.41     60.78
  -1   7   1   9695.49    222.47
  -1   7   2   6158.93    175.19
  -1   7   3   1614.95     42.83
  -1   7   4   6373.23     70.86
  -1   7   5    245.25     68.27
  -1   7   6   2660.12     45.95
  -1   7   7   4761.92     60.13
  -1   7   8   3219.15     62.20
  -1   7   9  36185.33    209.50
  -1   7  10   8140.44    106.11
  -1   7  11   2066.04     50.99
  -1   7  12    492.57     95.01
  -1   7  13   4149.40     58.13
  -1   7  14  12566.14     75.27
  -1   7  15   8698.50     69.97
  -1   7  16   8425.22    140.13
  -1   7  17   3671.67     77.89
  -1   7  18   5895.78     69.36
  -1   7  19   1856.43     63.32
  -1   7  20     41.74     54.15
  -1   7  21   1321.09     73.11
  -1   7  22   2878.07     68.70
  -1   7  23    462.74     54.95
  -1   8   1   6654.49    164.57
  -1   8   2   5751.94    169.51
  -1   8   3    260.59     45.08
  -1   8   4  17244.02     71.28
  -1   8   5   2389.60     50.64
  -1   8   6      0.00     77.02
  -1   8   7   6443.52     71.97
  -1   8   8   5677.23     58.42
  -1   8   9   1232.70     50.54
  -1   8  10   6488.59    101.84
  -1   8  11    749.59     51.18
  -1   8  12    262.83     51.19
  -1   8  13   1829.18     55.78
  -1   8  14   3190.06     93.12
  -1   8  15   1092.24     69.87
  -1   8  16   3097.83     61.89
  -1   8  17   1223.78     58.80
  -1   8  18    180.09     57.76
  -1   8  19    425.38     58.99
  -1   8  20    795.13     61.30
  -1   8  21    925.64     97.78
  -1   8  22    800.79     75.55
  -1   9   1   2677.21    128.21
  -1   9   2    198.79     64.93
  -1   9   3   1637.43     60.79
  -1   9   4   1989.75     38.54
  -1   9   5   2687.57     72.46
  -1   9   6    477.11     49.52
  -1   9   7  14713.20    164.52
  -1   9   8    500.76     51.65
  -1   9   9  14844.45    195.76
  -1   9  10   1413.34    141.47
  -1   9  11   1499.85     55.78
  -1   9  12   2133.57     73.07
  -1   9  13   5986.75     68.37
  -1   9  14    179.86     55.21
  -1   9  15    105.18     56.53
  -1   9  16    409.55     57.98
  -1   9  17    653.98     59.48
  -1   9  18   1310.52     78.50
  -1   9  19     64.59    103.96
  -1   9  20    192.71    108.99
  -1  10   1   9710.10    305.28
  -1  10   2    944.01     64.14
  -1  10   3    449.85     62.86
  -1  10   4    212.30     39.22
  -1  10   5   3639.37     78.92
  -1  10   6   4921.15     63.11
  -1  10   7    106.89     52.95
  -1  10   8   6259.24    119.73
  -1  10   9    921.37     55.87
  -1  10  10   2386.45     60.21
  -1  10  11   3166.87     67.68
  -1  10  12   3654.70    108.94
  -1  10  13   2850.49     74.32
  -1  10  14   1610.58     61.31
  -1  10  15    459.77     74.78
  -1  10  16   1793.25    108.64
  -1  10  17   1839.49    111.95
  -1  10  18   1043.16    112.68
  -1  11   1   1094.13     71.39
  -1  11   2   3780.46    167.08
  -1  11   3    754.05     68.43
  -1  11   4   5924.73    123.19
  -1  11   5   1825.62     58.66
  -1  11   6    461.13     55.79
  -1  11   7     28.32     67.38
  -1  11   8   1052.55     59.10
  -1  11   9   1508.62     60.45
  -1  11  10    806.38    109.03
  -1  11  11   1954.93     62.63
  -1  11  12     67.62    106.14
  -1  11  13    794.72     61.39
  -1  11  14    670.81     61.37
  -1  11  15    280.76     61.91
  -1  11  16    300.11     62.86
  -1  12   1    588.28     71.93
  -1  12   2    142.60     71.07
  -1  12   3   2164.85     77.33
  -1  12   4   1220.51    107.18
  -1  12   5   1813.28     62.17
  -1  12   6    307.26     57.61
  -1  12   7    598.99     59.25
  -1  12   8    996.63     63.13
  -1  12   9    651.18     60.70
  -1  12  10   1265.27     62.99
  -1  12  11   1917.49     65.23
  -1  12  12    747.25     63.55
  -1  12  13   1249.79     65.31
  -1  13   1    107.85    104.22
  -1  13   2    220.96     74.47
  -1  13   3     86.78     74.95
  -1  13   4   3534.19    122.88
  -1  13   5    133.00     60.90
  -1  13   6   2166.83     65.51
  -1  13   7    582.43    121.30
  -1  13   8    188.12     61.27
  -1  13   9    586.97     63.03
   0 -13  -9   1068.78     50.23
   0 -13  -8    458.20     37.19
   0 -13  -7    932.02     37.44
   0 -13  -6    328.17     40.62
   0 -13  -5    676.20     36.83
   0 -13  -4    364.39     54.61
   0 -13  -3    663.42     64.34
   0 -13  -2    877.53     99.70
   0 -13  -1    403.77     91.80
   0 -12 -13    555.61     37.22
   0 -12 -12    136.58     36.18
   0 -12 -11    682.32     38.81
   0 -12 -10    687.81     38.73
   0 -12  -9   1746.70     39.37
   0 -12  -8    773.31     36.00
   0 -12  -7   1052.95     38.33
   0 -12  -6     87.61     34.25
   0 -12  -5    857.60     35.23
   0 -12  -4    515.77     36.66
   0 -12  -3   3041.47    122.44
   0 -12  -2   3109.22     81.61
   0 -12  -1   2648.44     80.58
   0 -12   0   4934.72    122.41
   0 -11 -16    457.92     38.78
   0 -11 -15    146.16     35.71
   0 -11 -14    188.31     37.57
   0 -11 -13    934.06     35.96
   0 -11 -12    129.96     34.44
   0 -11 -11    588.12     40.84
   0 -11 -10   1536.89     38.26
   0 -11  -9    302.42     33.32
   0 -11  -8    444.85     33.47
   0 -11  -7   1616.11     36.95
   0 -11  -6   2426.64     35.78
   0 -11  -5   2282.48     43.52
   0 -11  -4   1260.49     71.68
   0 -11  -3   3684.42     64.18
   0 -11  -2   9548.63     94.52
   0 -11  -1  12397.13    100.13
   0 -10 -18    970.30     58.21
   0 -10 -17   4480.56     86.61
   0 -10 -16   1759.50     42.55
   0 -10 -15     25.96     36.05
   0 -10 -14   1503.36     39.69
   0 -10 -13   3008.97     54.19
   0 -10 -12   2173.44     35.44
   0 -10 -11   1728.07     34.50
   0 -10 -10   1474.69     33.72
   0 -10  -9   1145.41     41.24
   0 -10  -8    274.74     31.24
   0 -10  -7   4008.97     40.40
   0 -10  -6   4138.63     43.21
   0 -10  -5    240.52     33.79
   0 -10  -4    594.26     37.11
   0 -10  -3    152.15     89.30
   0 -10  -2    394.91     63.04
   0 -10  -1    435.29     63.25
   0 -10   0   2734.57     98.20
   0  -9 -20     45.42     43.32
   0  -9 -19     72.37     37.58
   0  -9 -18    722.69     48.41
   0  -9 -17    542.07     46.04
   0  -9 -16   2296.95     51.31
   0  -9 -15     65.31     32.44
   0  -9 -14   1127.35     37.89
   0  -9 -13   2035.09     47.88
   0  -9 -12    383.55     33.09
   0  -9 -11   4515.14     56.11
   0  -9 -10   5114.89     68.90
   0  -9  -9   5378.27     44.85
   0  -9  -8   1314.58     31.83
   0  -9  -7  18657.43    119.80
   0  -9  -6   5492.27     36.84
   0  -9  -5   2890.32     31.64
   0  -9  -4   6790.59    123.01
   0  -9  -3   6862.04    113.24
   0  -9  -2    333.50     58.14
   0  -9  -1  10235.59     80.97
   0  -8 -22    156.94     41.33
   0  -8 -21    414.68     35.71
   0  -8 -20    241.69     44.64
   0  -8 -19   2513.29     60.55
   0  -8 -18   2234.54     38.64
   0  -8 -17    414.05     32.92
   0  -8 -16   2648.93     48.14
   0  -8 -15   2886.88     40.95
   0  -8 -14   4168.92     47.57
   0  -8 -13   3561.05     46.47
   0  -8 -12     36.95     31.97
   0  -8 -11    597.14     28.99
   0  -8 -10   3154.81     44.78
   0  -8  -9   1905.86     29.90
   0  -8  -8  13307.71    105.39
   0  -8  -7   5504.00     74.30
   0  -8  -6   1323.01     27.24
   0  -8  -5   4120.20     30.14
   0  -8  -4   4686.79     36.95
   0  -8  -3   4345.63     91.13
   0  -8  -2  14086.75     81.99
   0  -8  -1    100.44     71.07
   0  -8   0   4418.89     87.95
   0  -7 -23     69.18     48.71
   0  -7 -22    183.38     43.71
   0  -7 -21     33.68     42.80
   0  -7 -20   8340.05    112.11
   0  -7 -19    436.25     41.62
   0  -7 -18   1568.08     34.05
   0  -7 -17    689.31     34.40
   0  -7 -16   1692.07     35.92
   0  -7 -15    168.89     39.25
   0  -7 -14   6522.47     61.54
   0  -7 -13   1026.02     29.38
   0  -7 -12    876.07     31.87
   0  -7 -11   3249.35     30.45
   0  -7 -10  23117.38    110.31
   0  -7  -9   1725.01     39.42
   0  -7  -8   5671.78     53.71
   0  -7  -7   9315.79     69.37
   0  -7  -6   1331.18     26.01
   0  -7  -5  11198.77     58.14
   0  -7  -4    300.22     27.64
   0  -7  -3   3602.21     31.68
   0  -7  -2      0.00     45.64
   0  -7  -1    460.64     53.54
   0  -6 -24    267.22     55.02
   0  -6 -23   2554.87     59.65
   0  -6 -22    557.85     53.73
   0  -6 -21    836.63     43.00
   0  -6 -20   4493.10     53.47
   0  -6 -19   1708.54     57.04
   0  -6 -18   2865.95     52.34
   0  -6 -17   2632.09     48.05
   0  -6 -16   4844.77     43.64
   0  -6 -15   8864.84     70.26
   0  -6 -14   1486.12     43.90
   0  -6 -13   2267.32     30.86
   0  -6 -12    308.15     25.49
   0  -6 -11   3103.87     58.38
   0  -6 -10   7975.82     46.94
   0  -6  -9    356.69     24.62
   0  -6  -8   6791.59     68.93
   0  -6  -7   4032.73     25.86
   0  -6  -6  13552.73     49.17
   0  -6  -5  45783.37    230.48
   0  -6  -4   1840.38     52.83
   0  -6  -3  23342.73    119.89
   0  -6  -2  26447.94    197.77
   0  -6  -1  20866.74    378.60
   0  -6   0  123314.0   1097.32
   0  -5 -25    839.77     54.87
   0  -5 -24   1845.82     57.81
   0  -5 -23   2441.79     70.64
   0  -5 -22   1025.07     75.06
   0  -5 -21   1005.74     41.95
   0  -5 -20     94.71     42.64
   0  -5 -19   2907.04     66.40
   0  -5 -18    679.22     38.16
   0  -5 -17   6802.74     50.33
   0  -5 -16   1755.42     89.58
   0  -5 -15    446.50     33.86
   0  -5 -14   2575.01     35.70
   0  -5 -13  17842.35    161.41
   0  -5 -12   1754.07     32.22
   0  -5 -11  10475.27     72.54
   0  -5 -10    202.48     32.72
   0  -5  -9  13342.49     70.88
   0  -5  -8   1327.15     21.38
   0  -5  -7   5048.42     35.52
   0  -5  -6  38174.96    247.61
   0  -5  -5  18882.63     84.67
   0  -5  -4  35757.57    221.94
   0  -5  -3  29887.55    158.03
   0  -5  -2  18344.40    218.21
   0  -5  -1   1094.90     30.73
   0  -4 -25   1036.29     50.12
   0  -4 -24   2461.81     46.69
   0  -4 -23   2291.21     49.88
   0  -4 -22   3356.92     45.77
   0  -4 -21    370.18     39.75
   0  -4 -20    380.24     42.69
   0  -4 -19   2233.09     54.38
   0  -4 -18   1884.60     53.87
   0  -4 -17   1640.18     45.83
   0  -4 -16   6891.20     67.31
   0  -4 -15     85.34     31.90
   0  -4 -14   1020.43     35.11
   0  -4 -13  15134.85     53.12
   0  -4 -12  11594.65     74.45
   0  -4 -11  12980.15     81.24
   0  -4 -10   1016.72     28.90
   0  -4  -9  40656.08    289.53
   0  -4  -8    546.02     23.28
   0  -4  -7  57273.41    548.12
   0  -4  -6  13789.75     82.18
   0  -4  -5  20066.45     93.96
   0  -4  -4  21795.52    122.43
   0  -4  -3  10729.02     56.84
   0  -4  -2   4537.72     24.22
   0  -4  -1   6750.15     23.93
   0  -4   0   5351.67     31.93
   0  -3 -26    209.87     44.56
   0  -3 -25    319.64     43.53
   0  -3 -24   1359.38     44.41
   0  -3 -23    377.81     41.60
   0  -3 -22   3033.86     70.90
   0  -3 -21    850.73     43.19
   0  -3 -20    117.71     41.03
   0  -3 -19   2484.60     39.86
   0  -3 -18    242.82     35.04
   0  -3 -17  10255.53     55.26
   0  -3 -16   2429.12     35.39
   0  -3 -15   3106.29     56.38
   0  -3 -14   3310.61     36.04
   0  -3 -13    927.10     28.82
   0  -3 -12  10305.58     72.32
   0  -3 -11   4823.21     37.44
   0  -3 -10     91.23     23.09
   0  -3  -9  67471.19    496.55
   0  -3  -8  30713.55    174.80
   0  -3  -7  88134.04    561.21
   0  -3  -6   9323.10     59.26
   0  -3  -5  17152.92    180.41
   0  -3  -4  103745.4    566.32
   0  -3  -3  20043.89    106.00
   0  -3  -2   1431.55     15.52
   0  -3  -1  69253.97    310.31
   0  -2 -26    638.89     44.80
   0  -2 -25   1689.01     45.27
   0  -2 -24   2424.84    103.30
   0  -2 -23   1775.07     43.56
   0  -2 -22   1228.62     41.33
   0  -2 -21    550.03     39.04
   0  -2 -20    190.65     40.81
   0  -2 -19   3778.48     41.33
   0  -2 -18   3429.16     58.49
   0  -2 -17   1103.88     37.64
   0  -2 -16   9356.43     45.42
   0  -2 -15   4365.05     35.50
   0  -2 -14  26627.13    162.17
   0  -2 -13  28702.31    230.54
   0  -2 -12   5153.17     36.62
   0  -2 -11    932.89     29.48
   0  -2 -10   3984.54     38.79
   0  -2  -9  39937.70    458.62
   0  -2  -8  11801.01    114.86
   0  -2  -7  54760.79    395.93
   0  -2  -6  13843.59    111.26
   0  -2  -5  36779.96    194.96
   0  -2  -4  158944.9   1695.01
   0  -2  -3  63359.37    543.89
   0  -2  -2  170079.1    615.07
   0  -2  -1  63047.48    249.07
   0  -2   0  172029.3    941.33
   0  -1 -27   1262.53     50.68
   0  -1 -26   2736.40     77.41
   0  -1 -25   1143.10     44.40
   0  -1 -24   3267.54     52.92
   0  -1 -23   2321.52    112.68
   0  -1 -22   1383.69     50.43
   0  -1 -21   1564.33     49.08
   0  -1 -20   6030.14     75.01
   0  -1 -19   1347.85     40.91
   0  -1 -18  10677.34     51.87
   0  -1 -17   1617.69     41.68
   0  -1 -16  11117.91     52.97
   0  -1 -15  17275.27     64.98
   0  -1 -14  10295.12     56.92
   0  -1 -13   7100.55     53.49
   0  -1 -12   8515.10     66.94
   0  -1 -11  11100.78     72.24
   0  -1 -10  26273.79    180.45
   0  -1  -9  14099.67    120.69
   0  -1  -8  68056.66    694.78
   0  -1  -7  11072.20     89.61
   0  -1  -6  44100.84    336.16
   0  -1  -5   9100.23     65.88
   0  -1  -4  35326.57    228.69
   0  -1  -3  67852.09    793.04
   0  -1  -2  33779.77    325.72
   0  -1  -1  140593.9    456.31
   0   0   1   2362.22     36.00
   0   0   2  697452.2   5454.52
   0   0   3  24324.15    184.94
   0   0   4  24187.49    163.66
   0   0   5   7904.82     97.86
   0   0   6  90472.77    933.68
   0   0   7   3615.92     28.04
   0   0   8   2672.60     24.10
   0   0   9  27849.19    182.42
   0   0  10   4840.94     30.77
   0   0  11     69.60     27.03
   0   0  12   1562.61     34.02
   0   0  13    142.61     28.29
   0   0  14     13.72     43.67
   0   0  15  22120.93     87.75
   0   0  16    190.95     37.35
   0   0  17   3223.87     45.15
   0   0  18   4761.35     54.59
   0   0  19     55.75     38.47
   0   0  20  17512.10    112.47
   0   0  21    427.41     46.37
   0   0  22   1426.65     50.30
   0   0  23    583.40     49.99
   0   0  24   1054.72     60.76
   0   0  25    230.32     52.61
   0   0  26    669.51     62.55
   0   0  27   1184.92     67.65
   0   1   1  139171.8    746.47
   0   1   2  33882.19    264.00
   0   1   3  69113.12    395.31
   0   1   4  35042.52    259.29
   0   1   5   9017.16    100.46
   0   1   6  43589.50    301.06
   0   1   7  11004.17    112.69
   0   1   8  67712.14    380.52
   0   1   9  13908.98    113.29
   0   1  10  26127.32    148.39
   0   1  11  11163.09     88.24
   0   1  12   8515.14     53.09
   0   1  13   7029.24     48.59
   0   1  14  10104.92    140.84
   0   1  15  17165.32     78.33
   0   1  16  11161.24     55.30
   0   1  17   1615.19     34.62
   0   1  18  10666.59     81.88
   0   1  19   1302.19     37.06
   0   1  20   6242.59     82.90
   0   1  21   1589.01     40.27
   0   1  22   1370.74     41.47
   0   1  23   2359.51     63.36
   0   1  24   3257.15     86.49
   0   1  25   1218.01     54.46
   0   1  26   2774.23     58.95
   0   1  27   1239.57     66.35
   0   2   0  173413.7   2612.21
   0   2   1  63110.37    306.74
   0   2   2  168498.6   1257.42
   0   2   3  62632.33    392.46
   0   2   4  158667.4   3445.59
   0   2   5  37042.71    347.27
   0   2   6  13734.32     86.39
   0   2   7  54294.82    409.54
   0   2   8  11780.88     57.24
   0   2   9  40162.24    311.42
   0   2  10   3919.30     33.16
   0   2  11    942.76     27.09
   0   2  12   5201.39     31.72
   0   2  13  28693.72    148.65
   0   2  14  26112.10    140.07
   0   2  15   4299.74     35.66
   0   2  16   9456.59     77.35
   0   2  17   1103.79     34.43
   0   2  18   3383.75     50.08
   0   2  19   3803.03     41.54
   0   2  20    218.06     40.99
   0   2  21    664.73     54.50
   0   2  22   1210.22     50.58
   0   2  23   1739.77     47.68
   0   2  24   2382.89     70.80
   0   2  25   1599.94     52.38
   0   2  26    689.03     45.55
   0   3   1  69427.96    385.35
   0   3   2   1433.01     15.53
   0   3   3  19867.93    164.30
   0   3   4  103387.6    591.52
   0   3   5  17338.82    103.70
   0   3   6   9431.76     59.24
   0   3   7  89544.18    691.23
   0   3   8  30986.82    266.49
   0   3   9  68697.51    375.42
   0   3  10    127.41     23.27
   0   3  11   4819.53     33.99
   0   3  12  10365.63     75.62
   0   3  13   1001.96     29.09
   0   3  14   3298.16     34.65
   0   3  15   3079.50     35.01
   0   3  16   2512.94     35.70
   0   3  17  10280.47     66.88
   0   3  18    276.88     35.49
   0   3  19   2503.09     51.48
   0   3  20    125.34     40.20
   0   3  21    778.62     52.02
   0   3  22   3172.15     62.99
   0   3  23    408.96     57.94
   0   3  24   1417.67     44.67
   0   3  25    315.06     67.55
   0   3  26    232.47     44.65
   0   4   0   5328.54     40.07
   0   4   1   6754.23     39.69
   0   4   2   4529.59     26.36
   0   4   3  10867.96     55.87
   0   4   4  21676.09    172.99
   0   4   5  20115.41    175.03
   0   4   6  13801.34    101.91
   0   4   7  56472.36    298.12
   0   4   8    505.28     23.53
   0   4   9  41194.82    219.02
   0   4  10   1033.89     26.60
   0   4  11  12759.12     78.82
   0   4  12  11464.07     42.02
   0   4  13  15091.37     98.57
   0   4  14   1030.06     32.27
   0   4  15    138.58     32.13
   0   4  16   7072.76     50.50
   0   4  17   1654.34     72.61
   0   4  18   1838.16     67.47
   0   4  19   2274.28     59.91
   0   4  20    434.22     58.83
   0   4  21    334.61     44.61
   0   4  22   3398.38     64.51
   0   4  23   2388.74     49.99
   0   4  24   2454.90     54.61
   0   4  25   1046.49     54.98
   0   5   1   1075.78     30.86
   0   5   2  18964.30    252.84
   0   5   3  30394.63    153.15
   0   5   4  35805.18    285.98
   0   5   5  18957.37    153.79
   0   5   6  38410.79    271.24
   0   5   7   4952.60     98.03
   0   5   8   1350.18     38.14
   0   5   9  13274.08     81.04
   0   5  10    172.33     27.59
   0   5  11  10396.10     41.82
   0   5  12   1783.85     32.50
   0   5  13  17854.57     75.31
   0   5  14   2600.59     36.43
   0   5  15    468.85     34.72
   0   5  16   1649.04     46.12
   0   5  17   6822.32     82.22
   0   5  18    651.78     57.23
   0   5  19   2963.57     61.12
   0   5  20    130.87     53.79
   0   5  21   1034.75     52.35
   0   5  22   1120.84     47.86
   0   5  23   2428.67     51.67
   0   5  24   1902.85     47.26
   0   5  25    939.80     47.26
   0   6   0  126874.0   1116.55
   0   6   1  21197.60    267.08
   0   6   2  26714.23    326.12
   0   6   3  23602.84    143.98
   0   6   4   1889.03     34.98
   0   6   5  46118.79    291.16
   0   6   6  13446.57     90.09
   0   6   7   4055.82     65.12
   0   6   8   6737.67    119.01
   0   6   9    357.53     40.84
   0   6  10   7957.95     57.08
   0   6  11   3104.41     49.44
   0   6  12    205.62     46.00
   0   6  13   2400.84     81.41
   0   6  14   1427.14     38.66
   0   6  15   8802.57     48.39
   0   6  16   4892.15     51.53
   0   6  17   2580.64     42.22
   0   6  18   2827.86     51.24
   0   6  19   1751.00     42.82
   0   6  20   4274.37     51.79
   0   6  21    883.09     45.73
   0   6  22    649.75     53.72
   0   6  23   2646.24     59.14
   0   6  24    319.27     56.03
   0   7   1    504.60     53.02
   0   7   2     53.14     45.84
   0   7   3   3646.82     45.25
   0   7   4    279.10     29.33
   0   7   5  11171.46    131.40
   0   7   6   1291.61     52.55
   0   7   7   9181.49     78.63
   0   7   8   5776.01     57.13
   0   7   9   1682.89     54.77
   0   7  10  23396.59    283.90
   0   7  11   3221.47     64.48
   0   7  12    885.96     60.51
   0   7  13   1076.96     52.04
   0   7  14   6608.57     94.70
   0   7  15    103.01     61.01
   0   7  16   1585.89     57.06
   0   7  17    653.31     60.99
   0   7  18   1600.18     59.61
   0   7  19    487.99     41.95
   0   7  20   8396.04     97.54
   0   7  21     62.17     60.96
   0   7  22    181.40     64.42
   0   7  23     35.36     55.25
   0   8   1    138.04     65.89
   0   8   2  14329.86    292.95
   0   8   3   4288.94     89.27
   0   8   4   4683.21     69.59
   0   8   5   4098.17     52.17
   0   8   6   1322.60     47.65
   0   8   7   5471.14     63.57
   0   8   8  13452.28    141.18
   0   8   9   1843.23     51.71
   0   8  10   3067.91     79.72
   0   8  11    645.85     59.56
   0   8  12     15.79     50.62
   0   8  13   3455.73     59.60
   0   8  14   4119.47     62.70
   0   8  15   2839.00     60.98
   0   8  16   2562.15     98.64
   0   8  17    487.06     57.60
   0   8  18   2210.02     63.54
   0   8  19   2549.33     89.08
   0   8  20    226.95     84.75
   0   8  21    510.65     62.58
   0   8  22    119.49     62.48
   0   9   1  10390.63     81.12
   0   9   2    500.63     81.60
   0   9   3   6986.00    179.44
   0   9   4   6821.19    145.62
   0   9   5   2906.04    102.30
   0   9   6   5451.55     60.18
   0   9   7  18566.02    253.99
   0   9   8   1323.16     53.64
   0   9   9   5530.80     87.79
   0   9  10   5127.12     88.17
   0   9  11   4481.72    110.30
   0   9  12    347.15     54.57
   0   9  13   2131.52     93.70
   0   9  14   1089.21     57.93
   0   9  15    130.11     56.51
   0   9  16   2131.59     68.09
   0   9  17    427.88     59.58
   0   9  18    728.23    106.11
   0   9  19     38.53    106.69
   0   9  20    202.28    104.17
   0  10   0   3049.92     97.62
   0  10   1    347.94     62.69
   0  10   2    356.78     78.15
   0  10   3     68.15    101.63
   0  10   4    569.70     36.04
   0  10   5    230.36     55.69
   0  10   6   4080.10     61.62
   0  10   7   4106.74     79.18
   0  10   8    331.57     54.04
   0  10   9   1284.14     56.41
   0  10  10   1497.74     58.01
   0  10  11   1850.59     59.65
   0  10  12   2154.75     68.30
   0  10  13   3084.84     70.53
   0  10  14   1325.54     62.08
   0  10  15     62.44     98.19
   0  10  16   1673.32    111.11
   0  10  17   4828.62    124.84
   0  10  18   1109.06    153.07
   0  11   1  13009.90    142.31
   0  11   2   9954.98     93.97
   0  11   3   3987.90    116.55
   0  11   4   1101.49     58.21
   0  11   5   2285.07     60.08
   0  11   6   2310.89     73.50
   0  11   7   1539.74     59.10
   0  11   8    491.66     57.99
   0  11   9    207.35     57.14
   0  11  10   1479.22    103.73
   0  11  11    622.77     59.67
   0  11  12    170.71     73.85
   0  11  13   1018.59     62.68
   0  11  14    198.59     61.07
   0  11  15    196.14     62.00
   0  11  16    416.06     63.21
   0  12   0   4975.72    121.84
   0  12   1   2794.99    144.00
   0  12   2   3278.78     80.90
   0  12   3   3172.71     80.26
   0  12   4    583.46     90.43
   0  12   5    848.95     58.99
   0  12   6    192.42     68.89
   0  12   7   1111.21     60.90
   0  12   8    839.56     68.90
   0  12   9   1635.28     64.18
   0  12  10    681.46     61.97
   0  12  11    584.52     67.82
   0  12  12    151.02     67.36
   0  12  13    591.24     63.83
   0  13   1    429.10     77.91
   0  13   2    913.77     76.87
   0  13   3    506.24    108.49
   0  13   4    307.73     75.39
   0  13   5    716.33     61.63
   0  13   6    396.58     68.76
   0  13   7    956.47     63.61
   0  13   8    548.40     73.84
   0  13   9   1013.46     85.57
   1 -13  -9    552.40     37.16
   1 -13  -8    198.15     36.56
   1 -13  -7    510.71     39.48
   1 -13  -6   2088.93     41.36
   1 -13  -5    134.78     36.48
   1 -13  -4   3316.15    126.18
   1 -13  -3      0.00     84.24
   1 -13  -2    133.65     93.82
   1 -13  -1     57.13     76.10
   1 -12 -13   1195.86     45.51
   1 -12 -12    766.94     36.73
   1 -12 -11   1969.97     42.85
   1 -12 -10   1338.82     41.45
   1 -12  -9    597.67     35.68
   1 -12  -8    979.99     37.70
   1 -12  -7    580.25     35.13
   1 -12  -6    203.01     34.18
   1 -12  -5   1859.35     36.40
   1 -12  -4   1094.10     40.03
   1 -12  -3   1992.27    107.30
   1 -12  -2    208.59     72.35
   1 -12  -1    398.84     72.52
   1 -11 -16    225.18     36.11
   1 -11 -15    214.52     41.66
   1 -11 -14    646.16     35.81
   1 -11 -13    741.22     37.90
   1 -11 -12    148.09     33.96
   1 -11 -11   1883.57     38.20
   1 -11 -10    976.48     36.74
   1 -11  -9   1432.14     37.29
   1 -11  -8   1112.57     34.03
   1 -11  -7     67.49     34.04
   1 -11  -6    490.66     32.82
   1 -11  -5   1760.64     37.01
   1 -11  -4   5961.19     77.28
   1 -11  -3    758.91     70.53
   1 -11  -2   3595.99     77.88
   1 -11  -1   1053.67     71.53
   1 -10 -18   1047.43     52.71
   1 -10 -17   1749.69     39.58
   1 -10 -16   1808.30     42.01
   1 -10 -15    355.93     38.24
   1 -10 -14   1599.89     41.05
   1 -10 -13   2815.81     40.83
   1 -10 -12   3544.52     51.01
   1 -10 -11   3073.18     49.53
   1 -10 -10   2520.49     35.11
   1 -10  -9   1011.69     32.39
   1 -10  -8   6233.32     60.09
   1 -10  -7    107.53     30.53
   1 -10  -6   4795.57     38.93
   1 -10  -5   3561.53     43.73
   1 -10  -4     89.34     44.43
   1 -10  -3    392.39     63.14
   1 -10  -2    995.02     97.58
   1 -10  -1   9252.47    305.25
   1  -9 -20    131.11     47.31
   1  -9 -19    273.26     36.88
   1  -9 -18   1241.95     40.19
   1  -9 -17    617.76     38.78
   1  -9 -16    584.00     38.65
   1  -9 -15     99.42     32.00
   1  -9 -14     82.39     43.79
   1  -9 -13   6019.18     56.78
   1  -9 -12   2209.02     36.63
   1  -9 -11   1517.48     41.51
   1  -9 -10   1409.54     35.10
   1  -9  -9  15013.77     65.80
   1  -9  -8    618.29     39.20
   1  -9  -7  14627.47    108.54
   1  -9  -6    557.82     28.41
   1  -9  -5   2758.19     32.96
   1  -9  -4   1905.07     37.36
   1  -9  -3   1582.06     66.48
   1  -9  -2    278.69     89.54
   1  -9  -1   2656.64     63.45
   1  -8 -22    902.44     39.21
   1  -8 -21    907.58     36.19
   1  -8 -20    774.00     36.96
   1  -8 -19    450.66     38.34
   1  -8 -18    307.65     32.93
   1  -8 -17   1373.48     47.36
   1  -8 -16   3066.63     40.38
   1  -8 -15   1033.53     33.88
   1  -8 -14   3228.02     71.78
   1  -8 -13   1901.00     49.56
   1  -8 -12    226.28     28.57
   1  -8 -11    934.34     28.85
   1  -8 -10   6822.73     59.23
   1  -8  -9   1331.53     28.81
   1  -8  -8   5802.51     39.07
   1  -8  -7   6448.22     63.19
   1  -8  -6     90.49     26.81
   1  -8  -5   2419.03     31.21
   1  -8  -4  17312.29    137.17
   1  -8  -3    238.17     43.10
   1  -8  -2   5268.75     92.88
   1  -8  -1   6580.70    123.89
   1  -7 -23    444.72     49.20
   1  -7 -22   2888.82     62.42
   1  -7 -21   1318.06     43.87
   1  -7 -20      0.00     40.86
   1  -7 -19   1900.49     39.50
   1  -7 -18   5836.40     98.74
   1  -7 -17   3757.33     65.45
   1  -7 -16   8444.14    110.47
   1  -7 -15   8939.46     90.30
   1  -7 -14  12618.13     96.37
   1  -7 -13   4242.49     59.71
   1  -7 -12    484.55     33.35
   1  -7 -11   2081.82     30.29
   1  -7 -10   8313.29    104.03
   1  -7  -9  35920.22    164.97
   1  -7  -8   3419.99     35.80
   1  -7  -7   4748.22     37.60
   1  -7  -6   2613.68     27.11
   1  -7  -5    276.60     24.18
   1  -7  -4   6382.75     87.31
   1  -7  -3   1567.36     28.80
   1  -7  -2   6199.52     66.59
   1  -7  -1   9745.32     65.94
   1  -6 -24   1987.20     76.33
   1  -6 -23    415.66     64.27
   1  -6 -22    834.99     61.72
   1  -6 -21    773.25     56.30
   1  -6 -20    815.73     40.97
   1  -6 -19    681.79     47.42
   1  -6 -18   2702.40     85.41
   1  -6 -17   2296.72     40.17
   1  -6 -16   8445.74     75.80
   1  -6 -15   2962.12     42.16
   1  -6 -14   8677.33     78.75
   1  -6 -13   2484.11     33.23
   1  -6 -12   4400.27     39.34
   1  -6 -11   1973.81     30.97
   1  -6 -10    168.80     23.09
   1  -6  -9   1563.46     25.56
   1  -6  -8    104.44     23.05
   1  -6  -7  16376.54     57.89
   1  -6  -6   5566.73     36.79
   1  -6  -5   2337.82     22.61
   1  -6  -4  12591.40     88.85
   1  -6  -3   2986.02     39.76
   1  -6  -2  20560.35     90.50
   1  -6  -1  47208.44   1112.65
   1  -5 -25   1748.21     46.86
   1  -5 -24   1181.93     55.46
   1  -5 -23   3783.30     66.87
   1  -5 -22   4127.90     83.69
   1  -5 -21    568.98     40.19
   1  -5 -20    753.35     43.33
   1  -5 -19   1706.03     74.54
   1  -5 -18   4492.36     43.21
   1  -5 -17  15966.79     79.79
   1  -5 -16    260.98     41.98
   1  -5 -15   3318.44     37.52
   1  -5 -14    762.04     35.61
   1  -5 -13  10258.21     73.70
   1  -5 -12      8.68     28.61
   1  -5 -11  21109.78     99.77
   1  -5 -10   2045.50     37.64
   1  -5  -9     29.12     21.58
   1  -5  -8   8363.63     53.19
   1  -5  -7   1653.79     20.48
   1  -5  -6  13655.86     87.53
   1  -5  -5   3679.87     37.87
   1  -5  -4  43085.26    245.54
   1  -5  -3  14394.99     60.44
   1  -5  -2  25642.69    197.50
   1  -5  -1   1897.58    172.83
   1  -4 -26   2298.97     67.34
   1  -4 -25    200.71     43.08
   1  -4 -24   1558.93     49.01
   1  -4 -23   1993.85     44.36
   1  -4 -22    289.90     40.18
   1  -4 -21   2367.11     42.18
   1  -4 -20   6671.99     58.41
   1  -4 -19    452.82     36.87
   1  -4 -18   3860.34     65.62
   1  -4 -17   5279.27     50.97
   1  -4 -16  15067.43    140.96
   1  -4 -15   7893.29     70.83
   1  -4 -14  20982.99     90.31
   1  -4 -13   6508.14     52.76
   1  -4 -12   2436.03     30.23
   1  -4 -11  25342.29    143.71
   1  -4 -10   3105.18     28.43
   1  -4  -9   5523.68     30.12
   1  -4  -8  15102.93     95.01
   1  -4  -7  24225.52    125.60
   1  -4  -6   9247.85     77.82
   1  -4  -5   5444.87     59.02
   1  -4  -4   8007.49     60.40
   1  -4  -3  58659.28    249.99
   1  -4  -2  19190.41    114.32
   1  -4  -1  10083.59     92.43
   1  -3 -26    757.39     44.53
   1  -3 -25     57.27     42.63
   1  -3 -24    172.30     41.45
   1  -3 -23   2312.07     47.61
   1  -3 -22    210.82     63.75
   1  -3 -21    488.26     38.43
   1  -3 -20    896.68     37.86
   1  -3 -19   2005.43     38.41
   1  -3 -18  12981.55     85.47
   1  -3 -17    332.89     47.03
   1  -3 -16   4232.01     40.63
   1  -3 -15   3002.50     60.19
   1  -3 -14   1773.94     30.79
   1  -3 -13   8592.05     41.58
   1  -3 -12    421.43     25.74
   1  -3 -11   1243.52     26.80
   1  -3 -10  25825.21    147.19
   1  -3  -9  32415.38    234.65
   1  -3  -8  34098.62    281.18
   1  -3  -7  30620.40    229.89
   1  -3  -6   8550.06    107.63
   1  -3  -5   4589.24     53.09
   1  -3  -4   9098.09     71.06
   1  -3  -3  31647.51    243.06
   1  -3  -2  88698.92    453.67
   1  -3  -1  90022.12    554.30
   1  -2 -26   1204.77     45.24
   1  -2 -25     50.19     41.83
   1  -2 -24   2636.27     58.12
   1  -2 -23    661.05     41.01
   1  -2 -22   2799.63     44.42
   1  -2 -21    395.03     37.71
   1  -2 -20   9810.26    109.25
   1  -2 -19   6525.84     57.41
   1  -2 -18    788.00     34.49
   1  -2 -17   2976.53     36.25
   1  -2 -16  13736.91     87.24
   1  -2 -15   2890.11     32.96
   1  -2 -14   5970.17     40.64
   1  -2 -13   7876.41     38.92
   1  -2 -12   3084.27     30.95
   1  -2 -11  11991.45     64.70
   1  -2 -10  23262.01    163.24
   1  -2  -9  22888.31    137.10
   1  -2  -8  53255.08    439.76
   1  -2  -7  52275.76    235.05
   1  -2  -6   1322.72     16.48
   1  -2  -5  95645.69    882.60
   1  -2  -4  57943.97    267.69
   1  -2  -3  169837.4    966.79
   1  -2  -2  65569.17    321.18
   1  -2  -1  42308.31    226.89
   1  -1 -27   1293.21     46.02
   1  -1 -26    356.93     55.85
   1  -1 -25    316.31     42.20
   1  -1 -24   5299.12     96.47
   1  -1 -23   5301.99    108.74
   1  -1 -22   4282.10     88.15
   1  -1 -21    259.29     52.28
   1  -1 -20      0.00     43.94
   1  -1 -19    707.77     35.46
   1  -1 -18   2118.91     36.25
   1  -1 -17  19705.84    166.66
   1  -1 -16  10566.84     56.57
   1  -1 -15  15028.21     61.77
   1  -1 -14   1849.03     35.67
   1  -1 -13   1627.31     27.16
   1  -1 -12   9969.41     74.53
   1  -1 -11  53444.56    270.08
   1  -1 -10  18996.84    119.48
   1  -1  -9  66356.09    321.40
   1  -1  -8  25104.14    230.73
   1  -1  -7  93863.69    541.99
   1  -1  -6  50883.86    231.69
   1  -1  -5  35803.78    279.33
   1  -1  -4  111634.3    724.03
   1  -1  -3  115553.2    621.32
   1  -1  -2  79777.22    659.04
   1  -1  -1  146127.8    398.47
   1   0   0   2532.22     27.56
   1   0   1  44808.95    247.00
   1   0   2  268142.7   2242.23
   1   0   3  10251.71    110.35
   1   0   4  258664.7   2003.82
   1   0   5  110970.5   1140.39
   1   0   6  116192.8   1155.60
   1   0   7  108909.4    680.14
   1   0   8   1359.92     19.62
   1   0   9  95265.54    521.48
   1   0  10   3529.08     48.72
   1   0  11  54326.89    316.98
   1   0  12   5865.15     32.06
   1   0  13    162.56     32.44
   1   0  14   8377.40    125.62
   1   0  15   6115.51     46.52
   1   0  16  32186.46    492.65
   1   0  17  16615.88     79.48
   1   0  18      0.00     34.13
   1   0  19      0.00     36.01
   1   0  20    532.86     62.79
   1   0  21     40.31     46.49
   1   0  22   4871.35    126.98
   1   0  23    816.51     52.13
   1   0  24    136.16     51.74
   1   0  25   3276.80     90.95
   1   0  26    294.86     55.12
   1   1   0  49555.31    185.59
   1   1   1   4973.26     49.18
   1   1   2  209077.5   1522.91
   1   1   3  281176.9   2500.06
   1   1   4  70237.05    596.96
   1   1   5  150274.7   1341.22
   1   1   6  38139.53    274.06
   1   1   7  13271.87     83.75
   1   1   8  21562.34    123.43
   1   1   9  34171.13    280.14
   1   1  10  18396.83    105.33
   1   1  11   6728.82     71.00
   1   1  12  11210.64     52.30
   1   1  13   6733.02     38.26
   1   1  14   2257.22     38.24
   1   1  15   2928.23     41.96
   1   1  16  10999.90     97.95
   1   1  17  12496.10    112.91
   1   1  18    210.22     34.45
   1   1  19  16716.69    180.23
   1   1  20    790.58     38.71
   1   1  21    253.09     39.14
   1   1  22   2543.27     43.94
   1   1  23   1604.11     70.65
   1   1  24   2895.55     94.99
   1   1  25    420.76     76.36
   1   1  26    558.78     55.77
   1   2   0  13142.79     77.48
   1   2   1  151717.8   1225.82
   1   2   2  63356.85    299.39
   1   2   3  82273.96    407.32
   1   2   4  41442.80    336.04
   1   2   5   5751.67     48.61
   1   2   6   5739.86     31.64
   1   2   7  45697.77    246.57
   1   2   8  28437.60    161.49
   1   2   9  54998.86    325.35
   1   2  10  14254.54     99.42
   1   2  11   5866.04     31.30
   1   2  12  11745.24     46.47
   1   2  13   1870.65     37.61
   1   2  14   3271.32     33.21
   1   2  15   3920.34     35.76
   1   2  16   3091.25     38.69
   1   2  17  15083.15    141.56
   1   2  18   1250.07     40.03
   1   2  19   5499.39     63.14
   1   2  20    791.56     38.76
   1   2  21   1418.43     45.14
   1   2  22   2502.56     54.09
   1   2  23   6059.12    104.06
   1   2  24   2186.80     46.13
   1   2  25      4.78     62.59
   1   2  26    187.02     44.77
   1   3   0  55344.47    222.28
   1   3   1   4452.79     26.07
   1   3   2  84234.13    311.57
   1   3   3  62246.20    423.39
   1   3   4   6678.07     38.95
   1   3   5  22941.53    140.07
   1   3   6   4070.94     27.87
   1   3   7  75590.15    318.42
   1   3   8  40141.65    208.41
   1   3   9   5780.69     34.45
   1   3  10   8203.05     72.45
   1   3  11   6625.95     33.75
   1   3  12   4220.63     38.79
   1   3  13   7319.65     58.09
   1   3  14   7864.46     42.82
   1   3  15  11495.09     85.92
   1   3  16    298.28     33.24
   1   3  17   2598.37     38.28
   1   3  18    610.97     36.78
   1   3  19   1996.26     59.03
   1   3  20   4469.25     82.50
   1   3  21   2661.14     63.32
   1   3  22    154.97     41.67
   1   3  23   8153.75     91.48
   1   3  24    311.71     43.67
   1   3  25    359.00     44.83
   1   3  26   3048.35     52.44
   1   4   0  121043.2   1460.32
   1   4   1   4621.73     42.04
   1   4   2  18072.35     94.58
   1   4   3  25136.80    283.50
   1   4   4  10673.78     70.17
   1   4   5   1512.98     35.48
   1   4   6  15582.12     92.17
   1   4   7  11573.53     65.31
   1   4   8  10090.74     84.93
   1   4   9  23662.63    225.04
   1   4  10  16069.98    174.52
   1   4  11   4828.19     44.99
   1   4  12   2013.41     31.88
   1   4  13  10218.92     74.24
   1   4  14    941.86     40.95
   1   4  15   2807.05     36.79
   1   4  16  12993.85    113.08
   1   4  17   3279.96     67.76
   1   4  18  11068.27    199.68
   1   4  19   1876.96     57.06
   1   4  20    197.43     55.29
   1   4  21    688.13     50.50
   1   4  22   3989.25     52.08
   1   4  23    918.45     67.31
   1   4  24    160.25     44.03
   1   4  25    145.26     44.76
   1   5   0  154514.0   1202.54
   1   5   1   6458.98     84.90
   1   5   2  19673.73    242.52
   1   5   3  24013.90    154.49
   1   5   4   4292.54     38.08
   1   5   5  11399.52     50.16
   1   5   6   5997.36     43.58
   1   5   7  14729.52     64.70
   1   5   8   1866.09     39.57
   1   5   9     84.54     37.75
   1   5  10   4448.95     39.17
   1   5  11   4487.94     48.18
   1   5  12  14183.30    114.21
   1   5  13   5508.18     63.54
   1   5  14   7396.77     64.30
   1   5  15  15383.98    240.60
   1   5  16   8126.39     90.48
   1   5  17   5787.29     61.53
   1   5  18    448.91     47.23
   1   5  19    947.73     50.50
   1   5  20   5118.60     95.24
   1   5  21    917.68     46.01
   1   5  22    505.24     43.44
   1   5  23     93.11     43.88
   1   5  24    884.03     45.99
   1   5  25    987.86     47.49
   1   6   0   8700.18     59.92
   1   6   1  20568.98    136.32
   1   6   2  25829.12    158.05
   1   6   3   9568.21    119.42
   1   6   4  10683.90     70.31
   1   6   5   7646.46     86.78
   1   6   6   1101.11     39.02
   1   6   7   5137.46     47.50
   1   6   8   3526.67     46.28
   1   6   9  14286.18     65.22
   1   6  10   1843.70     46.01
   1   6  11   8467.50     91.21
   1   6  12   3132.70     62.19
   1   6  13   6679.20    166.60
   1   6  14  16618.54    170.01
   1   6  15   8752.92     93.07
   1   6  16  10218.16     90.54
   1   6  17   2617.38     42.34
   1   6  18   1313.37     41.56
   1   6  19    174.90     40.60
   1   6  20   1677.73     44.02
   1   6  21    590.57     43.40
   1   6  22   7586.69     77.10
   1   6  23   1751.21     58.35
   1   6  24    866.16     76.21
   1   7   0   1266.41     66.88
   1   7   1  11820.89    133.65
   1   7   2   6501.88     70.31
   1   7   3   5268.81     83.64
   1   7   4   6818.64     79.15
   1   7   5    832.70    108.14
   1   7   6  11947.64    180.00
   1   7   7   3374.17     64.39
   1   7   8      0.00     42.89
   1   7   9   3996.42     52.70
   1   7  10   2089.34     50.00
   1   7  11    618.16     48.27
   1   7  12   3862.37     56.62
   1   7  13    821.16     52.01
   1   7  14  12066.55    127.34
   1   7  15    462.75     60.00
   1   7  16   5090.23     65.29
   1   7  17   2910.41     61.59
   1   7  18   1215.40     59.74
   1   7  19    602.61     42.70
   1   7  20    268.70     42.87
   1   7  21     45.64     54.03
   1   7  22    274.69     68.88
   1   7  23    279.92     63.58
   1   8   0   3404.43     59.57
   1   8   1   1379.12     54.23
   1   8   2     83.47     49.51
   1   8   3   1387.79     48.58
   1   8   4   8886.84    116.21
   1   8   5   2821.99     49.73
   1   8   6   4823.20     85.96
   1   8   7  15195.52    185.28
   1   8   8   2259.85     63.75
   1   8   9  27300.55    410.50
   1   8  10   3750.69     57.20
   1   8  11    864.58     52.30
   1   8  12   4741.87     93.47
   1   8  13   4069.15     61.41
   1   8  14    271.40     54.41
   1   8  15     44.66     55.70
   1   8  16    805.04     59.52
   1   8  17   5242.99     79.14
   1   8  18   2269.65     63.32
   1   8  19   2535.01     65.76
   1   8  20     12.69     61.26
   1   8  21     48.53     61.69
   1   9   0   2805.00     97.23
   1   9   1   1434.01     60.07
   1   9   2   1799.66    127.72
   1   9   3   4578.73     84.09
   1   9   4   2869.38     53.33
   1   9   5   7393.86     88.22
   1   9   6    118.49     91.66
   1   9   7  12150.22    201.70
   1   9   8   5569.88     63.22
   1   9   9     31.72     53.67
   1   9  10   2769.36     58.71
   1   9  11    119.26     53.45
   1   9  12    710.29     55.81
   1   9  13   3854.22     72.71
   1   9  14    659.50    102.06
   1   9  15    705.33     71.25
   1   9  16    616.25    127.35
   1   9  17    533.11     71.64
   1   9  18    726.31    109.44
   1   9  19    498.56     77.98
   1   9  20    626.20     64.13
   1  10   0   5553.82     76.84
   1  10   1   1049.63     94.86
   1  10   2   3143.77     57.59
   1  10   3   6112.82     99.24
   1  10   4    344.74    115.86
   1  10   5    349.65     65.49
   1  10   6   3596.75     60.27
   1  10   7    983.01     55.28
   1  10   8   2115.93     58.68
   1  10   9   6071.73     83.62
   1  10  10   1869.62     95.71
   1  10  11    613.41     58.25
   1  10  12   1096.84     59.62
   1  10  13   2918.79     65.30
   1  10  14    366.77     72.31
   1  10  15    326.95     72.85
   1  10  16     16.26     76.18
   1  10  17    310.18    117.14
   1  10  18   1285.65     82.59
   1  11   0  10309.30     93.04
   1  11   1   2606.83    124.76
   1  11   2    506.25     68.59
   1  11   3   3721.26     53.47
   1  11   4    459.13     79.25
   1  11   5   2443.11     73.62
   1  11   6   2410.80     67.31
   1  11   7    358.25     56.77
   1  11   8   2054.27     61.53
   1  11   9      0.00     56.99
   1  11  10   6652.41    119.52
   1  11  11    747.61     73.72
   1  11  12   3075.51    138.18
   1  11  13    153.18     61.13
   1  11  14    243.68     61.28
   1  11  15   3151.18    100.89
   1  11  16   1904.68     68.20
   1  12   0    884.57     74.04
   1  12   1   1178.30     73.63
   1  12   2    676.83     72.06
   1  12   3    926.21    102.17
   1  12   4   3856.46     81.03
   1  12   5    761.80     59.64
   1  12   6    563.08     69.24
   1  12   7   1056.77     73.17
   1  12   8    111.93     71.11
   1  12   9    379.41     60.87
   1  12  10   1116.51     63.55
   1  12  11    421.47     66.97
   1  12  12    169.11     63.00
   1  12  13   1646.44     67.86
   1  13   0    281.18    126.07
   1  13   1    359.81     75.12
   1  13   2      6.14     74.18
   1  13   3   1868.51    112.03
   1  13   4    539.46     76.90
   1  13   5    228.98     80.91
   1  13   6    701.21     62.54
   1  13   7    834.03     63.57
   1  13   8    283.19     62.17
   1  13   9     67.92     74.61
   2 -13  -9    690.64     37.64
   2 -13  -8    431.37     38.78
   2 -13  -7    460.71     41.37
   2 -13  -6     33.61     35.31
   2 -13  -5      0.00     40.87
   2 -13  -4   2624.76     95.76
   2 -13  -3      0.00     76.94
   2 -13  -2    671.73     93.22
   2 -13  -1    457.83     77.31
   2 -12 -13    457.84     38.83
   2 -12 -12   1571.15     42.23
   2 -12 -11    423.31     35.43
   2 -12 -10    888.79     38.40
   2 -12  -9   1339.87     39.81
   2 -12  -8   1624.11     40.15
   2 -12  -7    398.18     36.64
   2 -12  -6    201.56     33.99
   2 -12  -5   1824.66     36.42
   2 -12  -4    294.67     45.34
   2 -12  -3    444.58     72.86
   2 -12  -2   6285.65    134.90
   2 -12  -1   3581.75     83.20
   2 -11 -16    180.60     38.07
   2 -11 -15    419.81     35.41
   2 -11 -14   2136.23     40.35
   2 -11 -13    464.25     34.54
   2 -11 -12   2306.36     45.34
   2 -11 -11    276.02     37.51
   2 -11 -10    858.77     46.95
   2 -11  -9   1260.57     34.22
   2 -11  -8   1589.30     36.31
   2 -11  -7     51.38     31.85
   2 -11  -6   2473.06     49.58
   2 -11  -5    217.18     32.03
   2 -11  -4    344.24     67.34
   2 -11  -3   3516.22     77.76
   2 -11  -2  10035.06    186.91
   2 -11  -1   1099.20     87.37
   2 -10 -18   1410.36     76.64
   2 -10 -17    512.80     36.99
   2 -10 -16    224.83     35.71
   2 -10 -15   1085.12     36.44
   2 -10 -14   1312.08     36.81
   2 -10 -13    537.26     32.77
   2 -10 -12   1580.73     33.91
   2 -10 -11   1444.82     32.89
   2 -10 -10   1569.34     33.05
   2 -10  -9   1654.83     32.95
   2 -10  -8   1461.83     40.57
   2 -10  -7  11246.39     68.62
   2 -10  -6   1401.29     31.71
   2 -10  -5   2684.32     35.26
   2 -10  -4   7010.32    111.98
   2 -10  -3   1921.49     56.99
   2 -10  -2   9855.74    136.70
   2 -10  -1   6879.44    241.06
   2  -9 -20    672.74     44.02
   2  -9 -19   1476.04     47.55
   2  -9 -18   1482.18     37.81
   2  -9 -17   4597.63     53.94
   2  -9 -16   2174.04     35.34
   2  -9 -15     54.84     39.11
   2  -9 -14    572.62     33.54
   2  -9 -13   1815.92     34.97
   2  -9 -12     76.06     29.92
   2  -9 -11   1275.62     32.62
   2  -9 -10    133.55     31.03
   2  -9  -9   2663.21     48.47
   2  -9  -8   2725.68     50.33
   2  -9  -7   7915.91     62.26
   2  -9  -6    309.42     27.83
   2  -9  -5   1180.92     31.98
   2  -9  -4   2354.90     81.88
   2  -9  -3   3423.85    120.07
   2  -9  -2   1232.37    109.40
   2  -9  -1    286.23     56.42
   2  -8 -22    131.59     35.22
   2  -8 -21   1330.84     43.15
   2  -8 -20   2393.99     39.77
   2  -8 -19   1026.31     49.89
   2  -8 -18   1359.79     33.97
   2  -8 -17   2885.72     64.79
   2  -8 -16    490.88     32.90
   2  -8 -15    278.29     30.40
   2  -8 -14   2189.79     32.48
   2  -8 -13    614.95     33.30
   2  -8 -12    409.00     28.43
   2  -8 -11   5386.36     54.99
   2  -8 -10  16809.51    133.45
   2  -8  -9   1450.95     28.31
   2  -8  -8   5521.76     71.80
   2  -8  -7   7450.69     91.88
   2  -8  -6   9913.35     83.11
   2  -8  -5    431.17     24.99
   2  -8  -4   3460.30     48.48
   2  -8  -3   1857.43     53.77
   2  -8  -2   2013.05     55.60
   2  -8  -1   4986.26    138.96
   2  -7 -23    364.09     85.01
   2  -7 -22     70.14     42.28
   2  -7 -21   1053.21     42.58
   2  -7 -20   3734.73     46.71
   2  -7 -19    283.98     32.03
   2  -7 -18   1331.00     32.83
   2  -7 -17    691.72     30.94
   2  -7 -16   7006.66     67.53
   2  -7 -15   2984.35     72.81
   2  -7 -14   9644.62     56.35
   2  -7 -13   2705.87     32.62
   2  -7 -12    126.57     29.42
   2  -7 -11   7651.82     78.98
   2  -7 -10   1107.42     30.13
   2  -7  -9  10002.44     71.18
   2  -7  -8  11396.66     85.79
   2  -7  -7    623.18     23.66
   2  -7  -6   6958.55     53.98
   2  -7  -5  36682.17    344.91
   2  -7  -4  10386.39    137.10
   2  -7  -3   6295.91     80.86
   2  -7  -2  11976.23     71.65
   2  -7  -1  11487.25    177.00
   2  -6 -24   2606.62     98.45
   2  -6 -23    398.33     52.30
   2  -6 -22    714.34     51.93
   2  -6 -21   1204.43     52.11
   2  -6 -20   3510.43     53.68
   2  -6 -19    278.03     53.96
   2  -6 -18   1170.08     54.58
   2  -6 -17    450.73     40.54
   2  -6 -16    635.72     42.10
   2  -6 -15   4270.53     68.11
   2  -6 -14   1706.79     41.02
   2  -6 -13   3835.92     62.87
   2  -6 -12   2986.85     51.62
   2  -6 -11   8888.26     66.10
   2  -6 -10   2203.45     27.16
   2  -6  -9   3503.92     40.22
   2  -6  -8   2810.43     29.19
   2  -6  -7  10733.37     66.78
   2  -6  -6  13729.97    101.37
   2  -6  -5  14947.21    145.27
   2  -6  -4    780.45     24.44
   2  -6  -3   7857.40     91.19
   2  -6  -2  13077.82     72.45
   2  -6  -1   1254.84     51.91
   2  -5 -25   1367.93     60.89
   2  -5 -24     65.66     46.05
   2  -5 -23   5557.62    176.65
   2  -5 -22    892.16     45.12
   2  -5 -21    637.17     39.69
   2  -5 -20   1973.24     41.01
   2  -5 -19   3307.25     66.24
   2  -5 -18   2621.14     40.35
   2  -5 -17   8046.78    115.23
   2  -5 -16    381.56     41.75
   2  -5 -15   4452.01     38.34
   2  -5 -14   1277.12     32.52
   2  -5 -13   5489.32     54.47
   2  -5 -12   6427.56     36.99
   2  -5 -11   1746.45     32.93
   2  -5 -10   8094.27     66.03
   2  -5  -9   5357.96     53.81
   2  -5  -8  24867.59    124.78
   2  -5  -7   4690.02     47.25
   2  -5  -6  26929.87    231.33
   2  -5  -5  18849.30    121.66
   2  -5  -4   3571.93     53.85
   2  -5  -3   6472.05     44.30
   2  -5  -2  32494.29    227.70
   2  -5  -1  77806.99    557.34
   2  -4 -26     43.44     43.04
   2  -4 -25     80.66     41.95
   2  -4 -24   1787.37     63.62
   2  -4 -23    922.82     41.69
   2  -4 -22    513.88     39.69
   2  -4 -21    216.09     37.98
   2  -4 -20     75.75     36.83
   2  -4 -19   2613.58     39.75
   2  -4 -18   5795.41     65.11
   2  -4 -17   3730.88     47.48
   2  -4 -16   4958.61     60.84
   2  -4 -15   3061.99     43.09
   2  -4 -14   4085.50     59.21
   2  -4 -13  11216.41     88.99
   2  -4 -12  11687.83     76.70
   2  -4 -11   4833.81     31.39
   2  -4 -10   3175.31     29.05
   2  -4  -9  54511.87    306.09
   2  -4  -8  11654.46     89.35
   2  -4  -7  55359.47    383.05
   2  -4  -6  15993.76     95.74
   2  -4  -5   6468.79     43.85
   2  -4  -4  81045.04    389.15
   2  -4  -3  12897.70     78.11
   2  -4  -2   5835.95     28.04
   2  -4  -1   3979.39    104.05
   2  -3 -26     25.79     46.16
   2  -3 -25   1186.94     43.46
   2  -3 -24   1302.90     42.84
   2  -3 -23   1554.53     41.88
   2  -3 -22   1826.80     41.32
   2  -3 -21   2703.44     51.39
   2  -3 -20     80.32     35.82
   2  -3 -19   3201.55     39.59
   2  -3 -18    605.27     34.13
   2  -3 -17    730.47     36.90
   2  -3 -16   7408.43     76.00
   2  -3 -15   3120.35     36.31
   2  -3 -14  17228.57     64.95
   2  -3 -13   7816.31     78.16
   2  -3 -12   6384.78     39.40
   2  -3 -11   3922.98     34.54
   2  -3 -10   1920.72     24.22
   2  -3  -9  29724.51    290.87
   2  -3  -8  25345.22    318.38
   2  -3  -7  11995.60     65.44
   2  -3  -6   1481.53     20.09
   2  -3  -5  36731.27    186.42
   2  -3  -4  60031.55    435.41
   2  -3  -3  12588.22     73.13
   2  -3  -2  12359.04     72.66
   2  -3  -1  22780.32    154.02
   2  -2 -27   4307.30     68.63
   2  -2 -26     26.38     42.26
   2  -2 -25    999.69     42.99
   2  -2 -24     35.98     49.91
   2  -2 -23    483.51     39.83
   2  -2 -22   5742.60     74.73
   2  -2 -21    558.51     40.42
   2  -2 -20   1436.82     37.72
   2  -2 -19     89.65     33.92
   2  -2 -18  19709.81    180.67
   2  -2 -17   1136.95     36.09
   2  -2 -16  13287.30    131.91
   2  -2 -15  17054.40     80.19
   2  -2 -14   5464.10     37.11
   2  -2 -13   7767.24     34.78
   2  -2 -12   4159.59     28.87
   2  -2 -11   8251.22     35.94
   2  -2 -10   5521.74     31.59
   2  -2  -9  83948.27    617.91
   2  -2  -8  20313.10    142.21
   2  -2  -7  54878.09    357.44
   2  -2  -6   4324.82     38.66
   2  -2  -5  21603.52    145.07
   2  -2  -4  16091.91    130.35
   2  -2  -3   5639.62     30.91
   2  -2  -2  41004.75    218.69
   2  -2  -1  94784.41    275.01
   2  -1 -27    293.07     47.92
   2  -1 -26   1198.78     44.08
   2  -1 -25   1175.78     42.97
   2  -1 -24   1559.42     46.45
   2  -1 -23   1184.81     49.48
   2  -1 -22    650.49     46.25
   2  -1 -21   3056.74     49.78
   2  -1 -20   8935.24    115.55
   2  -1 -19   1217.76     35.64
   2  -1 -18    912.09     37.01
   2  -1 -17   4071.97     36.74
   2  -1 -16   4430.28     38.82
   2  -1 -15  14349.04     77.45
   2  -1 -14  18253.08     71.34
   2  -1 -13  12474.13     90.74
   2  -1 -12   3367.65     27.19
   2  -1 -11   2604.07     32.34
   2  -1 -10  32773.02    205.28
   2  -1  -9   9983.84     65.19
   2  -1  -8  36205.32    189.40
   2  -1  -7  36761.69    220.12
   2  -1  -6  51618.22    260.34
   2  -1  -5  13352.46    122.15
   2  -1  -4  116588.9    744.89
   2  -1  -3  142815.2    841.34
   2  -1  -2  244443.7   1917.63
   2  -1  -1  1015974.  20530.00
   2   0   0  260936.8   2420.25
   2   0   1  31837.83    391.19
   2   0   2   3738.63     44.36
   2   0   3    197.65     10.75
   2   0   4  16381.04    109.78
   2   0   5   7150.42     46.13
   2   0   6  94491.10   1303.59
   2   0   7   9458.52     61.56
   2   0   8  135636.7   1071.75
   2   0   9   3272.17     52.32
   2   0  10    215.19     24.15
   2   0  11   5085.66     53.47
   2   0  12   3300.14     32.39
   2   0  13  15307.21     78.08
   2   0  14   9827.27     58.35
   2   0  15  37276.54    316.36
   2   0  16  11789.32     72.03
   2   0  17    320.95     37.26
   2   0  18   7173.04     44.75
   2   0  19    896.72     41.71
   2   0  20   8636.70     80.00
   2   0  21   2585.20     83.27
   2   0  22   1093.89     51.72
   2   0  23    310.10     74.42
   2   0  24   1602.67    101.01
   2   0  25    984.37     92.96
   2   0  26   3384.15     98.30
!   2   1   0  1569870.   2232.82
   2   1   1  256506.4   1443.46
   2   1   2  63232.75    441.94
   2   1   3  72345.55    516.22
   2   1   4  56286.14    437.87
   2   1   5  65929.38    271.68
   2   1   6  14658.90    189.39
   2   1   7   5830.58     29.80
   2   1   8  14981.84    118.77
   2   1   9  28178.44    211.79
   2   1  10    805.75     27.86
   2   1  11   1315.33     27.85
   2   1  12   1663.07     27.61
   2   1  13   5204.30     43.24
   2   1  14  24588.71    166.52
   2   1  15   1145.46     40.14
   2   1  16   7118.21    148.44
   2   1  17    421.98     37.49
   2   1  18   7058.31     95.84
   2   1  19   3915.93     96.62
   2   1  20   2641.74     41.85
   2   1  21   2317.07     42.72
   2   1  22    222.51     48.40
   2   1  23   1720.49     55.45
   2   1  24    774.47     54.18
   2   1  25     58.80     53.88
   2   1  26    328.77     65.64
   2   2   0   4619.37     33.42
   2   2   1  36575.32    151.27
   2   2   2  37273.09    547.60
   2   2   3  61612.35    390.27
   2   2   4  34419.85    165.52
   2   2   5   1349.98     16.91
   2   2   6  64040.29    264.00
   2   2   7  36542.43    274.79
   2   2   8  62278.52    341.67
   2   2   9  17059.05    137.31
   2   2  10  14990.16    141.19
   2   2  11   5524.32     53.34
   2   2  12  17570.63     72.47
   2   2  13    403.54     28.40
   2   2  14    381.75     29.95
   2   2  15   6484.18     44.81
   2   2  16      0.00     32.51
   2   2  17   8972.70     93.98
   2   2  18    674.78     36.81
   2   2  19   3418.68     43.72
   2   2  20    916.95     43.20
   2   2  21     78.36     39.68
   2   2  22    789.51     56.51
   2   2  23   4312.44     92.44
   2   2  24   1235.24     45.68
   2   2  25   1193.24     46.46
   2   2  26   2008.22     71.77
   2   3   0  32374.36    365.63
   2   3   1  52471.60    441.59
   2   3   2  55486.87    306.35
   2   3   3  24305.45    180.76
   2   3   4  60850.19    357.22
   2   3   5   9181.80     56.00
   2   3   6  81935.39    408.51
   2   3   7   9169.98     61.41
   2   3   8  39547.51    220.82
   2   3   9  26720.42    142.97
   2   3  10   5619.53     99.53
   2   3  11  10164.33     69.24
   2   3  12  24046.77    276.35
   2   3  13  20158.12    180.69
   2   3  14   4402.37     44.55
   2   3  15   9064.98    105.08
   2   3  16   5490.51     46.91
   2   3  17   1084.09     36.86
   2   3  18    468.92     36.88
   2   3  19   3862.95     54.91
   2   3  20    874.65     40.27
   2   3  21   3824.08     63.69
   2   3  22    585.84     42.52
   2   3  23   1681.56     45.80
   2   3  24   4122.70     56.71
   2   3  25   1141.36     46.32
   2   3  26     57.25     45.89
   2   4   0  14968.08    148.85
   2   4   1  31294.10    215.74
   2   4   2  16630.61    198.32
   2   4   3  24817.34    184.24
   2   4   4  13678.88    131.50
   2   4   5  23570.41    179.02
   2   4   6  31531.19    255.13
   2   4   7  19085.59    100.80
   2   4   8  16325.60    131.85
   2   4   9  10323.44     63.83
   2   4  10   2374.43     40.14
   2   4  11   7070.70     72.16
   2   4  12   5903.89     64.47
   2   4  13  10027.90     88.99
   2   4  14   2937.26     50.49
   2   4  15    393.54     33.72
   2   4  16   1120.71     40.05
   2   4  17   5558.21    119.40
   2   4  18   2576.18     66.79
   2   4  19    942.08     52.07
   2   4  20    408.35     71.33
   2   4  21    231.99     45.19
   2   4  22   4769.20     90.19
   2   4  23   2344.29     47.16
   2   4  24   1167.10     56.85
   2   4  25   1164.64     47.28
   2   5   0  30170.00    332.43
   2   5   1  15382.61    125.80
   2   5   2   7665.78     56.83
   2   5   3  38078.46    300.43
   2   5   4  12893.45     50.27
   2   5   5  44248.32    308.59
   2   5   6   6700.30     57.18
   2   5   7   9520.98     50.66
   2   5   8  11713.73     55.62
   2   5   9  10247.24    102.85
   2   5  10   3589.14     60.82
   2   5  11   8415.00     51.29
   2   5  12   8550.89     88.78
   2   5  13   5588.67     44.23
   2   5  14   8700.89     62.00
   2   5  15    180.87     38.60
   2   5  16   6303.98     82.82
   2   5  17     23.34     45.80
   2   5  18   2125.37     51.35
   2   5  19   3220.28     76.24
   2   5  20    707.52     45.78
   2   5  21   3328.00     65.85
   2   5  22    699.70     44.49
   2   5  23    421.63     44.77
   2   5  24    412.64     58.41
   2   6   0    591.80     73.37
   2   6   1   5744.52     43.17
   2   6   2    135.59     25.57
   2   6   3  23107.78    263.68
   2   6   4  16006.99    117.35
   2   6   5  21989.32    388.82
   2   6   6  14803.16    134.01
   2   6   7    119.62     38.55
   2   6   8  10760.77     58.52
   2   6   9   9032.89     59.66
   2   6  10  19735.53    116.81
   2   6  11   2580.90     49.84
   2   6  12   2866.62     75.01
   2   6  13   4120.52     65.67
   2   6  14   5661.18     55.85
   2   6  15   4090.19     42.85
   2   6  16   3057.66     56.64
   2   6  17   3429.87     68.24
   2   6  18    824.77     44.79
   2   6  19   5946.09     71.37
   2   6  20   3308.09     47.79
   2   6  21     31.76     43.12
   2   6  22     55.83     53.37
   2   6  23    473.46     55.67
   2   7   0  21943.56    572.15
   2   7   1  33242.55    987.90
   2   7   2  10358.96    157.91
   2   7   3  11128.06    126.96
   2   7   4   4141.90    103.78
   2   7   5   3403.27     74.71
   2   7   6   2485.22     47.50
   2   7   7   5734.54    120.09
   2   7   8   2637.92     54.71
   2   7   9   4320.53     83.20
   2   7  10    124.61     82.78
   2   7  11     63.32     51.76
   2   7  12    742.11     50.50
   2   7  13    425.55     51.37
   2   7  14    852.37     53.77
   2   7  15   4494.57     62.69
   2   7  16   3842.59     68.73
   2   7  17   1558.29     59.63
   2   7  18   3938.42     65.87
   2   7  19   2151.38     83.63
   2   7  20     98.26     43.26
   2   7  21   1059.44     55.81
   2   7  22    772.81     65.22
   2   8   0   5079.93     63.41
   2   8   1   5719.19     64.89
   2   8   2   3455.31    100.60
   2   8   3  11950.72    204.28
   2   8   4    466.82     44.51
   2   8   5   7951.38     90.82
   2   8   6   7429.58     65.12
   2   8   7  23261.48    220.87
   2   8   8    688.72     58.29
   2   8   9    720.43     50.26
   2   8  10  10632.73     70.49
   2   8  11   1420.25     91.29
   2   8  12   2071.79     68.28
   2   8  13   2133.46     58.60
   2   8  14   2647.46     60.21
   2   8  15   1659.05     68.67
   2   8  16    799.80     58.65
   2   8  17    614.50     58.95
   2   8  18    405.92     59.67
   2   8  19   1197.20     63.40
   2   8  20    583.76     62.88
   2   8  21    383.03     63.42
   2   9   0   3003.79     63.34
   2   9   1    513.83     57.75
   2   9   2   3859.06    126.07
   2   9   3   2664.97     76.60
   2   9   4    388.54     48.23
   2   9   5   5826.44     95.81
   2   9   6   2627.67     54.40
   2   9   7   3122.86     79.48
   2   9   8   6968.42    151.00
   2   9   9   3176.96     59.17
   2   9  10   5433.50     65.31
   2   9  11   2246.59     71.53
   2   9  12   3925.87     63.16
   2   9  13   5205.04    135.31
   2   9  14   1501.02     60.39
   2   9  15   3272.41    156.04
   2   9  16   2649.75     78.95
   2   9  17   1002.30     62.33
   2   9  18   1740.92     81.10
   2   9  19   1250.18    117.81
   2   9  20    487.94     64.93
   2  10   0   4176.67     74.11
   2  10   1  15545.95     98.24
   2  10   2   4531.52    125.46
   2  10   3   1010.83     52.93
   2  10   4   1584.49     54.43
   2  10   5   4666.53    139.11
   2  10   6   1083.88     54.89
   2  10   7   4709.96     64.26
   2  10   8   6110.45    125.58
   2  10   9    424.80     88.29
   2  10  10   2332.06     94.10
   2  10  11   2049.48     61.48
   2  10  12   1523.11     61.05
   2  10  13    193.20     96.76
   2  10  14     60.14     95.81
   2  10  15    653.04     62.40
   2  10  16    256.06     77.38
   2  10  17   1343.36     85.65
   2  10  18    291.20     79.23
   2  11   0   2654.04     74.90
   2  11   1    697.33     90.78
   2  11   2   1282.00     70.29
   2  11   3   1804.15     86.57
   2  11   4    574.99     55.39
   2  11   5   1213.81     81.69
   2  11   6   1496.75     79.24
   2  11   7   2207.97     61.98
   2  11   8    303.19     57.46
   2  11   9   1329.76     96.96
   2  11  10   1786.73     62.40
   2  11  11    206.62     59.31
   2  11  12    590.27     76.15
   2  11  13   1765.36     65.53
   2  11  14   1513.36    156.22
   2  11  15    453.51     90.65
   2  12   0   1049.34     73.44
   2  12   1   3342.23     98.79
   2  12   2   1702.34     94.00
   2  12   3   2645.31    109.77
   2  12   4    829.75     59.11
   2  12   5   1120.65     60.59
   2  12   6   3183.20     65.34
   2  12   7     77.93     66.83
   2  12   8    256.76     69.71
   2  12   9   1223.11     63.21
   2  12  10    187.86     61.15
   2  12  11    496.45     63.34
   2  12  12    588.70     69.06
   2  13   0   1984.36    115.33
   2  13   1   1370.33    145.79
   2  13   2   1728.07     80.52
   2  13   3    850.90    107.30
   2  13   4    776.38     62.18
   2  13   5   1417.02     79.80
   2  13   6    552.48     62.22
   2  13   7   1448.90     65.61
   2  13   8    414.93     63.33
   3 -13  -8   1696.64     44.97
   3 -13  -7      0.00     37.76
   3 -13  -6   2439.51     41.10
   3 -13  -5    264.75     38.69
   3 -13  -4   2258.73     46.68
   3 -13  -3    125.72     76.40
   3 -13  -2    128.21     76.62
   3 -13  -1      0.00    148.50
   3 -12 -13    730.27     36.25
   3 -12 -12    469.50     35.55
   3 -12 -11    506.40     35.16
   3 -12 -10   2715.70     56.21
   3 -12  -9    417.29     49.41
   3 -12  -8    738.91     36.43
   3 -12  -7    400.24     41.10
   3 -12  -6    725.72     34.57
   3 -12  -5   3509.74     69.79
   3 -12  -4   2560.83    109.25
   3 -12  -3   1510.18    119.01
   3 -12  -2   1728.61     76.78
   3 -12  -1    690.52     73.22
   3 -11 -16    823.39     35.84
   3 -11 -15   2736.11     82.22
   3 -11 -14    480.54     34.70
   3 -11 -13   4777.11     49.73
   3 -11 -12    186.26     34.95
   3 -11 -11    285.80     35.34
   3 -11 -10     94.23     32.24
   3 -11  -9   2517.19     35.72
   3 -11  -8    803.95     32.72
   3 -11  -7   2043.06     42.79
   3 -11  -6     65.35     31.33
   3 -11  -5   2443.56     36.88
   3 -11  -4    173.32     65.41
   3 -11  -3     68.04     65.13
   3 -11  -2    499.76     70.13
   3 -11  -1     46.88     65.77
   3 -10 -18    316.60     42.49
   3 -10 -17   3178.21     54.36
   3 -10 -16    143.25     33.53
   3 -10 -15     81.37     34.32
   3 -10 -14    210.78     32.25
   3 -10 -13   3620.39     58.34
   3 -10 -12    768.99     33.80
   3 -10 -11   1544.99     52.32
   3 -10 -10    708.64     31.38
   3 -10  -9   7617.91     79.45
   3 -10  -8   1050.13     37.56
   3 -10  -7   2826.31     54.30
   3 -10  -6    121.50     31.23
   3 -10  -5   7991.67     91.08
   3 -10  -4   3375.76    110.89
   3 -10  -3    552.66     62.43
   3 -10  -2    778.98     62.57
   3 -10  -1   6510.51    197.63
   3  -9 -20    105.50     41.61
   3  -9 -19    158.91     40.26
   3  -9 -18   2460.68     62.06
   3  -9 -17   2378.94     65.03
   3  -9 -16   2241.77     36.73
   3  -9 -15   1235.26     39.11
   3  -9 -14    629.59     39.85
   3  -9 -13   4240.00     41.10
   3  -9 -12   3286.58     40.67
   3  -9 -11   6247.60     64.41
   3  -9 -10   1778.65     30.69
   3  -9  -9   3073.29     36.11
   3  -9  -8   1005.34     29.11
   3  -9  -7   3460.21     48.21
   3  -9  -6   4570.88     52.22
   3  -9  -5     38.71     26.87
   3  -9  -4   3865.45    116.76
   3  -9  -3   7093.62    225.10
   3  -9  -2    967.41     58.94
   3  -9  -1  19752.88    371.15
   3  -8 -22    561.30     35.16
   3  -8 -21   2375.53     66.89
   3  -8 -20      0.00     32.95
   3  -8 -19    896.26     55.35
   3  -8 -18     45.37     35.09
   3  -8 -17   1972.20     44.44
   3  -8 -16   6715.29     78.73
   3  -8 -15   7522.25    128.43
   3  -8 -14   7910.07    106.64
   3  -8 -13   2653.71     36.21
   3  -8 -12   1776.99     30.95
   3  -8 -11   1501.06     36.49
   3  -8 -10     41.28     26.19
   3  -8  -9  16873.67    176.38
   3  -8  -8   7165.19     99.16
   3  -8  -7    351.13     26.58
   3  -8  -6   3842.96     38.98
   3  -8  -5   2105.88     34.72
   3  -8  -4   1962.57     39.75
   3  -8  -3    396.46     41.03
   3  -8  -2   8566.47    397.07
   3  -8  -1    366.41     50.04
   3  -7 -23     39.13     62.89
   3  -7 -22   3030.73     69.18
   3  -7 -21    153.44     32.98
   3  -7 -20   1139.24     35.00
   3  -7 -19    234.97     33.83
   3  -7 -18   2613.93     38.70
   3  -7 -17    700.73     30.47
   3  -7 -16   6688.17     88.53
   3  -7 -15    682.11     30.30
   3  -7 -14   1592.89     29.24
   3  -7 -13   2952.94     68.25
   3  -7 -12   1170.46     28.44
   3  -7 -11   5612.74     49.62
   3  -7 -10   3267.27     47.26
   3  -7  -9   4678.72     59.50
   3  -7  -8  13996.78    140.14
   3  -7  -7    310.01     32.56
   3  -7  -6    987.74     23.18
   3  -7  -5  13269.88    148.00
   3  -7  -4   4463.02     38.83
   3  -7  -3    959.49     40.35
   3  -7  -2  17764.75    521.15
   3  -7  -1  25907.50    208.15
   3  -6 -24   1318.01     66.90
   3  -6 -23   1524.79    116.31
   3  -6 -22   1268.78     51.96
   3  -6 -21    261.46     43.46
   3  -6 -20   3151.92     43.28
   3  -6 -19   2337.41     44.67
   3  -6 -18  12158.52    157.87
   3  -6 -17   1157.44     36.75
   3  -6 -16   2189.78     37.67
   3  -6 -15    489.86     33.64
   3  -6 -14   2576.28     55.98
   3  -6 -13  10490.30    128.61
   3  -6 -12   3450.17     58.48
   3  -6 -11   2145.88     42.31
   3  -6 -10  29385.74    158.90
   3  -6  -9  16574.21     92.47
   3  -6  -8  11912.67    105.28
   3  -6  -7    168.50     20.03
   3  -6  -6   2415.82     29.37
   3  -6  -5   4511.25     37.71
   3  -6  -4   9867.94    102.16
   3  -6  -3  11261.94    100.50
   3  -6  -2   9772.10    295.45
   3  -6  -1   6231.74     69.82
   3  -5 -25   2209.69     60.85
   3  -5 -24   2334.79     88.12
   3  -5 -23   1365.85     56.50
   3  -5 -22    187.45     43.49
   3  -5 -21     31.14     37.81
   3  -5 -20   1252.60     39.06
   3  -5 -19   1964.48    126.17
   3  -5 -18   4582.35     45.57
   3  -5 -17   1524.19     36.14
   3  -5 -16  12076.42     71.01
   3  -5 -15    502.41     31.83
   3  -5 -14   9556.68     85.17
   3  -5 -13    272.31     32.45
   3  -5 -12   1946.61     30.46
   3  -5 -11   6052.23     34.64
   3  -5 -10   7553.24     70.62
   3  -5  -9  13104.61     83.57
   3  -5  -8   2015.31     20.64
   3  -5  -7  26919.52    177.98
   3  -5  -6   1074.18     18.00
   3  -5  -5   2928.56     22.32
   3  -5  -4   9214.23     88.99
   3  -5  -3  11163.30     91.06
   3  -5  -2  13964.03    200.86
   3  -5  -1  14284.33    162.40
   3  -4 -26   1510.46     51.10
   3  -4 -25   1511.94     44.04
   3  -4 -24   1830.65     43.68
   3  -4 -23   3534.21     45.66
   3  -4 -22   1767.07     46.88
   3  -4 -21    603.91     38.12
   3  -4 -20   2090.98     51.55
   3  -4 -19   2522.64     38.81
   3  -4 -18   3914.40     39.80
   3  -4 -17   7464.88     53.29
   3  -4 -16   4944.84     42.67
   3  -4 -15    312.61     30.00
   3  -4 -14   3234.00     44.18
   3  -4 -13   7312.85     37.99
   3  -4 -12   6061.64     51.14
   3  -4 -11   8660.97     53.93
   3  -4 -10   7038.69     43.36
   3  -4  -9  21490.64    110.86
   3  -4  -8   7272.42     58.96
   3  -4  -7  24023.30    198.67
   3  -4  -6  12642.32    102.30
   3  -4  -5  12661.00     70.18
   3  -4  -4  29187.30    191.32
   3  -4  -3  49547.89    252.80
   3  -4  -2    358.94     18.41
   3  -4  -1  43779.16    275.58
   3  -3 -26    523.37     42.55
   3  -3 -25    407.25     41.63
   3  -3 -24    138.46     39.88
   3  -3 -23    164.39     38.73
   3  -3 -22   1846.24     40.79
   3  -3 -21   2453.31     40.41
   3  -3 -20   7112.34     82.64
   3  -3 -19   2000.48     44.11
   3  -3 -18   9592.16     46.04
   3  -3 -17  16529.98     52.31
   3  -3 -16   8149.57     59.51
   3  -3 -15   8340.43     44.54
   3  -3 -14  14594.04     66.63
   3  -3 -13   4831.39     31.91
   3  -3 -12   2819.65     27.64
   3  -3 -11  31343.44    229.14
   3  -3 -10  14007.84     81.83
   3  -3  -9   2779.57     34.20
   3  -3  -8   9365.41     46.95
   3  -3  -7  10402.79     47.59
   3  -3  -6  24021.48    231.00
   3  -3  -5  45407.79    287.55
   3  -3  -4  19998.08    145.39
   3  -3  -3  106857.8    628.28
   3  -3  -2   3100.53     30.19
   3  -3  -1  77029.79    285.73
   3  -2 -26   1085.74     45.65
   3  -2 -25    434.47     41.11
   3  -2 -24   1417.23     45.57
   3  -2 -23   1093.44     45.49
   3  -2 -22   2415.71     41.22
   3  -2 -21    477.30     36.59
   3  -2 -20    248.00     34.87
   3  -2 -19   1106.57     34.86
   3  -2 -18  10466.99     68.76
   3  -2 -17   1630.42     32.91
   3  -2 -16  21368.35     86.06
   3  -2 -15   2505.81     31.79
   3  -2 -14   2017.46     28.29
   3  -2 -13   2552.42     30.09
   3  -2 -12   5099.88     34.69
   3  -2 -11  42702.39    540.47
   3  -2 -10    805.95     20.50
   3  -2  -9  88073.96    394.44
   3  -2  -8  13564.01    100.52
   3  -2  -7  28613.29    152.55
   3  -2  -6  53502.10    435.70
   3  -2  -5  28474.65    211.94
   3  -2  -4   8771.98    110.91
   3  -2  -3   3815.45     24.06
   3  -2  -2  193695.6    570.86
   3  -2  -1  28175.60    137.70
   3  -1 -27    984.33     61.63
   3  -1 -26    728.35     53.71
   3  -1 -25    384.23     41.02
   3  -1 -24   4818.45     58.87
   3  -1 -23   1677.85     44.84
   3  -1 -22   1525.92     47.71
   3  -1 -21    286.46     45.94
   3  -1 -20   4963.11     46.27
   3  -1 -19   5713.86     49.99
   3  -1 -18   2750.44     39.34
   3  -1 -17   5331.13     48.84
   3  -1 -16  15979.70     47.79
   3  -1 -15   4903.45     39.92
   3  -1 -14   4746.71     34.50
   3  -1 -13   1509.45     25.52
   3  -1 -12   6721.15     51.93
   3  -1 -11   2305.82     24.53
   3  -1 -10  11080.14     68.10
   3  -1  -9   9992.71     77.22
   3  -1  -8  56443.89    312.72
   3  -1  -7  40822.92    189.74
   3  -1  -6  81210.13    740.63
   3  -1  -5  13252.75     73.62
   3  -1  -4  160771.9    796.71
   3  -1  -3  71012.82    527.35
   3  -1  -2  89326.74    279.34
   3  -1  -1  57779.85    360.62
   3   0   0  69283.72    292.86
   3   0   1  13217.23     82.76
   3   0   2  231259.1   2069.03
   3   0   3  98526.72    356.10
   3   0   4  43103.53    298.73
   3   0   5  34199.63    370.70
   3   0   6    545.17     15.92
   3   0   7  22094.03    173.15
   3   0   8  28257.82    220.17
   3   0   9  46171.24    298.25
   3   0  10  32733.54    195.44
   3   0  11     34.55     30.04
   3   0  12  16193.27    124.66
   3   0  13  12679.42    100.03
   3   0  14     48.95     32.51
   3   0  15   1741.80     41.06
   3   0  16  12650.68    120.85
   3   0  17  12132.80    131.80
   3   0  18   2897.38     61.47
   3   0  19  16419.44     91.70
   3   0  20    965.00     50.79
   3   0  21    110.80     49.18
   3   0  22   1165.36     61.15
   3   0  23     38.78     61.23
   3   0  24    811.04     55.30
   3   0  25   1714.53     64.96
   3   0  26    497.48     57.30
   3   1   0   4730.84     29.26
   3   1   1  276926.5   1642.69
   3   1   2  26548.02    130.61
   3   1   3   3799.87     28.16
   3   1   4  63105.37    415.04
   3   1   5  54154.91    429.36
   3   1   6  55522.95    501.18
   3   1   7   7187.81     61.79
   3   1   8  79353.19    676.52
   3   1   9   2926.46     36.26
   3   1  10  26682.57    245.99
   3   1  11   8012.17     72.40
   3   1  12   4327.46     52.38
   3   1  13   3067.98     50.52
   3   1  14   5155.73     78.64
   3   1  15  10652.88     92.44
   3   1  16   8908.22     64.14
   3   1  17  14118.25    152.42
   3   1  18   2141.51     38.86
   3   1  19   2384.73     57.95
   3   1  20    821.78     39.81
   3   1  21   2533.98     53.27
   3   1  22    354.56     45.80
   3   1  23    719.74     57.29
   3   1  24    831.66     57.92
   3   1  25   1325.81     58.04
   3   1  26    515.65     73.68
   3   2   0  16350.03    101.15
   3   2   1  60613.30    413.70
   3   2   2  45683.13    292.85
   3   2   3  110999.8    815.94
   3   2   4  49493.81    257.93
   3   2   5  13850.35    111.90
   3   2   6  36574.76    203.75
   3   2   7   3667.25     38.07
   3   2   8  21071.10    214.24
   3   2   9  14568.87    163.05
   3   2  10   5220.67     39.16
   3   2  11  10715.13    138.85
   3   2  12   6361.78     69.00
   3   2  13   5801.53     56.03
   3   2  14   1779.60     42.21
   3   2  15   8461.31     91.52
   3   2  16   5586.45     60.56
   3   2  17   3876.96     47.42
   3   2  18   1971.63     42.96
   3   2  19   4516.46     46.90
   3   2  20    561.82     44.21
   3   2  21   4676.34     82.03
   3   2  22   1378.53     48.87
   3   2  23   6432.22     57.65
   3   2  24   1131.95     51.47
   3   2  25   1946.96     55.58
   3   2  26    193.13     46.43
   3   3   0  23246.91    275.35
   3   3   1  27923.84    188.93
   3   3   2  30616.18    265.03
   3   3   3   8474.74     53.17
   3   3   4  23085.00    181.85
   3   3   5  11737.27    134.14
   3   3   6   3786.34     24.40
   3   3   7  21446.72    153.28
   3   3   8  17974.52    139.76
   3   3   9  16524.42    252.10
   3   3  10  15068.61    168.29
   3   3  11   4626.61     74.18
   3   3  12   6075.83     36.20
   3   3  13   4611.25     36.07
   3   3  14   2253.57     34.34
   3   3  15  12824.49    136.15
   3   3  16   1728.63     36.74
   3   3  17  23790.61    189.89
   3   3  18    460.93     37.66
   3   3  19   1639.74     45.84
   3   3  20    739.04     40.81
   3   3  21    331.13     41.52
   3   3  22   8101.55    123.80
   3   3  23   4247.78     92.31
   3   3  24    665.78     45.32
   3   3  25     60.32     45.57
   3   4   0  76385.91   1111.72
   3   4   1  18124.31    159.68
   3   4   2   9463.41    106.23
   3   4   3  47072.48    530.40
   3   4   4  10208.25     62.22
   3   4   5  28687.74    202.34
   3   4   6   8391.27     59.80
   3   4   7  37815.21    213.66
   3   4   8   8523.25     63.50
   3   4   9   3866.38     43.47
   3   4  10   2054.27     29.62
   3   4  11   9457.24     95.09
   3   4  12   3595.68     47.54
   3   4  13   4870.33     69.32
   3   4  14    169.98     32.76
   3   4  15   9172.60    124.32
   3   4  16   3535.11     44.39
   3   4  17    677.11     41.80
   3   4  18    764.53     48.24
   3   4  19   2112.00     77.70
   3   4  20   1673.76     53.10
   3   4  21   1469.87     54.80
   3   4  22   1096.15     44.85
   3   4  23   2726.00     49.40
   3   4  24    263.87     45.66
   3   4  25   1477.42     61.16
   3   5   0    229.42     39.20
   3   5   1  31995.11    473.86
   3   5   2   2673.19     59.03
   3   5   3   1924.70     36.90
   3   5   4   2559.58     60.12
   3   5   5   5377.49     47.01
   3   5   6   2133.30     36.97
   3   5   7   1188.78     59.58
   3   5   8  50145.83    333.14
   3   5   9    997.15     40.50
   3   5  10   7447.70     58.75
   3   5  11   1212.09     35.04
   3   5  12   1383.96     33.51
   3   5  13  16539.30    234.14
   3   5  14  10748.18    178.46
   3   5  15  20985.45    324.76
   3   5  16   1678.09     55.54
   3   5  17    651.56     47.83
   3   5  18   1828.35     51.47
   3   5  19    242.15     49.75
   3   5  20   3764.29     64.32
   3   5  21   1768.20     46.67
   3   5  22   2447.77     66.66
   3   5  23    867.45     46.25
   3   5  24     74.09     45.54
   3   6   0  42302.96   1618.20
   3   6   1    230.30     90.74
   3   6   2  12802.95    162.53
   3   6   3   3036.11     56.25
   3   6   4   4365.07     42.64
   3   6   5   4068.06     76.28
   3   6   6   6134.22     49.25
   3   6   7   2829.58     43.97
   3   6   8   1517.61     42.78
   3   6   9   1609.02     68.49
   3   6  10  15268.88     93.81
   3   6  11   1972.28     48.86
   3   6  12   2780.86     52.61
   3   6  13   4976.59    103.27
   3   6  14  16143.31    184.70
   3   6  15   1670.41     70.12
   3   6  16   5703.26     69.45
   3   6  17   6011.68     73.49
   3   6  18    970.75     42.19
   3   6  19    868.89     43.06
   3   6  20   2673.88     55.02
   3   6  21    501.28     44.26
   3   6  22    172.50     54.99
   3   6  23    648.39     62.97
   3   7   0  15395.77    346.00
   3   7   1   2986.04     54.16
   3   7   2   7591.05     92.64
   3   7   3   3701.33     71.77
   3   7   4  10832.12    140.47
   3   7   5   3279.14     90.59
   3   7   6  16084.70    253.78
   3   7   7  11443.00    100.83
   3   7   8   9798.61    137.52
   3   7   9   1910.08     49.12
   3   7  10   5115.28     69.73
   3   7  11   5546.12     59.48
   3   7  12   9679.07    177.13
   3   7  13    956.44     52.64
   3   7  14    359.49     64.84
   3   7  15    595.99     55.23
   3   7  16   3184.11     63.01
   3   7  17    711.48     89.65
   3   7  18   1159.16     60.20
   3   7  19    809.42     43.50
   3   7  20    550.87     68.40
   3   7  21    500.69     55.80
   3   7  22   3772.66     77.24
   3   8   0   4653.73    171.38
   3   8   1   3010.26     78.80
   3   8   2    718.99     44.73
   3   8   3    212.97     30.08
   3   8   4  14851.36    193.88
   3   8   5    262.31     44.40
   3   8   6  11056.46    207.34
   3   8   7   3602.46     62.43
   3   8   8   2544.52     54.08
   3   8   9   2315.21     54.23
   3   8  10    361.01     51.14
   3   8  11    359.65     62.66
   3   8  12   6110.66     65.68
   3   8  13   1545.23     74.63
   3   8  14   3181.48     70.72
   3   8  15   3081.33    114.23
   3   8  16    972.76     92.48
   3   8  17    177.83     58.86
   3   8  18   1856.60     64.14
   3   8  19    279.65     60.83
   3   8  20    184.16     75.23
   3   8  21    919.44     66.84
   3   9   0   2169.58     63.08
   3   9   1   4347.35    143.94
   3   9   2   5852.89    158.15
   3   9   3   3759.99     91.39
   3   9   4   3475.60    165.60
   3   9   5    188.04     59.15
   3   9   6   1917.42     53.02
   3   9   7   4114.96     82.44
   3   9   8   2404.82     62.37
   3   9   9  12763.03     77.75
   3   9  10     12.07     53.13
   3   9  11    137.26     54.26
   3   9  12    920.40     57.13
   3   9  13   3822.94    100.45
   3   9  14    673.98     71.03
   3   9  15    874.77     73.11
   3   9  16     68.04     59.04
   3   9  17   3573.25     90.62
   3   9  18   3990.88    126.68
   3   9  19   1071.47     81.74
   3  10   0   2381.79     88.87
   3  10   1    287.51     62.18
   3  10   2   3469.83    160.79
   3  10   3   9920.16    203.19
   3  10   4    651.20     86.72
   3  10   5   3724.90     74.27
   3  10   6    622.84     59.41
   3  10   7   6186.89    116.96
   3  10   8    394.24     54.58
   3  10   9   1036.50     71.62
   3  10  10   5214.64     68.32
   3  10  11   1459.26     60.42
   3  10  12    157.79     93.59
   3  10  13    522.83     60.03
   3  10  14   1227.59     62.51
   3  10  15   2709.47     84.17
   3  10  16    496.39     77.58
   3  10  17    858.04     80.28
   3  11   0    268.44     66.30
   3  11   1    680.64     67.54
   3  11   2     65.93     66.69
   3  11   3   1477.73     56.96
   3  11   4   1381.21     80.03
   3  11   5   3120.79     68.17
   3  11   6    111.33     56.47
   3  11   7   3017.54     63.86
   3  11   8    804.37     59.83
   3  11   9   1298.05     63.17
   3  11  10   1317.62     61.56
   3  11  11    812.44     61.19
   3  11  12    329.83     75.86
   3  11  13   3771.12     70.73
   3  11  14   2462.17     67.86
   3  11  15    394.72     77.29
   3  12   0   2604.71    161.09
   3  12   1   1927.19     76.60
   3  12   2    467.82    117.91
   3  12   3   2070.88     96.04
   3  12   4    517.24     58.55
   3  12   5    949.01     59.81
   3  12   6    815.35     59.90
   3  12   7    731.57     90.52
   3  12   8    648.48     60.74
   3  12   9    609.29     62.02
   3  12  10   2284.85     67.83
   3  12  11    598.29     63.04
   3  12  12    666.40     64.57
   3  13   0   4037.62     87.68
   3  13   1    232.23     77.05
   3  13   2    205.95    104.95
   3  13   3    249.96     75.36
   3  13   4   1266.86     65.75
   3  13   5    396.13     75.73
   3  13   6   1345.40     64.75
   3  13   7    874.67     63.79
   4 -13  -8    894.43     65.05
   4 -13  -7    322.52     40.65
   4 -13  -6   1305.53     37.07
   4 -13  -5    166.89     37.07
   4 -13  -4    148.67     45.04
   4 -13  -3   1328.72    103.24
   4 -13  -2   2922.23    100.73
   4 -13  -1   1086.19     66.79
   4 -12 -13    889.66     35.97
   4 -12 -12    143.13     34.37
   4 -12 -11   1822.30     39.50
   4 -12 -10   2099.64     39.64
   4 -12  -9    628.95     34.52
   4 -12  -8    495.16     33.94
   4 -12  -7    130.86     34.94
   4 -12  -6    690.88     33.91
   4 -12  -5    540.64     33.70
   4 -12  -4   1402.65     53.54
   4 -12  -3     70.71     58.31
   4 -12  -2    838.84     83.87
   4 -12  -1    889.07     76.45
   4 -11 -16    327.02     34.68
   4 -11 -15    923.98     35.09
   4 -11 -14    736.96     41.17
   4 -11 -13   2298.22     61.90
   4 -11 -12   1428.96     57.59
   4 -11 -11   1284.41     34.14
   4 -11 -10   1345.00     33.85
   4 -11  -9   1850.73     37.38
   4 -11  -8   5315.50     48.41
   4 -11  -7   2719.65     59.19
   4 -11  -6   1606.09     33.53
   4 -11  -5     92.84     31.12
   4 -11  -4   2053.38     75.20
   4 -11  -3   1920.23     74.80
   4 -11  -2   2089.11     59.55
   4 -11  -1    817.38     94.83
   4 -10 -18    464.19     43.48
   4 -10 -17    268.33     37.93
   4 -10 -16    183.67     33.04
   4 -10 -15    249.28     32.26
   4 -10 -14    632.75     32.39
   4 -10 -13    369.33     47.79
   4 -10 -12    334.92     35.77
   4 -10 -11    376.35     32.51
   4 -10 -10   2555.69     71.69
   4 -10  -9    168.80     29.77
   4 -10  -8   2187.52     41.28
   4 -10  -7   1427.56     36.18
   4 -10  -6   1525.85     45.68
   4 -10  -5     10.99     28.62
   4 -10  -4   6476.03    147.33
   4 -10  -3   5696.84     80.26
   4 -10  -2  12205.36    255.70
   4 -10  -1   1289.41     65.75
   4  -9 -20   4186.47    120.22
   4  -9 -19    375.83     37.48
   4  -9 -18   1061.16     47.16
   4  -9 -17    452.71     40.49
   4  -9 -16    809.37     34.15
   4  -9 -15   1485.20     37.71
   4  -9 -14   1428.82     46.12
   4  -9 -13    739.72     34.77
   4  -9 -12   1546.69     33.42
   4  -9 -11   2737.70     44.44
   4  -9 -10   5765.81     74.85
   4  -9  -9    432.87     27.88
   4  -9  -8    175.24     27.16
   4  -9  -7   5100.79     61.06
   4  -9  -6   5174.43     77.20
   4  -9  -5    448.62     27.00
   4  -9  -4   4334.27     77.92
   4  -9  -3   5053.37    106.34
   4  -9  -2   2843.05    114.45
   4  -9  -1   7445.30    337.30
   4  -8 -22    654.20     36.38
   4  -8 -21    700.63     39.44
   4  -8 -20   1141.69     38.91
   4  -8 -19    588.01     39.29
   4  -8 -18   2669.38     41.20
   4  -8 -17   8893.11    128.08
   4  -8 -16    424.19     30.18
   4  -8 -15    116.54     29.03
   4  -8 -14   1631.08     39.66
   4  -8 -13   1836.42     53.34
   4  -8 -12   1086.57     28.24
   4  -8 -11   4428.19     60.09
   4  -8 -10   4445.83     36.80
   4  -8  -9   1075.61     27.98
   4  -8  -8   8550.44     93.12
   4  -8  -7   2419.97     38.98
   4  -8  -6  13496.91    118.16
   4  -8  -5   6772.53     85.57
   4  -8  -4   6354.94    157.92
   4  -8  -3   4990.43    146.55
   4  -8  -2   1341.00    100.74
   4  -8  -1   7251.86    285.45
   4  -7 -23    826.98     39.71
   4  -7 -22    353.74     52.92
   4  -7 -21    268.62     32.45
   4  -7 -20    412.63     31.74
   4  -7 -19     67.65     30.51
   4  -7 -18   2128.91     40.52
   4  -7 -17    634.64     29.79
   4  -7 -16   1378.34     34.97
   4  -7 -15    784.45     28.32
   4  -7 -14   1470.86     43.68
   4  -7 -13   2534.33     35.96
   4  -7 -12   1989.80     36.62
   4  -7 -11   2969.17     40.64
   4  -7 -10   2650.06     34.74
   4  -7  -9   8486.21     86.07
   4  -7  -8    915.07     24.73
   4  -7  -7  10976.59    106.54
   4  -7  -6  19686.00    107.79
   4  -7  -5   2634.49     24.46
   4  -7  -4   1079.16     36.03
   4  -7  -3   8336.64    277.25
   4  -7  -2  13307.84     97.25
   4  -7  -1   6598.26    266.07
   4  -6 -24   1847.92     54.92
   4  -6 -23    421.76     50.52
   4  -6 -22    489.79     52.64
   4  -6 -21      0.00     42.31
   4  -6 -20   3669.37     43.78
   4  -6 -19   1076.49     41.37
   4  -6 -18    538.88     39.01
   4  -6 -17   4182.78     48.85
   4  -6 -16   6180.69     80.37
   4  -6 -15   6909.31     94.36
   4  -6 -14   3731.44     60.28
   4  -6 -13   8549.16     78.60
   4  -6 -12   2909.83     53.62
   4  -6 -11   4332.52     35.96
   4  -6 -10    839.49     22.61
   4  -6  -9  25147.74    192.32
   4  -6  -8   5368.67     45.62
   4  -6  -7   3795.19     38.80
   4  -6  -6   9504.26     71.06
   4  -6  -5  16566.55    119.90
   4  -6  -4   8061.85     83.05
   4  -6  -3   6574.81    125.66
   4  -6  -2   1472.66     50.51
   4  -6  -1   6718.60    174.08
   4  -5 -25    141.77     41.58
   4  -5 -24   1500.15     60.04
   4  -5 -23    785.69     50.07
   4  -5 -22    443.67     47.48
   4  -5 -21   1712.92     41.68
   4  -5 -20   3092.23     51.12
   4  -5 -19    405.02     43.36
   4  -5 -18   1804.42     37.25
   4  -5 -17   1288.76     34.93
   4  -5 -16   2000.94     50.04
   4  -5 -15   3496.47     45.60
   4  -5 -14   4323.46     35.68
   4  -5 -13   5070.80     37.15
   4  -5 -12    616.06     30.47
   4  -5 -11   5474.67     57.19
   4  -5 -10  15408.91    127.29
   4  -5  -9  10734.82    105.23
   4  -5  -8  25402.88    249.59
   4  -5  -7  15502.38    141.00
   4  -5  -6   5626.58     60.22
   4  -5  -5   1750.54     21.35
   4  -5  -4  16696.79    187.79
   4  -5  -3   3105.99     24.89
   4  -5  -2   5224.15    105.03
   4  -5  -1   1900.67     31.12
   4  -4 -26    338.14     42.21
   4  -4 -25    839.01     42.36
   4  -4 -24    602.09     40.67
   4  -4 -23   2979.55     65.30
   4  -4 -22    730.40     45.61
   4  -4 -21     81.37     46.53
   4  -4 -20   1307.45     41.43
   4  -4 -19   5778.86     91.89
   4  -4 -18    638.19     36.78
   4  -4 -17   8892.50     55.16
   4  -4 -16    964.63     38.20
   4  -4 -15   4215.91     35.33
   4  -4 -14   4654.36     82.91
   4  -4 -13    619.69     29.62
   4  -4 -12    337.30     34.73
   4  -4 -11    196.97     23.46
   4  -4 -10   6129.52     43.65
   4  -4  -9   6538.34     61.35
   4  -4  -8   5485.68     70.24
   4  -4  -7  18500.34    160.03
   4  -4  -6   5021.99     40.12
   4  -4  -5  21126.45    138.11
   4  -4  -4  19189.46    143.00
   4  -4  -3  33230.05    224.17
   4  -4  -2  36395.10    269.94
   4  -4  -1  105541.7    478.67
   4  -3 -26     78.43     42.48
   4  -3 -25    796.58     54.55
   4  -3 -24     33.31     43.32
   4  -3 -23    798.97     39.09
   4  -3 -22   1625.33     39.65
   4  -3 -21   1872.20     43.23
   4  -3 -20   1558.50     39.86
   4  -3 -19  12395.87    125.93
   4  -3 -18   6138.33     51.47
   4  -3 -17   3261.23     35.66
   4  -3 -16  15428.16     91.56
   4  -3 -15  10658.57     56.36
   4  -3 -14   8657.25     57.93
   4  -3 -13  21216.45    206.67
   4  -3 -12   3463.35     27.90
   4  -3 -11  10331.86     67.02
   4  -3 -10    763.33     24.26
   4  -3  -9  52040.24    300.37
   4  -3  -8   1829.98     19.83
   4  -3  -7  20838.63    144.17
   4  -3  -6  20814.64    141.65
   4  -3  -5  17849.53    139.00
   4  -3  -4  16704.72    100.01
   4  -3  -3   1393.00     17.04
   4  -3  -2   2433.47     14.40
   4  -3  -1   5939.31     34.68
   4  -2 -26    188.89     40.59
   4  -2 -25   1336.70     41.93
   4  -2 -24    752.86     43.10
   4  -2 -23    688.33     38.15
   4  -2 -22   7533.99     50.80
   4  -2 -21    587.59     39.63
   4  -2 -20   2906.21     38.47
   4  -2 -19   2038.76     38.99
   4  -2 -18    172.08     33.93
   4  -2 -17   4766.86     36.74
   4  -2 -16   1427.62     44.54
   4  -2 -15   9090.61     38.59
   4  -2 -14   3079.02     29.37
   4  -2 -13   7647.96     33.21
   4  -2 -12   4649.49     31.15
   4  -2 -11   2596.78     30.63
   4  -2 -10  19850.38    110.99
   4  -2  -9  20212.80    101.28
   4  -2  -8   9987.55     39.19
   4  -2  -7   5255.30     45.91
   4  -2  -6  36020.29    190.67
   4  -2  -5   6432.94     69.54
   4  -2  -4  29696.69    143.27
   4  -2  -3  44538.51    195.83
   4  -2  -2  145201.1    502.29
   4  -2  -1  367371.6   1423.34
   4  -1 -27   1692.47     73.59
   4  -1 -26   3007.94     51.76
   4  -1 -25   2721.96     48.18
   4  -1 -24   1691.41     52.78
   4  -1 -23   3740.35     55.50
   4  -1 -22   1081.93     45.37
   4  -1 -21   1006.17     47.08
   4  -1 -20   1137.19     38.10
   4  -1 -19   2140.42     42.42
   4  -1 -18   9565.81     81.47
   4  -1 -17   1306.51     31.09
   4  -1 -16    955.07     28.78
   4  -1 -15   1521.06     30.92
   4  -1 -14   7785.01     38.37
   4  -1 -13   7601.90     35.09
   4  -1 -12   6129.61     28.96
   4  -1 -11   7334.64     37.33
   4  -1 -10  12204.64     51.24
   4  -1  -9  37029.09    235.51
   4  -1  -8   9529.14     66.33
   4  -1  -7  29494.13    149.06
   4  -1  -6  26037.39    204.04
   4  -1  -5   1727.55     22.29
   4  -1  -4  54029.48    249.60
   4  -1  -3  46557.51    287.69
   4  -1  -2  13438.53     64.01
   4  -1  -1  52895.23    611.20
   4   0   0  83061.00   1090.31
   4   0   1  47051.91    764.89
   4   0   2    562.08      9.75
   4   0   3  86454.51    863.33
   4   0   4  88883.13    989.86
   4   0   5   3860.43     31.68
   4   0   6   3899.40     42.22
   4   0   7   3636.28     48.20
   4   0   8  30162.33    237.90
   4   0   9  11918.74     97.50
   4   0  10    520.32     23.52
   4   0  11   2164.82     27.54
   4   0  12    145.93     26.58
   4   0  13  34146.42    289.31
   4   0  14   6087.36     83.44
   4   0  15   6320.47    133.26
   4   0  16   2082.62     42.20
   4   0  17      0.00     38.40
   4   0  18   2643.14     43.91
   4   0  19    929.32     63.40
   4   0  20    889.17     69.05
   4   0  21    520.76     59.08
   4   0  22    334.47     52.33
   4   0  23   2340.62    162.84
   4   0  24    653.68     55.46
   4   0  25    365.28     56.76
   4   1   0  35511.24    389.80
   4   1   1  15249.84    131.94
   4   1   2  14448.91    126.29
   4   1   3  54672.82    357.44
   4   1   4   2078.51     23.18
   4   1   5  21892.62    201.94
   4   1   6  107884.7    794.67
   4   1   7  13029.15     87.73
   4   1   8  83947.90    772.21
   4   1   9    182.17     21.78
   4   1  10   2701.21     26.89
   4   1  11   8080.12     81.62
   4   1  12   6957.73     50.92
   4   1  13   2430.59     77.12
   4   1  14  12217.47    128.51
   4   1  15  11230.60    154.63
   4   1  16   1621.21     35.64
   4   1  17  11831.02    164.36
   4   1  18   1312.62     38.44
   4   1  19    663.50     39.00
   4   1  20   2710.09     76.30
   4   1  21   1264.65     46.49
   4   1  22    958.72     54.09
   4   1  23   1654.64     74.15
   4   1  24    605.08     84.79
   4   1  25    367.63     57.22
   4   2   0  438792.0   4007.70
   4   2   1  30321.26    189.51
   4   2   2    150.05     18.31
   4   2   3  12498.70     77.25
   4   2   4  17405.82    143.99
   4   2   5  55731.12    358.09
   4   2   6  37360.66    314.32
   4   2   7  40249.09    416.46
   4   2   8  10256.38    103.62
   4   2   9  19311.73    246.94
   4   2  10   7771.78     73.70
   4   2  11   7015.99     85.56
   4   2  12   5779.49     84.41
   4   2  13   3524.50     77.13
   4   2  14  14865.30    195.52
   4   2  15   1587.20     46.63
   4   2  16   4592.01     83.57
   4   2  17   4753.64     51.27
   4   2  18    831.04     55.42
   4   2  19   3916.42     68.60
   4   2  20   5273.94     70.12
   4   2  21    450.50     46.07
   4   2  22    436.79     47.13
   4   2  23   2413.09     63.28
   4   2  24    979.28     46.24
   4   2  25    257.50     46.07
   4   3   0  12732.79    159.57
   4   3   1  36519.47    358.84
   4   3   2   5546.14     46.60
   4   3   3   8850.13     38.23
   4   3   4  16110.79    127.21
   4   3   5  10535.53    128.35
   4   3   6   4499.30     78.62
   4   3   7    599.18     21.67
   4   3   8  11966.01    113.70
   4   3   9   1845.63     26.67
   4   3  10  23410.33    285.14
   4   3  11  10457.22    151.79
   4   3  12   6692.85    132.66
   4   3  13   3938.41     72.18
   4   3  14   3214.88     36.32
   4   3  15    867.14     36.17
   4   3  16   2766.90     39.17
   4   3  17   3874.86     51.75
   4   3  18    219.80     37.90
   4   3  19   2805.09     43.23
   4   3  20   1000.99     41.82
   4   3  21   1195.20     43.63
   4   3  22   3931.26     86.55
   4   3  23   1115.65     45.83
   4   3  24   4029.03     85.57
   4   3  25    748.85     47.62
   4   4   0  24177.11    537.90
   4   4   1  64133.48    962.76
   4   4   2  21768.13    191.03
   4   4   3  19672.47    159.72
   4   4   4  37809.61    262.08
   4   4   5  32615.17    254.57
   4   4   6  16136.47    101.70
   4   4   7  13809.08    178.60
   4   4   8  13906.24    111.63
   4   4   9   2174.05     29.11
   4   4  10   4901.90     79.31
   4   4  11   5845.39     83.88
   4   4  12   8302.93    138.14
   4   4  13  27944.29    310.60
   4   4  14   7050.69     94.79
   4   4  15   8631.34     81.20
   4   4  16    685.62     51.68
   4   4  17   1086.23     47.18
   4   4  18    702.51     43.85
   4   4  19   5265.63     73.86
   4   4  20   3185.16     86.20
   4   4  21   1779.93     88.59
   4   4  22   1566.48     49.69
   4   4  23    462.88     49.67
   4   4  24    567.31     46.41
   4   5   0  12162.63    280.86
   4   5   1    629.48     24.51
   4   5   2   2227.92     39.85
   4   5   3  25443.58    184.30
   4   5   4   2012.88     44.51
   4   5   5   5756.81     42.17
   4   5   6  23902.25    167.14
   4   5   7  23687.33    155.73
   4   5   8   2790.72    102.23
   4   5   9  21981.09    104.75
   4   5  10  12544.15    144.57
   4   5  11    860.04     39.16
   4   5  12   5555.10     89.27
   4   5  13   2336.14     36.92
   4   5  14   4436.52     78.73
   4   5  15   2181.89     39.94
   4   5  16    938.33     39.05
   4   5  17   4373.68     98.06
   4   5  18   3283.80     54.28
   4   5  19   5221.34    140.55
   4   5  20    643.13     49.25
   4   5  21   1237.95     45.11
   4   5  22   1103.82     46.26
   4   5  23    123.20     45.85
   4   5  24   1696.92     74.08
   4   6   0    905.82     91.80
   4   6   1  12966.33    173.63
   4   6   2   2637.46     61.32
   4   6   3  14014.79     86.95
   4   6   4   3461.94     41.42
   4   6   5    238.38     35.92
   4   6   6   5957.91    101.39
   4   6   7   1415.00     42.16
   4   6   8  17079.12     69.06
   4   6   9      0.00     41.90
   4   6  10    784.71     44.87
   4   6  11   2085.63     70.41
   4   6  12   6271.13     74.37
   4   6  13   1469.16     67.72
   4   6  14   1835.80     42.97
   4   6  15    552.56     38.30
   4   6  16   2283.86     62.53
   4   6  17    662.30     41.14
   4   6  18   2796.42     88.52
   4   6  19    459.75     52.74
   4   6  20    597.63     48.51
   4   6  21   1389.20     49.63
   4   6  22     65.16     89.10
   4   6  23    531.93     67.02
   4   7   0   1664.85     41.10
   4   7   1  14778.33    202.75
   4   7   2   1958.97     38.94
   4   7   3  35700.97    568.05
   4   7   4  17514.99    172.45
   4   7   5   3493.44     59.38
   4   7   6  28753.79    376.25
   4   7   7   4538.11     67.99
   4   7   8   2153.43     80.61
   4   7   9   2761.01     71.40
   4   7  10   9218.48     89.39
   4   7  11   6283.20     61.46
   4   7  12     71.82    119.76
   4   7  13   1472.99     55.29
   4   7  14   4751.01     67.04
   4   7  15   1121.09     57.04
   4   7  16   4508.28     65.80
   4   7  17   2313.49     62.14
   4   7  18    754.48     59.93
   4   7  19     64.51     59.22
   4   7  20    113.38     44.36
   4   7  21   1137.20     57.13
   4   7  22    971.36     58.43
   4   8   0  15015.20    125.38
   4   8   1  13588.74    439.60
   4   8   2   1909.77    131.38
   4   8   3   1430.60     67.20
   4   8   4    913.92     44.74
   4   8   5   6068.41    147.04
   4   8   6   1599.96     49.02
   4   8   7   4993.54    105.13
   4   8   8    536.33     48.80
   4   8   9   4228.07     89.98
   4   8  10   2914.33     72.39
   4   8  11   5688.74     63.83
   4   8  12   2703.02     82.34
   4   8  13   4253.87    222.52
   4   8  14   2610.95     60.34
   4   8  15   2690.07    110.21
   4   8  16   3668.00     97.80
   4   8  17   2700.41     65.91
   4   8  18   1425.21     63.93
   4   8  19    628.87     63.34
   4   8  20    944.75     65.04
   4   9   0  13186.87    509.30
   4   9   1  11487.59    121.35
   4   9   2   2423.90    109.75
   4   9   3   1422.89    116.24
   4   9   4   6989.76    222.60
   4   9   5    471.24     48.70
   4   9   6   1590.75     94.45
   4   9   7   7107.51    128.75
   4   9   8   3777.54     59.99
   4   9   9    737.73     53.70
   4   9  10   5208.60    105.33
   4   9  11   1842.48     58.53
   4   9  12    758.21     69.97
   4   9  13    105.67     57.04
   4   9  14    668.63     71.76
   4   9  15    175.66     85.39
   4   9  16   1531.70     63.60
   4   9  17    642.09     78.11
   4   9  18    518.71     78.50
   4   9  19   1642.84     85.42
   4  10   0   1324.68     88.52
   4  10   1   5003.22    172.43
   4  10   2   1167.76     46.54
   4  10   3   1411.03    127.57
   4  10   4   3792.08     59.29
   4  10   5    552.74     65.09
   4  10   6   1009.18     54.69
   4  10   7   6476.59    119.06
   4  10   8   4848.96     75.78
   4  10   9   2748.30     62.34
   4  10  10   1545.52     59.52
   4  10  11    756.47     71.87
   4  10  12    541.93     59.29
   4  10  13   4976.23    161.74
   4  10  14    549.26     61.39
   4  10  15   4809.25    137.02
   4  10  16    300.18    142.84
   4  10  17      0.00    109.19
   4  11   0    776.17    106.85
   4  11   1    395.94     99.46
   4  11   2   1213.90     69.34
   4  11   3   1202.88     96.88
   4  11   4    711.22     55.34
   4  11   5   1674.08     91.69
   4  11   6   3613.82     64.58
   4  11   7   2767.40     63.70
   4  11   8    842.17     84.29
   4  11   9   2912.68     65.47
   4  11  10    933.25     88.22
   4  11  11    990.62     62.43
   4  11  12    454.12     76.56
   4  11  13    459.18     62.99
   4  11  14   1202.23     65.12
   4  12   0    681.96     58.20
   4  12   1    190.20     58.11
   4  12   2    123.51     60.21
   4  12   3    276.27     69.82
   4  12   4   2973.67     65.08
   4  12   5    628.77     59.61
   4  12   6   1833.24     63.24
   4  12   7   2058.76     64.23
   4  12   8    970.49     64.86
   4  12   9    256.83     62.09
   4  12  10    168.21     61.63
   4  12  11    376.74     96.64
   4  13   0    673.64     62.99
   4  13   1   2059.46     66.37
   4  13   2    735.38     77.16
   4  13   3   1626.33     78.35
   4  13   4   4240.29    126.94
   4  13   5   1541.59     80.24
   4  13   6   4221.02     73.10
   4  13   7    187.27    101.34
   5 -13  -7    405.72     36.64
   5 -13  -6     60.39     34.37
   5 -13  -5    245.81     42.01
   5 -13  -4   1282.70     58.89
   5 -13  -3   1327.94     65.85
   5 -13  -2      0.00     67.35
   5 -13  -1    833.35     63.28
   5 -12 -12    140.30     33.82
   5 -12 -11    240.75     33.78
   5 -12 -10    939.55     36.27
   5 -12  -9    600.47     33.92
   5 -12  -8   2462.84     49.42
   5 -12  -7   1325.06     37.17
   5 -12  -6   2257.09     51.41
   5 -12  -5   1074.87     34.38
   5 -12  -4    713.31     46.23
   5 -12  -3    224.01     59.23
   5 -12  -2    444.28     86.10
   5 -12  -1   2015.68     64.35
   5 -11 -15   1153.06     39.88
   5 -11 -14    917.24     43.50
   5 -11 -13   2247.50     58.10
   5 -11 -12    696.81     47.66
   5 -11 -11   1118.82     41.53
   5 -11 -10   3251.01     48.24
   5 -11  -9   3843.72     73.75
   5 -11  -8    652.94     35.06
   5 -11  -7     27.94     32.49
   5 -11  -6   1779.40     38.59
   5 -11  -5   6629.53     93.48
   5 -11  -4   1427.42     65.01
   5 -11  -3     62.49     75.40
   5 -11  -2   1080.50     90.48
   5 -11  -1    468.82     55.41
   5 -10 -18    466.33     38.18
   5 -10 -17    772.08     38.18
   5 -10 -16    404.82     34.88
   5 -10 -15   4130.69     65.68
   5 -10 -14   1419.67     45.22
   5 -10 -13   2613.46     59.85
   5 -10 -12     90.38     30.06
   5 -10 -11    636.83     32.27
   5 -10 -10     88.19     33.33
   5 -10  -9    375.19     29.53
   5 -10  -8    909.85     32.53
   5 -10  -7    927.59     36.58
   5 -10  -6    966.16     40.05
   5 -10  -5    381.06     33.51
   5 -10  -4   3572.67     50.46
   5 -10  -3   1662.70     62.84
   5 -10  -2   1227.77    135.25
   5 -10  -1   1279.87     52.24
   5  -9 -20    185.21     34.76
   5  -9 -19    531.78     38.70
   5  -9 -18   1343.33     47.27
   5  -9 -17   6002.50    124.75
   5  -9 -16   3027.33     66.24
   5  -9 -15   3995.36     49.67
   5  -9 -14   3020.88     48.46
   5  -9 -13    841.14     29.99
   5  -9 -12    925.68     37.04
   5  -9 -11   1130.68     29.20
   5  -9 -10   2158.98     62.64
   5  -9  -9   4016.44     53.36
   5  -9  -8   3147.66     59.77
   5  -9  -7    653.56     29.43
   5  -9  -6   1436.97     40.40
   5  -9  -5   7801.24     77.97
   5  -9  -4   3949.84    108.11
   5  -9  -3   2207.09     89.28
   5  -9  -2   8025.01    197.25
   5  -9  -1   2015.99     56.35
   5  -8 -21   1703.73     64.73
   5  -8 -20    335.51     32.07
   5  -8 -19   1004.08     48.53
   5  -8 -18   2659.61     56.88
   5  -8 -17    655.47     30.70
   5  -8 -16   5670.07     70.36
   5  -8 -15     34.97     31.12
   5  -8 -14     36.55     27.61
   5  -8 -13   9426.39    118.37
   5  -8 -12   2883.91     49.40
   5  -8 -11   6235.30     42.70
   5  -8 -10    865.51     32.48
   5  -8  -9   5236.40     50.90
   5  -8  -8   2351.84     31.96
   5  -8  -7   7448.20     80.41
   5  -8  -6   2213.66     48.90
   5  -8  -5   2286.63     39.38
   5  -8  -4    842.96     46.87
   5  -8  -3  11360.49    240.65
   5  -8  -2    439.94    109.31
   5  -8  -1  44236.40    514.13
   5  -7 -23    272.50     37.75
   5  -7 -22   1541.31     59.43
   5  -7 -21    261.29     34.29
   5  -7 -20    759.45     31.73
   5  -7 -19   4173.96     44.44
   5  -7 -18    738.53     37.22
   5  -7 -17   1979.77     41.08
   5  -7 -16    350.23     30.08
   5  -7 -15    274.02     26.81
   5  -7 -14   3788.10     56.75
   5  -7 -13   7987.71     78.95
   5  -7 -12    564.69     30.78
   5  -7 -11   3230.03     56.55
   5  -7 -10   9891.99     87.02
   5  -7  -9   6163.58     99.82
   5  -7  -8   5076.83     76.03
   5  -7  -7   2632.06     47.01
   5  -7  -6    572.69     21.49
   5  -7  -5   2353.78     38.10
   5  -7  -4  10110.67    161.00
   5  -7  -3   9502.21    209.54
   5  -7  -2    672.46    113.07
   5  -7  -1  18891.04    339.42
   5  -6 -24    634.31     51.19
   5  -6 -23   1182.68     51.68
   5  -6 -22    996.25     43.20
   5  -6 -21   1390.65     68.22
   5  -6 -20    631.61     41.51
   5  -6 -19    260.27     50.49
   5  -6 -18   4068.53     69.68
   5  -6 -17    473.41     34.12
   5  -6 -16   4925.39     64.01
   5  -6 -15   1427.49     36.42
   5  -6 -14   2372.43     36.66
   5  -6 -13   2025.35     41.46
   5  -6 -12   3872.26     61.11
   5  -6 -11  12459.62     96.45
   5  -6 -10    264.50     23.06
   5  -6  -9  16704.12    172.02
   5  -6  -8  21521.04    245.93
   5  -6  -7    336.55     18.83
   5  -6  -6   2793.18     46.80
   5  -6  -5  12922.65    112.63
   5  -6  -4     40.04     23.75
   5  -6  -3   6172.40     69.24
   5  -6  -2   4430.40     83.42
   5  -6  -1   2487.87     46.90
   5  -5 -25   1114.35     42.99
   5  -5 -24   2094.07     43.50
   5  -5 -23     88.29     41.68
   5  -5 -22     47.17     55.88
   5  -5 -21     68.30     40.08
   5  -5 -20   5923.83     48.83
   5  -5 -19    933.39     44.04
   5  -5 -18   7068.36     83.45
   5  -5 -17    889.98     33.52
   5  -5 -16   1186.57     35.24
   5  -5 -15    654.62     37.45
   5  -5 -14   6180.60     42.51
   5  -5 -13   2891.24     31.50
   5  -5 -12   2571.30     46.43
   5  -5 -11   4238.08     76.69
   5  -5 -10  61799.26    432.54
   5  -5  -9   6761.25     77.40
   5  -5  -8  14647.08    164.66
   5  -5  -7   2473.35     27.69
   5  -5  -6    902.71     17.20
   5  -5  -5    621.42     15.61
   5  -5  -4  15796.92    141.23
   5  -5  -3   2947.10     35.40
   5  -5  -2    772.45     26.15
   5  -5  -1   3485.62     60.21
   5  -4 -25   2209.46     62.68
   5  -4 -24   1035.53     40.73
   5  -4 -23    536.63     38.42
   5  -4 -22    837.78     53.54
   5  -4 -21   1086.37     50.00
   5  -4 -20   5128.70     96.83
   5  -4 -19   1844.89     46.52
   5  -4 -18   4005.07     38.46
   5  -4 -17  10645.69     96.64
   5  -4 -16   1311.19     38.20
   5  -4 -15   1863.47     34.94
   5  -4 -14   5652.83     45.33
   5  -4 -13    143.79     27.00
   5  -4 -12    795.62     24.83
   5  -4 -11   8975.40     40.46
   5  -4 -10  10819.81     77.20
   5  -4  -9    486.07     16.55
   5  -4  -8   2870.12     36.03
   5  -4  -7  18431.87    130.05
   5  -4  -6  10764.37     86.13
   5  -4  -5  10183.49    111.05
   5  -4  -4  13385.32     63.76
   5  -4  -3  29893.11    314.28
   5  -4  -2   6787.26    127.49
   5  -4  -1   4042.46     63.78
   5  -3 -26   2548.42     53.01
   5  -3 -25   1111.01     41.07
   5  -3 -24   2129.83     71.06
   5  -3 -23   5191.10     62.39
   5  -3 -22    975.59     42.12
   5  -3 -21     16.10     55.18
   5  -3 -20      0.00     33.55
   5  -3 -19    582.07     36.05
   5  -3 -18   3840.40     39.06
   5  -3 -17  24921.85    173.09
   5  -3 -16   1156.02     33.96
   5  -3 -15   2606.59     30.67
   5  -3 -14   2809.87     31.74
   5  -3 -13    765.00     29.22
   5  -3 -12  21556.62    138.61
   5  -3 -11   9364.00     89.59
   5  -3 -10  38992.50    344.34
   5  -3  -9   3753.39     31.50
   5  -3  -8  41940.42    291.12
   5  -3  -7  11562.80     72.05
   5  -3  -6  29057.50    144.65
   5  -3  -5  13947.22    105.66
   5  -3  -4  16414.90    129.95
   5  -3  -3  41807.35    204.22
   5  -3  -2  59409.90    350.05
   5  -3  -1  31704.09    220.72
   5  -2 -26     43.12     44.58
   5  -2 -25    526.53     39.74
   5  -2 -24   1253.27     45.07
   5  -2 -23    292.70     36.96
   5  -2 -22   1658.94     38.03
   5  -2 -21   1370.23     36.36
   5  -2 -20   5474.66     45.41
   5  -2 -19   4234.69     44.02
   5  -2 -18  11369.55     67.93
   5  -2 -17  10083.12     48.42
   5  -2 -16  13064.51     58.67
   5  -2 -15  12429.74     64.44
   5  -2 -14   7851.90     67.67
   5  -2 -13   8159.46     62.43
   5  -2 -12   3170.48     29.61
   5  -2 -11   9141.21     58.43
   5  -2 -10   4395.31     23.58
   5  -2  -9    459.21     24.08
   5  -2  -8   8866.17     49.02
   5  -2  -7  16974.40    103.18
   5  -2  -6  68431.01    275.77
   5  -2  -5   3314.90     23.62
   5  -2  -4  36199.14    200.42
   5  -2  -3  74935.47    430.19
   5  -2  -2  12543.90    105.93
   5  -2  -1  56964.23    273.29
   5  -1 -26    591.43     40.90
   5  -1 -25   1894.74     54.64
   5  -1 -24   1501.32     81.70
   5  -1 -23   4786.67     52.21
   5  -1 -22    764.63     36.47
   5  -1 -21    355.70     37.48
   5  -1 -20   1118.70     37.15
   5  -1 -19   5218.69     39.30
   5  -1 -18   1995.23     43.62
   5  -1 -17   8011.75     43.13
   5  -1 -16     86.72     26.70
   5  -1 -15   2693.34     31.50
   5  -1 -14   5708.74     41.94
   5  -1 -13   8433.67     44.92
   5  -1 -12   6345.01     28.46
   5  -1 -11  18327.39     84.99
   5  -1 -10  35378.17    184.26
   5  -1  -9   8213.59     38.49
   5  -1  -8  21377.15    143.47
   5  -1  -7   1555.70     13.33
   5  -1  -6   5944.32     25.08
   5  -1  -5  12220.12     65.70
   5  -1  -4  40590.57    270.30
   5  -1  -3  28229.76    165.89
   5  -1  -2  34986.92    235.25
   5  -1  -1  73888.04    402.16
   5   0   0  12030.44    211.57
   5   0   1  141772.6   1435.46
   5   0   2  16464.26    105.64
   5   0   3    369.99     13.69
   5   0   4   1313.21     13.95
   5   0   5   2091.37     29.37
   5   0   6  15291.38    154.69
   5   0   7  85087.70    809.17
   5   0   8  12680.37    109.66
   5   0   9  17367.70    124.04
   5   0  10   4721.36     46.74
   5   0  11    302.88     25.40
   5   0  12   1432.76     29.02
   5   0  13   1932.68     44.98
   5   0  14    432.24     39.02
   5   0  15   1943.44     39.18
   5   0  16   1712.39     39.89
   5   0  17  13461.77    102.62
   5   0  18   5752.07     98.95
   5   0  19   2479.71     52.69
   5   0  20     53.34     54.45
   5   0  21      0.00     50.96
   5   0  22   1471.55     73.21
   5   0  23      0.00     53.80
   5   0  24    300.19     56.20
   5   0  25    616.53     58.05
   5   1   0   2954.30     59.24
   5   1   1  54606.66    301.76
   5   1   2  66532.90    625.70
   5   1   3  27023.86    199.78
   5   1   4   4813.93     28.37
   5   1   5   9628.90    101.15
   5   1   6  13836.91    156.97
   5   1   7   2371.71     21.92
   5   1   8  35475.05    495.85
   5   1   9  19263.25    172.30
   5   1  10  10120.08    119.48
   5   1  11     57.29     25.30
   5   1  12  12637.82    205.45
   5   1  13  11184.17    167.20
   5   1  14    402.89     34.84
   5   1  15   8456.44    102.49
   5   1  16   3228.33     46.79
   5   1  17   4879.76     58.15
   5   1  18   1092.17     38.79
   5   1  19   8244.59    110.51
   5   1  20    512.11     44.43
   5   1  21   3940.13     77.41
   5   1  22   1703.39     64.99
   5   1  23   3051.44    113.30
   5   1  24     65.91     55.68
   5   1  25   2960.60     62.09
   5   2   0  54484.89    310.12
   5   2   1   2211.13     16.83
   5   2   2  16611.33    162.70
   5   2   3  25660.64    225.74
   5   2   4  21861.03    272.51
   5   2   5  33246.09    401.01
   5   2   6    966.09     19.25
   5   2   7  10005.84    133.50
   5   2   8  10430.41    114.66
   5   2   9   5815.82     48.20
   5   2  10  33603.00    518.85
   5   2  11   1537.18     39.38
   5   2  12    692.14     29.06
   5   2  13    990.85     31.19
   5   2  14  14238.74    207.56
   5   2  15   3009.82     37.61
   5   2  16  23585.86    274.20
   5   2  17   9726.01    153.19
   5   2  18   1044.65     39.16
   5   2  19    208.24     39.18
   5   2  20   1568.20     68.39
   5   2  21   2397.79     64.72
   5   2  22   2479.99     51.81
   5   2  23   1385.11     66.83
   5   2  24    738.13     65.92
   5   2  25    366.42     46.86
   5   3   0  28864.06    524.33
   5   3   1  20157.16    185.27
   5   3   2   3269.94     78.81
   5   3   3  93230.08    451.98
   5   3   4   1202.76     45.11
   5   3   5  20198.34    310.53
   5   3   6  16226.35    192.76
   5   3   7   4015.30     55.36
   5   3   8   2147.36     38.75
   5   3   9   1333.65     26.22
   5   3  10   6652.59    109.77
   5   3  11   1054.26     29.17
   5   3  12  12983.60    150.45
   5   3  13   2913.75     51.00
   5   3  14   2787.67     49.86
   5   3  15   2421.68     40.67
   5   3  16   8008.75    107.94
   5   3  17    604.63     37.51
   5   3  18   2407.41     42.13
   5   3  19    249.46     40.07
   5   3  20   1407.79     56.76
   5   3  21   1763.50     76.88
   5   3  22    948.79     44.83
   5   3  23   3750.04     82.01
   5   3  24    390.05     50.52
   5   4   0  32642.29    930.90
   5   4   1   3571.51     85.36
   5   4   2  14920.72    110.70
   5   4   3   3565.47     30.82
   5   4   4   3195.96     32.31
   5   4   5   2364.43     32.73
   5   4   6  10069.66     66.20
   5   4   7   4274.33     49.64
   5   4   8  41151.85    545.82
   5   4   9   3868.89     32.05
   5   4  10   7692.93    144.65
   5   4  11   1275.25     36.73
   5   4  12   1626.65     49.97
   5   4  13  15175.08    282.58
   5   4  14  13769.49    254.84
   5   4  15   9949.49    159.30
   5   4  16   5696.70     45.11
   5   4  17   5845.78     91.40
   5   4  18    877.20     44.22
   5   4  19    926.28     57.79
   5   4  20   2886.82     58.04
   5   4  21   1836.27     59.21
   5   4  22   4850.07     66.96
   5   4  23   2850.40     50.05
   5   4  24     63.43     46.57
   5   5   0   9672.44    332.34
   5   5   1   8900.60    194.93
   5   5   2   4666.58     36.25
   5   5   3  10604.32    162.30
   5   5   4  14237.23     69.59
   5   5   5   7391.25     60.86
   5   5   6  19482.13    102.21
   5   5   7  15220.96    121.85
   5   5   8   5756.59    132.29
   5   5   9   7798.07     53.46
   5   5  10   7293.28    139.66
   5   5  11    391.73     31.64
   5   5  12    783.25     33.75
   5   5  13   5129.89     73.87
   5   5  14   4128.37     57.99
   5   5  15   4497.56     77.00
   5   5  16   2405.59     65.45
   5   5  17    497.43     40.48
   5   5  18   1689.13     57.01
   5   5  19   1558.79     66.47
   5   5  20   1818.04     49.68
   5   5  21   1005.08     54.71
   5   5  22    520.96     49.90
   5   5  23   1796.67     93.49
   5   6   0   5105.88    146.80
   5   6   1   2106.02     85.96
   5   6   2   1331.76     33.76
   5   6   3   1553.21     64.62
   5   6   4   8680.72     59.03
   5   6   5   1293.24     38.66
   5   6   6  23857.98    517.85
   5   6   7  16952.45    165.52
   5   6   8  18139.64    204.56
   5   6   9   5571.75    109.29
   5   6  10   4079.97     51.93
   5   6  11   1219.43     47.97
   5   6  12  11601.27     69.76
   5   6  13   1494.28     53.05
   5   6  14    573.60     67.66
   5   6  15   2324.58     52.43
   5   6  16      0.00     39.20
   5   6  17   3677.92     88.13
   5   6  18   1258.57     63.82
   5   6  19      0.00     46.59
   5   6  20    665.33     48.83
   5   6  21     74.67     49.53
   5   6  22   1333.87     87.40
   5   7   0  11319.07     67.70
   5   7   1    144.74     31.36
   5   7   2    314.03     34.87
   5   7   3   4549.48     75.12
   5   7   4   8356.97     55.18
   5   7   5   5841.80     74.60
   5   7   6   4493.75     61.97
   5   7   7   8417.47     69.90
   5   7   8   2405.32     49.36
   5   7   9    254.45     46.10
   5   7  10   4605.89    105.04
   5   7  11   3130.82     55.68
   5   7  12    239.64     98.45
   5   7  13   6436.11     65.64
   5   7  14   4335.15     78.31
   5   7  15   4222.12     66.20
   5   7  16   2544.45    110.44
   5   7  17    858.38     59.21
   5   7  18    128.68     58.82
   5   7  19   1927.88     87.11
   5   7  20   2283.89     97.86
   5   7  21   1035.44     51.80
   5   8   0    165.66     51.76
   5   8   1   8511.56    194.09
   5   8   2   3839.27     53.83
   5   8   3   8668.99     74.28
   5   8   4    443.26     48.26
   5   8   5   3453.61    107.31
   5   8   6     76.23     44.88
   5   8   7   2104.89     69.42
   5   8   8   1215.59     62.29
   5   8   9   2804.68     78.33
   5   8  10   5141.13     89.77
   5   8  11   2214.99     56.68
   5   8  12   2254.94    103.38
   5   8  13   1682.63    109.69
   5   8  14   1078.37     58.11
   5   8  15      0.00     83.35
   5   8  16   3067.77     80.79
   5   8  17    943.43     92.89
   5   8  18   1797.92     99.34
   5   8  19   1531.60     79.64
   5   8  20   1882.36     83.97
   5   9   0   5685.20    132.95
   5   9   1   1382.81     60.60
   5   9   2   6935.86    182.51
   5   9   3   6084.66    226.02
   5   9   4   3905.00    110.77
   5   9   5      0.00     47.70
   5   9   6   5542.12     76.59
   5   9   7     58.50     85.52
   5   9   8    927.36     84.66
   5   9   9   1204.01     68.30
   5   9  10   3824.33     78.32
   5   9  11   1929.20     59.18
   5   9  12    757.40     56.72
   5   9  13   5656.62    169.17
   5   9  14   1656.72     83.92
   5   9  15   4181.71     85.96
   5   9  16    110.24     73.26
   5   9  17    270.44     62.28
   5   9  18    535.65    138.06
   5  10   0    263.94     64.31
   5  10   1    746.26     62.96
   5  10   2     29.98     43.80
   5  10   3   6114.16    154.71
   5  10   4    541.14    101.49
   5  10   5   1730.36     71.03
   5  10   6   2209.82     71.69
   5  10   7   1523.25     57.50
   5  10   8   1752.06     71.76
   5  10   9   4050.17     65.15
   5  10  10    784.58     58.49
   5  10  11    626.74     72.06
   5  10  12   1980.21     64.50
   5  10  13   5190.02     73.03
   5  10  14   1618.07     64.37
   5  10  15    579.53     77.10
   5  10  16    606.96    110.04
   5  11   0   1563.34     65.09
   5  11   1    928.74     56.02
   5  11   2    154.99     89.12
   5  11   3   4829.81    106.61
   5  11   4   1333.50     71.17
   5  11   5    361.11     55.89
   5  11   6   3300.58     64.31
   5  11   7   1430.58     86.68
   5  11   8     16.26     89.68
   5  11   9   1388.70     62.54
   5  11  10    396.67     59.46
   5  11  11    140.53     60.34
   5  11  12     88.03     75.03
   5  11  13    331.50     98.69
   5  11  14      0.00     62.80
   5  12   0   2440.33    167.59
   5  12   1    346.08     96.77
   5  12   2     91.89     97.48
   5  12   3   1182.47    133.20
   5  12   4    144.25     57.37
   5  12   5    669.19     59.32
   5  12   6   3697.78     68.88
   5  12   7    302.62     60.45
   5  12   8    415.48     67.61
   5  12   9   1585.54     88.95
   5  12  10   2825.96     69.93
   5  13   0   1089.96     81.94
   5  13   1    476.63     74.19
   5  13   2    398.37     73.58
   5  13   3     36.92     74.12
   5  13   4    597.76     61.75
   5  13   5    180.89     61.52
   6 -13  -5    558.06     45.16
   6 -13  -4    484.72     45.68
   6 -13  -3    244.35     61.20
   6 -13  -2    323.96     95.00
   6 -13  -1   1050.99     63.53
   6 -12 -11    313.59     37.60
   6 -12 -10    700.41     40.57
   6 -12  -9    542.29     35.99
   6 -12  -8   2862.76     70.41
   6 -12  -7   2214.80     73.66
   6 -12  -6     81.18     32.12
   6 -12  -5    638.77     40.62
   6 -12  -4   2160.54     68.46
   6 -12  -3     16.76     57.16
   6 -12  -2   1259.23     60.74
   6 -12  -1     42.61     79.16
   6 -11 -15    199.17     32.71
   6 -11 -14     16.08     31.92
   6 -11 -13    344.48     32.26
   6 -11 -12   1168.09     39.91
   6 -11 -11   2527.67     46.41
   6 -11 -10    934.92     34.06
   6 -11  -9   1952.15     36.50
   6 -11  -8    920.25     37.89
   6 -11  -7    538.00     32.36
   6 -11  -6    318.99     30.44
   6 -11  -5   1825.72     49.90
   6 -11  -4    108.37     55.97
   6 -11  -3    874.32     54.36
   6 -11  -2    318.26     52.97
   6 -11  -1    387.66     81.45
   6 -10 -17    736.54     63.74
   6 -10 -16    423.53     31.98
   6 -10 -15   1286.10     39.34
   6 -10 -14    944.00     41.71
   6 -10 -13    953.73     38.74
   6 -10 -12   2039.33     70.42
   6 -10 -11   3892.97     70.03
   6 -10 -10   4144.48     81.56
   6 -10  -9   1169.20     32.74
   6 -10  -8   1757.44     51.10
   6 -10  -7    799.79     29.11
   6 -10  -6   2052.39     44.13
   6 -10  -5    494.27     34.20
   6 -10  -4    837.60     43.78
   6 -10  -3   1254.44     64.40
   6 -10  -2    125.53     58.27
   6 -10  -1    362.86     49.28
   6  -9 -19     19.61     39.99
   6  -9 -18    219.47     31.41
   6  -9 -17   1108.42     39.80
   6  -9 -16    352.87     34.41
   6  -9 -15    174.74     29.38
   6  -9 -14    829.59     29.80
   6  -9 -13    740.07     29.02
   6  -9 -12   1049.04     29.04
   6  -9 -11   2730.79     69.17
   6  -9 -10    940.12     30.91
   6  -9  -9   1500.23     28.43
   6  -9  -8   1939.05     33.37
   6  -9  -7    271.15     26.95
   6  -9  -6  10022.84    111.21
   6  -9  -5   3174.01     62.63
   6  -9  -4  12572.01    647.90
   6  -9  -3   9325.03    292.14
   6  -9  -2   4004.62    287.11
   6  -9  -1  13588.54    106.25
   6  -8 -21    351.17     33.76
   6  -8 -20   2470.52     77.43
   6  -8 -19    843.94     34.68
   6  -8 -18   1000.92     35.33
   6  -8 -17    313.26     29.19
   6  -8 -16    712.32     29.36
   6  -8 -15     77.46     29.14
   6  -8 -14   4251.05     81.71
   6  -8 -13    106.40     27.03
   6  -8 -12    730.26     28.33
   6  -8 -11   1932.35     47.70
   6  -8 -10    131.75     25.39
   6  -8  -9    320.24     25.39
   6  -8  -8    827.93     24.57
   6  -8  -7  11686.80    175.99
   6  -8  -6   3530.19     54.87
   6  -8  -5   1565.56     38.41
   6  -8  -4   3954.45    132.39
   6  -8  -3  12197.20    124.44
   6  -8  -2   8918.23    225.91
   6  -8  -1  11039.42     73.87
   6  -7 -22    155.90     37.79
   6  -7 -21    575.67     33.53
   6  -7 -20   1756.57     57.24
   6  -7 -19   1773.82     63.93
   6  -7 -18   6000.04     62.50
   6  -7 -17   5371.15     83.69
   6  -7 -16    833.69     39.10
   6  -7 -15   1675.87     29.72
   6  -7 -14   2691.98     46.31
   6  -7 -13   2810.85     68.51
   6  -7 -12   2619.37     45.70
   6  -7 -11   1068.28     24.15
   6  -7 -10   5547.16     77.92
   6  -7  -9   5148.22     93.88
   6  -7  -8  14812.99    155.46
   6  -7  -7   4985.66    101.10
   6  -7  -6   1279.27     22.07
   6  -7  -5    890.54     22.29
   6  -7  -4    315.76     27.45
   6  -7  -3    350.24     42.73
   6  -7  -2   2327.35     51.31
   6  -7  -1   2282.04     49.34
   6  -6 -23    654.14     48.98
   6  -6 -22    588.82     84.50
   6  -6 -21     34.59     44.43
   6  -6 -20    225.99     39.71
   6  -6 -19    421.46     37.82
   6  -6 -18   1045.78     33.06
   6  -6 -17   4682.07     73.72
   6  -6 -16     84.92     25.03
   6  -6 -15    630.32     24.95
   6  -6 -14   2287.33     44.70
   6  -6 -13   1840.86     51.67
   6  -6 -12   2057.75     52.29
   6  -6 -11   1976.23     38.71
   6  -6 -10  15497.54    137.65
   6  -6  -9  12288.34    150.23
   6  -6  -8  14693.19     72.86
   6  -6  -7   1121.18     24.96
   6  -6  -6   7135.84     94.02
   6  -6  -5  12270.55    113.18
   6  -6  -4   6285.51    113.10
   6  -6  -3     30.06     38.63
   6  -6  -2  12919.80    215.27
   6  -6  -1   3819.75     52.62
   6  -5 -24   1203.11     40.73
   6  -5 -23    112.87     40.71
   6  -5 -22    209.47     39.53
   6  -5 -21     46.76     43.30
   6  -5 -20   2245.98     38.44
   6  -5 -19   2735.02     46.61
   6  -5 -18    498.12     36.52
   6  -5 -17   3682.19     40.51
   6  -5 -16   6696.32     47.70
   6  -5 -15  10448.95    115.31
   6  -5 -14   6913.97    104.73
   6  -5 -13     42.76     21.37
   6  -5 -12   1369.46     31.26
   6  -5 -11   2526.57     54.75
   6  -5 -10   2609.70     47.48
   6  -5  -9   6912.93    130.58
   6  -5  -8   9628.90     72.25
   6  -5  -7   7475.88     97.59
   6  -5  -6   4489.93     47.68
   6  -5  -5  14849.43    169.31
   6  -5  -4  11963.25    131.23
   6  -5  -3  11852.50     80.96
   6  -5  -2   1971.88     38.21
   6  -5  -1  12488.15    137.31
   6  -4 -25    935.65     41.75
   6  -4 -24    130.72     41.34
   6  -4 -23    859.08     43.88
   6  -4 -22    294.87     35.85
   6  -4 -21   5473.31     77.39
   6  -4 -20   1408.09     39.15
   6  -4 -19   7499.74    133.10
   6  -4 -18   3778.20     57.89
   6  -4 -17   8997.90     92.59
   6  -4 -16   2352.78     35.03
   6  -4 -15  11164.03     96.21
   6  -4 -14    467.83     28.25
   6  -4 -13   4601.16     35.41
   6  -4 -12   3279.07     34.56
   6  -4 -11  10371.48     78.54
   6  -4 -10   9372.78     73.55
   6  -4  -9   6625.37     80.72
   6  -4  -8   5842.10     46.78
   6  -4  -7   1914.05     18.71
   6  -4  -6   8791.62     79.66
   6  -4  -5   1233.56     17.53
   6  -4  -4     63.78     15.24
   6  -4  -3   1205.12     16.23
   6  -4  -2    438.06     15.00
   6  -4  -1    343.06     16.98
   6  -3 -26    139.58     39.48
   6  -3 -25   1126.94     40.53
   6  -3 -24   1131.90     42.86
   6  -3 -23   1374.35     38.89
   6  -3 -22   1060.84     40.71
   6  -3 -21   4551.44     63.99
   6  -3 -20    605.58     36.24
   6  -3 -19   2362.08     48.22
   6  -3 -18   3422.33     52.68
   6  -3 -17    229.58     44.21
   6  -3 -16   4528.15     34.40
   6  -3 -15   2860.62     30.20
   6  -3 -14     93.11     25.80
   6  -3 -13    295.60     26.70
   6  -3 -12    221.06     21.30
   6  -3 -11   3392.19     38.31
   6  -3 -10   6882.34     58.12
   6  -3  -9   2803.20     40.82
   6  -3  -8   8057.09     58.84
   6  -3  -7   4249.34     37.64
   6  -3  -6  34135.40    340.72
   6  -3  -5   8202.17     29.63
   6  -3  -4   5366.70     25.05
   6  -3  -3  102550.3    590.77
   6  -3  -2   1904.22     60.79
   6  -3  -1  360638.1   1588.51
   6  -2 -26   2005.56     43.38
   6  -2 -25   3233.28     84.52
   6  -2 -24   1432.44     39.71
   6  -2 -23   1647.71     47.84
   6  -2 -22    480.04     52.95
   6  -2 -21    690.51     34.15
   6  -2 -20   1103.35     33.87
   6  -2 -19  10891.55     52.80
   6  -2 -18   1224.94     34.62
   6  -2 -17   2626.16     32.07
   6  -2 -16   1073.69     28.31
   6  -2 -15    158.90     24.93
   6  -2 -14  16637.54     83.87
   6  -2 -13  10606.15     47.21
   6  -2 -12  10228.35    100.82
   6  -2 -11    983.84     23.08
   6  -2 -10   4805.71     26.76
   6  -2  -9  17804.26     79.36
   6  -2  -8   3256.40     37.14
   6  -2  -7  18474.97     90.71
   6  -2  -6  17230.73    212.86
   6  -2  -5  19069.11     89.91
   6  -2  -4  18527.21     95.83
   6  -2  -3   9700.03     77.48
   6  -2  -2  21250.93    120.84
   6  -2  -1  13952.26     86.63
   6  -1 -26   1272.71     41.79
   6  -1 -25   2465.85     73.03
   6  -1 -24    378.29     37.36
   6  -1 -23   2522.27     40.28
   6  -1 -22   2888.89     67.40
   6  -1 -21    398.93     33.85
   6  -1 -20    361.36     34.89
   6  -1 -19   1196.32     32.31
   6  -1 -18    192.04     29.34
   6  -1 -17   9209.81     70.99
   6  -1 -16   1478.25     28.06
   6  -1 -15   4231.05     30.53
   6  -1 -14  23973.00     83.69
   6  -1 -13   1410.18     24.79
   6  -1 -12    568.19     21.68
   6  -1 -11   5420.66     43.56
   6  -1 -10  49676.22    331.15
   6  -1  -9   1641.60     20.16
   6  -1  -8  42393.36    222.06
   6  -1  -7   9508.30    112.64
   6  -1  -6   7804.94     85.92
   6  -1  -5  24081.17    209.24
   6  -1  -4  13030.17     66.29
   6  -1  -3   6334.87     54.04
   6  -1  -2  17059.18     95.15
   6  -1  -1    803.07     16.67
   6   0   0    684.98      8.45
   6   0   1  18037.78    137.42
   6   0   2  14308.06    170.41
   6   0   3  18373.74    213.89
   6   0   4    298.56     13.48
   6   0   5  48474.44    500.04
   6   0   6  122711.2   1551.16
   6   0   7   9200.63     89.04
   6   0   8  33729.77    296.53
   6   0   9   1166.87     23.79
   6   0  10   4566.36     55.26
   6   0  11  15762.54    275.94
   6   0  12     66.00     27.90
   6   0  13   1638.55     31.93
   6   0  14   3417.85     48.19
   6   0  15     61.88     32.95
   6   0  16  10782.45    134.34
   6   0  17   3237.61     46.55
   6   0  18   3290.54     82.12
   6   0  19     46.49     39.56
   6   0  20     54.65     40.19
   6   0  21    239.60     46.65
   6   0  22   1772.69     49.25
   6   0  23    414.68     45.24
   6   0  24    295.01     49.13
   6   1   0  25853.24    164.78
   6   1   1  16297.53    118.04
   6   1   2   6963.47     93.40
   6   1   3  28074.56    223.67
   6   1   4  36919.49    418.64
   6   1   5  15451.06    160.31
   6   1   6  39656.72    416.77
   6   1   7  13513.14    192.02
   6   1   8  23700.03    201.11
   6   1   9  14161.11    176.78
   6   1  10   6030.07     94.14
   6   1  11   1765.41     28.49
   6   1  12  14461.67    148.43
   6   1  13  14536.11    182.88
   6   1  14    225.39     32.64
   6   1  15   2765.17     37.78
   6   1  16    235.25     38.40
   6   1  17   4633.62     58.85
   6   1  18     73.92     37.58
   6   1  19    978.13     40.61
   6   1  20    327.93     45.00
   6   1  21   2190.22     78.67
   6   1  22     63.42     46.01
   6   1  23   2214.84     48.17
   6   1  24    361.45     50.37
   6   2   0   5285.61     31.42
   6   2   1  19812.59    178.84
   6   2   2  24137.18    170.81
   6   2   3   8621.03    139.99
   6   2   4   2989.06     69.42
   6   2   5  20993.41    352.16
   6   2   6  11585.03    153.86
   6   2   7   5212.62     77.81
   6   2   8  16203.35    193.12
   6   2   9   2528.38     52.84
   6   2  10   7525.38     93.92
   6   2  11   4283.23     71.99
   6   2  12   3966.40     63.61
   6   2  13  12086.29    246.79
   6   2  14  10715.76    173.28
   6   2  15    781.54     34.92
   6   2  16   5191.89    111.83
   6   2  17   1748.46     58.90
   6   2  18    550.35     38.59
   6   2  19   1818.74     42.45
   6   2  20   3003.11     71.94
   6   2  21   1737.53     56.73
   6   2  22   2593.66    105.67
   6   2  23   2134.64     66.17
   6   2  24    246.08     45.91
   6   3   0  30755.93    600.84
   6   3   1  25866.71    184.66
   6   3   2  21880.23    161.03
   6   3   3   3509.20     27.27
   6   3   4  19947.40    154.67
   6   3   5  48278.76    701.02
   6   3   6   2105.35     47.01
   6   3   7   6726.80    118.22
   6   3   8   1782.02     43.68
   6   3   9   7615.55     96.81
   6   3  10   4883.08     82.13
   6   3  11   2944.99     42.77
   6   3  12   4887.92    100.98
   6   3  13   3059.12     43.74
   6   3  14  21640.90    295.50
   6   3  15   4028.41     61.96
   6   3  16   1353.14     49.43
   6   3  17   5549.28     88.01
   6   3  18    237.44     42.54
   6   3  19   8600.08    193.28
   6   3  20    256.49     41.77
   6   3  21    534.30     43.43
   6   3  22    234.47     43.97
   6   3  23    151.31     48.58
   6   3  24    422.84     51.06
   6   4   0   7734.04     37.14
   6   4   1   2259.54     25.22
   6   4   2   5194.17     32.10
   6   4   3   6663.62     52.28
   6   4   4   3171.30     33.45
   6   4   5   1594.17     31.19
   6   4   6   2049.53     34.39
   6   4   7   9805.02     49.82
   6   4   8   1681.57     33.91
   6   4   9  32965.45    467.55
   6   4  10   3229.60     87.55
   6   4  11   2857.83     69.22
   6   4  12   8357.76     90.71
   6   4  13   3937.66     72.46
   6   4  14   3867.49    105.91
   6   4  15   3514.07    102.03
   6   4  16     75.87     38.40
   6   4  17   3357.43     80.62
   6   4  18    661.90     40.77
   6   4  19   7622.10     77.55
   6   4  20    426.77     59.29
   6   4  21    208.62     43.66
   6   4  22   1114.97     50.34
   6   4  23   1591.78     48.32
   6   5   0    995.15     30.49
   6   5   1  34363.17    260.09
   6   5   2   8047.72     75.73
   6   5   3   8552.00     92.19
   6   5   4   2601.61     63.47
   6   5   5   1752.56     43.17
   6   5   6   5891.93     64.97
   6   5   7  16734.62    120.44
   6   5   8   7007.82     88.46
   6   5   9   1697.57     71.54
   6   5  10    980.93     59.37
   6   5  11   2776.92     77.24
   6   5  12   9198.05    175.58
   6   5  13   9507.66    194.97
   6   5  14   1353.47     38.18
   6   5  15   2856.90     52.28
   6   5  16    443.89     38.96
   6   5  17    353.29     40.35
   6   5  18   5061.48     67.87
   6   5  19    682.28     52.47
   6   5  20    783.82     59.99
   6   5  21   1241.42     55.09
   6   5  22   1942.38     57.91
   6   6   0  18155.11    302.25
   6   6   1   4686.46    171.36
   6   6   2   4257.46     40.38
   6   6   3  25356.90    335.78
   6   6   4   7648.94     97.03
   6   6   5   3503.14     43.27
   6   6   6  45602.50    531.68
   6   6   7   5956.51    106.00
   6   6   8   2925.22     46.75
   6   6   9   5324.00    129.83
   6   6  10   6910.69     58.27
   6   6  11   3031.09     52.57
   6   6  12   2666.85     59.64
   6   6  13    886.51     51.21
   6   6  14   2591.12     85.66
   6   6  15    604.08     47.20
   6   6  16   4362.03     66.05
   6   6  17     57.96     45.10
   6   6  18    493.17     51.88
   6   6  19     30.60     52.09
   6   6  20    506.55     54.86
   6   6  21   3525.23    140.60
   6   6  22   1003.89     66.84
   6   7   0    535.68     35.97
   6   7   1   2436.30    158.02
   6   7   2   2002.07     40.58
   6   7   3   1523.27     40.44
   6   7   4    326.59     39.25
   6   7   5   3321.06     47.19
   6   7   6   7274.69     70.93
   6   7   7   1147.99     45.51
   6   7   8   7227.70    104.42
   6   7   9   3790.48    111.63
   6   7  10   8259.82     65.32
   6   7  11   6252.96    107.14
   6   7  12   7372.80     66.99
   6   7  13   1387.95     54.88
   6   7  14    257.00     53.98
   6   7  15    448.94     82.11
   6   7  16   3186.66     64.81
   6   7  17   2075.78     62.37
   6   7  18    876.56     73.80
   6   7  19     74.90     61.01
   6   7  20    645.88     63.79
   6   8   0   9167.86    201.78
   6   8   1  12649.08    210.89
   6   8   2   6890.61    109.67
   6   8   4   7325.58     80.10
   6   8   5   4469.34     79.62
   6   8   6   4147.58    119.45
   6   8   7    420.86     47.49
   6   8   8   7192.04    221.71
   6   8   9    857.50    109.49
   6   8  10   3529.82     91.04
   6   8  11    296.32     66.49
   6   8  12   3501.13     62.22
   6   8  13    788.54     69.51
   6   8  14    966.25     58.04
   6   8  15    766.96     73.40
   6   8  16   4264.32     85.70
   6   8  17    303.60     73.21
   6   8  18   1389.01     79.91
   6   8  19    746.72     64.54
   6   9   0   9989.40    312.19
   6   9   1   4523.72     79.63
   6   9   2   2748.33     61.53
   6   9   3    265.47     56.11
   6   9   4   4121.99     70.20
   6   9   5    874.05     49.98
   6   9   6   1995.04     79.32
   6   9   7   3365.44     99.93
   6   9   8   2285.75     85.30
   6   9   9   2769.39     59.12
   6   9  10    727.42     55.74
   6   9  11    753.07     56.16
   6   9  12   2988.08     77.08
   6   9  13   1878.83    183.96
   6   9  14   2893.10     80.85
   6   9  15   4308.19     85.90
   6   9  16    980.95     63.06
   6   9  17    705.43     62.90
   6  10   0    552.42     64.44
   6  10   1    427.04     60.38
   6  10   2   1635.26    110.25
   6  10   3    319.59     51.10
   6  10   4   3575.83    117.40
   6  10   5    611.75     53.13
   6  10   6   4000.44     62.99
   6  10   7   3067.51     60.92
   6  10   8     15.84     66.79
   6  10   9   3182.50     62.79
   6  10  10   2085.00    106.84
   6  10  11    183.75     61.60
   6  10  12    268.23     60.04
   6  10  13    726.93     61.49
   6  10  14    829.83     62.93
   6  10  15   1046.16     79.77
   6  11   0    668.04     54.69
   6  11   1   1639.84     57.81
   6  11   2    185.25     87.50
   6  11   3   1996.18     58.58
   6  11   4   3337.10     83.56
   6  11   5    352.57     55.89
   6  11   6    569.05     57.76
   6  11   7   6612.32    151.10
   6  11   8   2124.33     69.44
   6  11   9   1101.52     62.01
   6  11  10    246.20     60.23
   6  11  11    335.59     60.86
   6  11  12   1654.68     65.62
   6  11  13    956.89     64.49
   6  12   0    384.85     96.42
   6  12   1    356.43     68.48
   6  12   2    683.90    102.09
   6  12   3   1779.73     75.97
   6  12   4   5410.74     89.41
   6  12   5   3122.11     68.05
   6  12   6   5108.64     73.83
   6  12   7    356.14     61.31
   6  12   8   1077.64     63.16
   6  12   9    397.26     62.61
   6  13   0     54.73     80.93
   6  13   1     89.73     72.55
   6  13   2    118.88     80.96
   6  13   3    871.67     76.36
   7 -12 -10   2498.68     87.90
   7 -12  -9    445.75     32.36
   7 -12  -8   1131.65     34.85
   7 -12  -7     60.81     31.22
   7 -12  -6    301.54     33.03
   7 -12  -5    649.79     38.75
   7 -12  -4    705.88     45.23
   7 -12  -3    369.75     57.12
   7 -12  -2    518.88     84.66
   7 -12  -1    672.92     57.51
   7 -11 -14    129.84     31.34
   7 -11 -13    573.01     31.80
   7 -11 -12    138.41     30.63
   7 -11 -11    651.49     47.43
   7 -11 -10    527.70     32.83
   7 -11  -9   1129.57     47.25
   7 -11  -8    797.10     32.87
   7 -11  -7   1606.50     52.65
   7 -11  -6    986.76     53.17
   7 -11  -5   4704.53     49.79
   7 -11  -4    455.75     52.92
   7 -11  -3   1476.55     87.54
   7 -11  -2    490.78     81.15
   7 -11  -1   4015.58     87.54
   7 -10 -17   2069.95     90.68
   7 -10 -16   2627.98    115.38
   7 -10 -15   3280.95     44.80
   7 -10 -14   1813.50     57.76
   7 -10 -13    686.62     34.99
   7 -10 -12   1877.18     49.95
   7 -10 -11    618.59     32.08
   7 -10 -10   2830.95     69.52
   7 -10  -9   1616.14     44.05
   7 -10  -8   1118.56     38.19
   7 -10  -7   3816.90     90.28
   7 -10  -6   1128.13     29.19
   7 -10  -5   5287.76     84.35
   7 -10  -4   1230.11     77.65
   7 -10  -3    569.49     48.62
   7 -10  -2   1944.09    165.90
   7 -10  -1    121.13     48.37
   7  -9 -19   1017.27     34.28
   7  -9 -18    255.61     33.32
   7  -9 -17   1891.77     72.94
   7  -9 -16    553.18     37.46
   7  -9 -15   4102.05     74.19
   7  -9 -14   1694.93     39.34
   7  -9 -13   1918.96     61.85
   7  -9 -12    932.70     35.10
   7  -9 -11    432.31     26.83
   7  -9 -10    909.45     27.11
   7  -9  -9    820.61     28.16
   7  -9  -8   1283.07     27.09
   7  -9  -7     85.38     31.56
   7  -9  -6    333.49     30.40
   7  -9  -5    999.57     36.54
   7  -9  -4     27.85     33.92
   7  -9  -3   5083.83     86.13
   7  -9  -2   7842.53     75.51
   7  -9  -1   5138.42    155.86
   7  -8 -21     53.28     32.47
   7  -8 -20   1440.15     68.44
   7  -8 -19    725.15     33.63
   7  -8 -18   4103.63     67.64
   7  -8 -17    882.86     38.31
   7  -8 -16    400.55     27.88
   7  -8 -15    305.52     33.73
   7  -8 -14   4064.09     56.82
   7  -8 -13     77.97     26.54
   7  -8 -12   4476.99     63.53
   7  -8 -11    206.90     26.51
   7  -8 -10   2107.89     50.69
   7  -8  -9   2448.01     86.18
   7  -8  -8   1736.37     45.93
   7  -8  -7    730.76     23.40
   7  -8  -6    779.51     24.01
   7  -8  -5  15768.60    149.76
   7  -8  -4   2037.11     62.00
   7  -8  -3   9747.62    315.85
   7  -8  -2     49.17     88.69
   7  -8  -1  22126.10    596.05
   7  -7 -22    905.89     43.47
   7  -7 -21    716.53     33.98
   7  -7 -20    177.24     29.03
   7  -7 -19   2110.84     46.76
   7  -7 -18   1626.40     58.56
   7  -7 -17   2081.03     62.69
   7  -7 -16   2888.90     43.82
   7  -7 -15   1626.61     43.27
   7  -7 -14    554.95     24.68
   7  -7 -13   4986.38     83.72
   7  -7 -12  11976.37    180.52
   7  -7 -11   4075.95     79.82
   7  -7 -10    398.14     28.69
   7  -7  -9  16809.02    132.22
   7  -7  -8   1725.17     35.29
   7  -7  -7  10119.23    115.91
   7  -7  -6   1361.23     23.89
   7  -7  -5   1712.08     40.53
   7  -7  -4   7195.49    133.93
   7  -7  -3   4643.19     64.21
   7  -7  -2  10256.00     63.40
   7  -7  -1  14728.49     73.60
   7  -6 -23    779.94     47.96
   7  -6 -22    370.38     37.49
   7  -6 -21     92.48     35.32
   7  -6 -20    736.64     31.07
   7  -6 -19   3369.69     50.16
   7  -6 -18    594.02     27.45
   7  -6 -17    325.06     25.54
   7  -6 -16   1243.64     32.84
   7  -6 -15    542.95     28.45
   7  -6 -14   6462.43    117.65
   7  -6 -13   2635.23     38.32
   7  -6 -12    789.28     23.30
   7  -6 -11   3581.26     74.73
   7  -6 -10  22612.56    211.46
   7  -6  -9   1352.96     29.06
   7  -6  -8  11775.80    131.42
   7  -6  -7    670.61     17.46
   7  -6  -6     63.43     17.07
   7  -6  -5   3337.24     38.96
   7  -6  -4   4425.94     72.77
   7  -6  -3   3033.54     84.70
   7  -6  -2   5155.93    172.78
   7  -6  -1   1946.67    172.87
   7  -5 -24    140.76     41.74
   7  -5 -23   1265.05     44.29
   7  -5 -22    497.61     36.56
   7  -5 -21   2830.85     44.53
   7  -5 -20   2908.31     48.09
   7  -5 -19    258.59     32.67
   7  -5 -18   1386.66     62.55
   7  -5 -17   6405.14     64.24
   7  -5 -16    124.66     31.08
   7  -5 -15    303.35     33.24
   7  -5 -14   1053.13     49.76
   7  -5 -13   1036.17     21.78
   7  -5 -12   3653.10     50.90
   7  -5 -11  16178.78     95.66
   7  -5 -10   7437.97     88.44
   7  -5  -9   6934.86     87.47
   7  -5  -8   9279.67     94.73
   7  -5  -7   1458.26     18.54
   7  -5  -6   1845.61     23.29
   7  -5  -5  24286.94    186.40
   7  -5  -4   1440.87     25.50
   7  -5  -3   9543.71    158.79
   7  -5  -2   3805.96     74.93
   7  -5  -1   3298.28     53.68
   7  -4 -25   2523.63     79.36
   7  -4 -24    686.40     38.36
   7  -4 -23   1299.25     38.45
   7  -4 -22    651.32     35.98
   7  -4 -21   1193.24     48.42
   7  -4 -20   1352.03     34.93
   7  -4 -19   1101.37     47.56
   7  -4 -18   6357.55     97.58
   7  -4 -17   6934.76     84.33
   7  -4 -16   1466.17     32.14
   7  -4 -15    835.76     27.14
   7  -4 -14   6552.34     46.63
   7  -4 -13    844.02     27.92
   7  -4 -12  13091.66    185.97
   7  -4 -11  19461.76    132.36
   7  -4 -10  52238.89    395.19
   7  -4  -9  10715.02    140.32
   7  -4  -8  18799.53    136.76
   7  -4  -7   2884.95     29.35
   7  -4  -6   5622.09     30.94
   7  -4  -5    586.47     14.14
   7  -4  -4   2032.14     14.66
   7  -4  -3   9948.54     75.92
   7  -4  -2  15458.92     69.60
   7  -4  -1   7248.80     70.34
   7  -3 -25    614.35     38.81
   7  -3 -24   2470.01     61.03
   7  -3 -23    107.27     35.02
   7  -3 -22   1143.09     43.66
   7  -3 -21    469.45     33.82
   7  -3 -20   3591.55     56.76
   7  -3 -19   4859.77     47.07
   7  -3 -18   5359.24     38.24
   7  -3 -17   6683.19     88.50
   7  -3 -16   1225.17     27.99
   7  -3 -15   4444.36     72.57
   7  -3 -14   1257.50     25.03
   7  -3 -13   2331.04     26.59
   7  -3 -12    448.21     20.26
   7  -3 -11   2015.93     23.88
   7  -3 -10   2372.51     23.10
   7  -3  -9   1698.11     19.72
   7  -3  -8   2888.61     28.53
   7  -3  -7  22132.93    104.88
   7  -3  -6   6934.06     57.10
   7  -3  -5   4940.37     34.21
   7  -3  -4   1042.76     13.89
   7  -3  -3  41291.34    204.22
   7  -3  -2  24561.76    146.71
   7  -3  -1   5306.77     71.28
   7  -2 -26    917.41     40.49
   7  -2 -25   4906.00     82.85
   7  -2 -24    545.18     41.00
   7  -2 -23   4705.99    114.55
   7  -2 -22    370.21     38.52
   7  -2 -21    666.01     33.39
   7  -2 -20   1149.77     33.10
   7  -2 -19    862.79     31.41
   7  -2 -18   9938.38     59.67
   7  -2 -17   1848.27     32.65
   7  -2 -16   5277.46     45.68
   7  -2 -15   1099.55     25.55
   7  -2 -14   8637.74     54.74
   7  -2 -13   1347.91     27.25
   7  -2 -12  19283.86    115.81
   7  -2 -11   4370.59     48.17
   7  -2 -10   8227.60     54.69
   7  -2  -9  12252.27     50.81
   7  -2  -8  21815.75    156.90
   7  -2  -7   6572.92     62.99
   7  -2  -6   4287.42     22.50
   7  -2  -5  33331.83    183.19
   7  -2  -4   7761.88     42.43
   7  -2  -3  30099.30    217.94
   7  -2  -2   8526.46     77.85
   7  -2  -1  57998.99    303.66
   7  -1 -26    166.83     38.52
   7  -1 -25   1014.15     43.90
   7  -1 -24    921.65     37.88
   7  -1 -23    253.25     38.05
   7  -1 -22    719.09     34.62
   7  -1 -21   3309.38     49.52
   7  -1 -20    573.30     38.38
   7  -1 -19   4012.45     69.12
   7  -1 -18   3959.69     38.15
   7  -1 -17  18374.70    136.96
   7  -1 -16   7874.31     48.47
   7  -1 -15  15606.02     98.95
   7  -1 -14   6103.70     49.02
   7  -1 -13    105.55     22.65
   7  -1 -12   8423.93     39.29
   7  -1 -11   3894.57     25.40
   7  -1 -10  17959.31    117.49
   7  -1  -9   1358.34     20.60
   7  -1  -8  22156.37    132.83
   7  -1  -7    324.30     10.52
   7  -1  -6  44890.27    361.68
   7  -1  -5   9972.38     95.81
   7  -1  -4  42633.51    343.03
   7  -1  -3  11568.53     69.85
   7  -1  -2  11334.40     67.53
   7  -1  -1  21918.46    167.99
   7   0   0   2962.12     15.38
   7   0   1  58107.10    516.98
   7   0   2  24769.07    123.37
   7   0   3   1586.82     31.42
   7   0   4  10510.01    108.44
   7   0   5     24.34     17.40
   7   0   6  12015.40    148.60
   7   0   7   3418.19     30.51
   7   0   8  18340.96    299.63
   7   0   9  12431.66     92.10
   7   0  10    574.50     25.19
   7   0  11    364.22     34.29
   7   0  12   7666.68     53.37
   7   0  13   5188.45     67.81
   7   0  14   3796.24     37.28
   7   0  15    767.21     38.99
   7   0  16      0.00     37.18
   7   0  17    985.88     38.26
   7   0  18   3833.80     75.10
   7   0  19   1413.30     49.17
   7   0  20   2953.48     50.58
   7   0  21    993.19     57.74
   7   0  22   9815.13    175.92
   7   0  23    800.10     46.02
   7   0  24    245.06     50.49
   7   1   0  20287.74    120.64
   7   1   1  10737.70    132.58
   7   1   2  14115.64    162.33
   7   1   3  18707.39    268.34
   7   1   4    750.39     17.88
   7   1   5   1750.08     20.90
   7   1   6  18765.01    197.65
   7   1   7  19905.70    241.92
   7   1   8   6079.68     85.45
   7   1   9   9037.84    132.21
   7   1  10   5778.92     73.10
   7   1  11   2577.93     52.15
   7   1  12    215.37     28.50
   7   1  13    368.90     39.39
   7   1  14   4926.92     53.12
   7   1  15   6097.29    113.66
   7   1  16  12260.48    165.75
   7   1  17   5214.74     60.65
   7   1  18   3648.53     68.47
   7   1  19    106.79     43.43
   7   1  20   1336.61     48.29
   7   1  21   3960.09     92.27
   7   1  22    781.46     56.35
   7   1  23    571.58     50.91
   7   1  24    110.66     53.24
   7   2   0   8852.03     72.77
   7   2   1   5989.88     50.24
   7   2   2  46392.38    269.93
   7   2   3  10885.00     49.43
   7   2   4  14477.17    180.69
   7   2   5   2180.93     47.26
   7   2   6  11131.10    143.79
   7   2   7   7774.35     88.63
   7   2   8  10306.47    157.73
   7   2   9   6745.18     85.27
   7   2  10   5335.43    137.04
   7   2  11  13159.20    186.20
   7   2  12   4681.31     77.97
   7   2  13   3293.23     53.21
   7   2  14   4582.76     86.85
   7   2  15   4377.12     52.76
   7   2  16   4984.07     62.11
   7   2  17   2924.40     84.01
   7   2  18   2612.86     57.58
   7   2  19   2438.56     58.90
   7   2  20     28.69     48.53
   7   2  21    609.39     43.63
   7   2  22    185.30     44.17
   7   2  23   1941.13     48.92
   7   3   0  11682.50     97.39
   7   3   1  23023.94    196.73
   7   3   2    395.63     19.36
   7   3   3   9765.64     43.89
   7   3   4   9174.03     38.70
   7   3   5   5654.92     35.78
   7   3   6   3146.19     77.37
   7   3   7   1346.63     47.78
   7   3   8  33478.21    506.80
   7   3   9   1523.93     70.25
   7   3  10   9923.52    178.11
   7   3  11    355.15     28.96
   7   3  12    760.53     31.49
   7   3  13  20895.68    218.74
   7   3  14  13387.55    173.18
   7   3  15   5545.51    100.04
   7   3  16   6239.45    119.70
   7   3  17   2760.69     59.30
   7   3  18    555.30     43.88
   7   3  19   2549.81     60.58
   7   3  20   1212.51     47.73
   7   3  21   3836.45     59.86
   7   3  22    394.16     44.84
   7   3  23     90.82     45.91
   7   4   0   4105.74    127.93
   7   4   1   4660.12     43.30
   7   4   2   8893.34     54.92
   7   4   3  21420.35    141.03
   7   4   4   4045.67     56.58
   7   4   5  12873.85     50.04
   7   4   6   5957.92     90.01
   7   4   7   2723.30     38.32
   7   4   8   9563.96    162.73
   7   4   9   4960.03     96.48
   7   4  10   3395.64     67.94
   7   4  11   2129.91     50.90
   7   4  12   2531.50     68.44
   7   4  13   5873.79     82.95
   7   4  14    608.04     39.96
   7   4  15   3661.26    137.20
   7   4  16   5347.61    111.67
   7   4  17    806.68     58.26
   7   4  18   2942.13     58.35
   7   4  19     59.13     41.34
   7   4  20   1184.41     52.36
   7   4  21   2032.28     85.92
   7   4  22    262.84     45.37
   7   4  23   2281.76     50.01
   7   5   0   2685.25     82.02
   7   5   1   3064.50     36.50
   7   5   2   5583.15     48.20
   7   5   3    235.75     46.35
   7   5   4   4150.06     48.49
   7   5   5  14940.36     57.62
   7   5   6  31985.75    200.48
   7   5   7   6201.85     49.41
   7   5   8  13897.50    107.56
   7   5   9   5322.59     64.32
   7   5  10   2709.82     48.33
   7   5  11   5951.09    141.33
   7   5  12   3697.03    111.55
   7   5  13   1507.88     56.55
   7   5  14   1489.28     62.13
   7   5  15    920.94     47.20
   7   5  16   7451.12    133.30
   7   5  17    578.07     44.33
   7   5  18   2203.64     84.08
   7   5  19    343.83     52.37
   7   5  20    416.34     64.10
   7   5  21    382.33     65.93
   7   5  22   3467.49    310.40
   7   6   0   2110.04    138.57
   7   6   1   3303.01     43.36
   7   6   2   1621.70     37.15
   7   6   3   9148.51     93.81
   7   6   5    830.55     42.44
   7   6   6  12792.50    107.56
   7   6   7  15097.87    107.99
   7   6   8   2982.03     87.65
   7   6   9    767.20     44.27
   7   6  10   2209.16     49.41
   7   6  11     50.34     47.06
   7   6  12   2018.56     57.20
   7   6  13    525.39     86.16
   7   6  14   1269.46     54.79
   7   6  15    452.78     39.57
   7   6  16    750.55     48.21
   7   6  17   1820.16     98.73
   7   6  18    372.11     52.85
   7   6  19   1107.70     97.34
   7   6  20   1374.57     57.77
   7   6  21    917.08     58.21
   7   7   0   2603.38     41.19
   7   7   1   1081.56     34.15
   7   7   2   9181.12    100.49
   7   7   3   1770.22     41.09
   7   7   4    614.33     39.29
   7   7   5   3500.55     72.03
   7   7   6   2222.81     57.47
   7   7   7   1002.35     45.20
   7   7   8  11442.51    156.15
   7   7   9   1746.38     50.28
   7   7  10   1049.68     50.26
   7   7  11   1161.33     52.76
   7   7  12   3545.98     59.63
   7   7  13   3683.07     61.66
   7   7  14    185.44     54.79
   7   7  15   3235.89    100.51
   7   7  16    691.66     58.76
   7   7  17   1997.24    112.98
   7   7  18   2334.92     64.91
   7   7  19    878.14     75.92
   7   7  20   2347.25     68.33
   7   8   0   3563.63     49.15
   7   8   1   5934.64    122.42
   7   8   2   5300.61     99.33
   7   8   3   2391.50     61.62
   7   8   4   1552.28     79.17
   7   8   5   1852.99     59.90
   7   8   6   2878.99     55.20
   7   8   7    378.56     46.74
   7   8   8    110.01     86.02
   7   8   9   4021.28     59.78
   7   8  10   3577.22     64.03
   7   8  11   3087.99    189.87
   7   8  12   2295.72     59.40
   7   8  13    746.20     57.46
   7   8  14   7341.35     77.05
   7   8  15   4461.82    143.34
   7   8  16    201.65    103.51
   7   8  17    737.82     77.03
   7   8  18     39.79     78.90
   7   9   0    954.20     46.78
   7   9   1   3064.36    241.82
   7   9   2   1723.87     74.50
   7   9   3   4498.35    151.08
   7   9   4   2483.36     53.02
   7   9   5    312.91     48.42
   7   9   6   1116.00     54.97
   7   9   7     47.98     50.70
   7   9   8    308.86     71.46
   7   9   9   3250.26     83.44
   7   9  10    806.33     58.90
   7   9  11   1279.32     96.35
   7   9  12   5169.43    163.51
   7   9  13   5282.93    169.46
   7   9  14    641.47     74.94
   7   9  15    623.09     80.63
   7   9  16     90.81     74.70
   7   9  17      5.10     61.68
   7  10   0   3618.27    241.90
   7  10   1    536.40     58.40
   7  10   2   1556.48     62.71
   7  10   3   2812.06     98.73
   7  10   4    171.28     50.62
   7  10   5   3786.14     61.51
   7  10   6    297.06     53.45
   7  10   7    240.85     53.87
   7  10   8   1024.97     57.17
   7  10   9    357.28     56.43
   7  10  10    111.15     57.27
   7  10  11   1148.79     60.75
   7  10  12    719.60     60.72
   7  10  13   2447.14     66.57
   7  10  14    340.64     87.90
   7  10  15   1441.45     70.80
   7  11   0   2527.22     61.20
   7  11   1     18.12     62.65
   7  11   2     96.24     64.05
   7  11   3   2457.81     72.28
   7  11   4    529.33     88.67
   7  11   5   1115.39     66.30
   7  11   6   4505.49     68.09
   7  11   7    227.47     58.03
   7  11   8    732.18     60.58
   7  11   9   3883.16     70.21
   7  11  10   2305.42    123.89
   7  11  11   1063.75     63.13
   7  11  12    236.80     62.18
   7  12   0     91.59     96.48
   7  12   1     14.92     65.81
   7  12   2   1737.63    107.68
   7  12   3    324.00     69.66
   7  12   4    580.65     76.47
   7  12   5   1072.11     66.58
   7  12   6   1004.63     61.90
   7  12   7    643.15     90.92
   7  12   8    496.23     61.98
   8 -12  -9    355.30     31.50
   8 -12  -8   1019.50     33.05
   8 -12  -7    377.97     36.70
   8 -12  -6    605.61     32.90
   8 -12  -5    523.37     38.31
   8 -12  -4    743.28     52.37
   8 -12  -3     11.80     60.05
   8 -12  -2     71.60     87.47
   8 -12  -1    536.69     56.82
   8 -11 -13    118.36     31.87
   8 -11 -12   1460.05     52.06
   8 -11 -11   1454.52     35.17
   8 -11 -10    478.89     34.91
   8 -11  -9    139.99     29.00
   8 -11  -8   1367.13     57.02
   8 -11  -7   1848.14     50.39
   8 -11  -6    896.89     34.86
   8 -11  -5    433.38     32.71
   8 -11  -4    537.47     52.36
   8 -11  -3    589.61     46.35
   8 -11  -2    451.85     66.24
   8 -11  -1     94.69     51.65
   8 -10 -16    846.98     69.15
   8 -10 -15    328.89     29.85
   8 -10 -14     27.54     29.75
   8 -10 -13    487.28     33.45
   8 -10 -12   3111.26     54.53
   8 -10 -11   1991.53     45.14
   8 -10 -10   3273.20     81.34
   8 -10  -9    971.32     46.48
   8 -10  -8    550.48     32.31
   8 -10  -7    395.05     27.10
   8 -10  -6   2780.96     56.33
   8 -10  -5   4863.40     57.79
   8 -10  -4    338.57     46.26
   8 -10  -3    409.17     56.33
   8 -10  -2   1673.17     73.23
   8 -10  -1   2876.86    127.01
   8  -9 -18    198.40     43.44
   8  -9 -17    211.24     30.31
   8  -9 -16   1046.77     31.56
   8  -9 -15   1244.07     42.43
   8  -9 -14    527.63     32.69
   8  -9 -13   1649.76     47.32
   8  -9 -12    332.55     30.95
   8  -9 -11   3177.99     86.67
   8  -9 -10   3251.85     54.69
   8  -9  -9    770.04     25.68
   8  -9  -8   2090.70     70.96
   8  -9  -7   4440.74     42.58
   8  -9  -6   2377.14     52.46
   8  -9  -5    247.37     27.95
   8  -9  -4     31.29     33.76
   8  -9  -3   5108.06     65.38
   8  -9  -2    800.87     40.05
   8  -9  -1    888.69     60.58
   8  -8 -20    621.55     41.98
   8  -8 -19    332.33     28.92
   8  -8 -18    584.24     43.96
   8  -8 -17    164.41     28.44
   8  -8 -16     91.70     30.37
   8  -8 -15   1537.17     28.43
   8  -8 -14    609.59     29.39
   8  -8 -13   2670.02     75.20
   8  -8 -12    223.79     24.84
   8  -8 -11   1043.31     29.34
   8  -8 -10     28.99     22.96
   8  -8  -9   4868.90     49.77
   8  -8  -8     97.95     24.87
   8  -8  -7   3767.90     73.45
   8  -8  -6   2521.00     38.29
   8  -8  -5   2282.95     34.30
   8  -8  -4   9499.82    202.18
   8  -8  -3  16624.05     84.49
   8  -8  -2   2376.88     55.64
   8  -8  -1   1331.31     37.30
   8  -7 -21    937.14     32.78
   8  -7 -20   1868.19     70.21
   8  -7 -19   1823.56     53.02
   8  -7 -18    654.13     40.54
   8  -7 -17    341.33     28.74
   8  -7 -16   1305.45     59.00
   8  -7 -15   2950.12     82.59
   8  -7 -14   2706.71     52.96
   8  -7 -13   2729.77     60.24
   8  -7 -12     58.84     27.10
   8  -7 -11   1769.17     57.07
   8  -7 -10   4763.46    100.73
   8  -7  -9   4879.11     88.26
   8  -7  -8   7251.02     72.29
   8  -7  -7   3100.88     51.93
   8  -7  -6      2.46     20.71
   8  -7  -5   6866.03     66.67
   8  -7  -4   1645.13     34.66
   8  -7  -3   8493.52    210.04
   8  -7  -2   5401.32    243.64
   8  -7  -1  10471.69    258.34
   8  -6 -23    484.70     31.40
   8  -6 -22    575.74     33.62
   8  -6 -21    444.41     28.66
   8  -6 -20   1098.18     44.74
   8  -6 -19   5291.77     90.86
   8  -6 -18   3826.99     67.86
   8  -6 -17   3407.36     41.55
   8  -6 -16   1750.83     55.00
   8  -6 -15   3051.36     91.19
   8  -6 -14   1394.40     39.93
   8  -6 -13    355.66     20.33
   8  -6 -12   1730.82     40.08
   8  -6 -11   1883.48     27.47
   8  -6 -10   3720.05     67.81
   8  -6  -9   8174.72    105.67
   8  -6  -8   8666.58     98.73
   8  -6  -7    853.27     22.36
   8  -6  -6    404.57     23.12
   8  -6  -5   2117.94     37.94
   8  -6  -4   4264.19     67.82
   8  -6  -3   1173.73     31.96
   8  -6  -2   2489.49     82.66
   8  -6  -1   5044.38     70.40
   8  -5 -24    179.36     37.20
   8  -5 -23    974.29     44.22
   8  -5 -22    825.46     36.32
   8  -5 -21    516.33     50.70
   8  -5 -20    715.04     40.52
   8  -5 -19   5195.27    103.79
   8  -5 -18   4213.78     70.66
   8  -5 -17   6387.52    104.29
   8  -5 -16   2300.34     52.28
   8  -5 -15   2284.80     53.42
   8  -5 -14    137.19     20.07
   8  -5 -13   3702.46     52.75
   8  -5 -12   2697.60     51.51
   8  -5 -11   7396.42     94.03
   8  -5 -10   6543.14    105.69
   8  -5  -9   3448.92     55.71
   8  -5  -8   3474.05     46.44
   8  -5  -7  12040.84     99.22
   8  -5  -6   3632.91     28.41
   8  -5  -5    603.41     19.63
   8  -5  -4     58.49     12.52
   8  -5  -3   4268.08     53.03
   8  -5  -2   5393.45     45.41
   8  -5  -1   7188.72    135.71
   8  -4 -24    656.89     42.65
   8  -4 -23    324.89     35.46
   8  -4 -22    820.48     35.43
   8  -4 -21   2614.42     45.76
   8  -4 -20    275.88     31.92
   8  -4 -19    638.54     49.43
   8  -4 -18   1126.25     31.31
   8  -4 -17   3642.84     57.28
   8  -4 -16   6958.23     67.07
   8  -4 -15   8704.48     61.03
   8  -4 -14   2940.15     35.88
   8  -4 -13    404.19     22.04
   8  -4 -12   1796.66     22.67
   8  -4 -11   2844.65     38.43
   8  -4 -10   8160.95     81.17
   8  -4  -9   6012.24     64.03
   8  -4  -8   1006.71     21.91
   8  -4  -7    202.53     16.04
   8  -4  -6  20628.78    198.20
   8  -4  -5  12515.91    127.82
   8  -4  -4  10348.37     74.40
   8  -4  -3  18907.18     88.12
   8  -4  -2  43285.52    607.25
   8  -4  -1  64768.60    543.82
   8  -3 -25   2558.53     91.58
   8  -3 -24    534.59     48.39
   8  -3 -23    670.27     35.64
   8  -3 -22   1011.04     37.92
   8  -3 -21    760.92     36.65
   8  -3 -20   4712.11     79.64
   8  -3 -19   2467.15     53.69
   8  -3 -18   1121.83     39.43
   8  -3 -17   1291.33     29.21
   8  -3 -16   2284.99     31.54
   8  -3 -15    796.60     26.94
   8  -3 -14   1897.11     31.09
   8  -3 -13    281.55     24.67
   8  -3 -12   3670.03     24.69
   8  -3 -11    150.86     21.76
   8  -3 -10   1155.45     23.95
   8  -3  -9   1345.14     11.96
   8  -3  -8   4123.92     56.03
   8  -3  -7   5151.26     39.88
   8  -3  -6  11414.84    107.57
   8  -3  -5   2216.21     14.76
   8  -3  -4   3429.99     16.76
   8  -3  -3    519.98     10.68
   8  -3  -2   8946.38     80.85
   8  -3  -1  12476.39    108.74
   8  -2 -25    405.35     37.12
   8  -2 -24   1094.19     59.06
   8  -2 -23   1167.14     36.43
   8  -2 -22      0.00     35.90
   8  -2 -21   2258.23     35.93
   8  -2 -20    119.62     30.39
   8  -2 -19   1308.88     34.01
   8  -2 -18   3735.76     58.20
   8  -2 -17    522.11     26.85
   8  -2 -16   4665.80     37.73
   8  -2 -15   1448.77     28.05
   8  -2 -14   4903.82     28.96
   8  -2 -13    175.50     21.49
   8  -2 -12   2844.94     26.37
   8  -2 -11  13357.95     83.05
   8  -2 -10   9498.72     76.74
   8  -2  -9  25233.28    113.72
   8  -2  -8    159.50     12.25
   8  -2  -7  14534.79    143.23
   8  -2  -6  11295.20     86.85
   8  -2  -5  11807.07     83.09
   8  -2  -4  11649.78    113.82
   8  -2  -3  39050.94    170.83
   8  -2  -2  43771.14    225.81
   8  -2  -1  42925.28    516.63
   8  -1 -25    125.10     36.54
   8  -1 -24    198.12     35.26
   8  -1 -23   3499.01     52.38
   8  -1 -22     19.24     32.54
   8  -1 -21    560.57     34.90
   8  -1 -20    871.81     31.23
   8  -1 -19   9647.39    132.37
   8  -1 -18    708.75     30.59
   8  -1 -17   3964.97     32.75
   8  -1 -16    813.03     27.66
   8  -1 -15   1997.26     26.24
   8  -1 -14  21273.57    151.25
   8  -1 -13   8444.15     68.72
   8  -1 -12    465.30     17.86
   8  -1 -11   4236.52     36.85
   8  -1 -10  40449.84    317.30
   8  -1  -9    647.29     17.48
   8  -1  -8  16990.42    204.12
   8  -1  -7   2185.43     13.91
   8  -1  -6  12598.79     61.23
   8  -1  -5   2828.96     19.19
   8  -1  -4   1506.71     11.26
   8  -1  -3   3861.47     44.71
   8  -1  -2  11601.81    335.03
   8  -1  -1   1373.74     50.16
   8   0   0  14270.98    329.60
   8   0   1   5836.76     96.54
   8   0   2   2644.86     43.44
   8   0   3  20632.75    295.63
   8   0   4   6058.49     93.74
   8   0   5  65104.82    373.13
   8   0   6  18807.11    233.21
   8   0   7  31755.85    380.68
   8   0   8   8603.00    161.15
   8   0   9  17787.43    271.73
   8   0  10   4202.63     63.20
   8   0  11  12831.22    186.67
   8   0  12   7684.63    141.53
   8   0  13   2504.42     51.06
   8   0  14   3629.27     87.84
   8   0  15    554.01     34.83
   8   0  16   1667.90     44.92
   8   0  17    992.23     38.87
   8   0  18    113.64     47.88
   8   0  19    693.40     40.87
   8   0  20   3916.01     54.09
   8   0  21    813.39     49.33
   8   0  22    202.96     55.45
   8   0  23   1252.80     55.88
   8   1   0   6182.45     41.81
   8   1   1  18482.80    215.42
   8   1   2   7848.65    113.40
   8   1   3    117.77     12.90
   8   1   4    333.94     13.99
   8   1   5  35638.09    447.50
   8   1   6  30684.13    472.92
   8   1   7   6861.72    113.51
   8   1   8   6289.38     77.38
   8   1   9   1552.21     31.28
   8   1  10   6702.74    100.09
   8   1  11   8546.27    128.43
   8   1  12   3322.40     95.36
   8   1  13   3002.08     61.28
   8   1  14   1800.36     35.30
   8   1  15   3041.89     62.82
   8   1  16   2461.32     65.38
   8   1  17   4897.15    108.68
   8   1  18    284.33     43.00
   8   1  19      0.00     44.01
   8   1  20    552.82     42.72
   8   1  21   1376.83     51.37
   8   1  22   2477.09     74.53
   8   1  23    276.72     45.65
   8   2   0  15256.14    154.25
   8   2   1    414.60     16.61
   8   2   2  25749.94    190.36
   8   2   3   5142.79     56.60
   8   2   4  38934.96    643.34
   8   2   5   6903.17    142.07
   8   2   6   1279.45     23.24
   8   2   7   6567.62    101.45
   8   2   8   1282.93     24.36
   8   2   9   9067.84    168.98
   8   2  10   3557.21     61.69
   8   2  11   4885.36    106.40
   8   2  12    726.38     36.58
   8   2  13  26944.01    407.76
   8   2  14    811.90     37.14
   8   2  15    434.25     41.16
   8   2  16    430.76     44.41
   8   2  17   4643.75     86.60
   8   2  18   1564.21     56.34
   8   2  19   1077.27     52.46
   8   2  20   1351.16     54.95
   8   2  21    353.13     43.48
   8   2  22    746.98     47.24
   8   2  23     84.96     45.06
   8   3   0  13944.84     90.93
   8   3   1   1389.41     24.43
   8   3   2  12597.26     80.50
   8   3   3   5935.97     32.29
   8   3   4   4049.50     36.94
   8   3   5   9128.81     45.02
   8   3   6   1391.64     28.76
   8   3   7  13287.32    256.18
   8   3   8   7816.70    176.63
   8   3   9   8662.62    190.51
   8   3  10   3229.18     84.93
   8   3  11   1826.64     51.55
   8   3  12   9415.27    106.08
   8   3  13   4548.06     72.79
   8   3  14   9095.85    132.55
   8   3  15   3485.19    114.11
   8   3  16    346.73     41.02
   8   3  17   1753.19     41.51
   8   3  18   2867.89     80.27
   8   3  19   5471.39    128.93
   8   3  20    181.57     42.94
   8   3  21    507.07     44.55
   8   3  22    208.17     60.34
   8   4   0  21560.27    134.42
   8   4   1   6727.84     76.98
   8   4   2   7923.87     84.76
   8   4   3   4360.51     33.24
   8   4   4   7165.91     59.86
   8   4   5   1984.52     32.84
   8   4   6   6742.54     44.24
   8   4   7   3910.57     41.31
   8   4   8   7525.66     49.91
   8   4   9   1298.14     40.00
   8   4  10   2488.98     75.50
   8   4  11    224.29     30.69
   8   4  12    159.00     32.26
   8   4  13   3291.39     52.32
   8   4  14   7461.50     55.59
   8   4  15   2443.38     49.95
   8   4  16   1612.87     76.36
   8   4  17   2398.73     99.43
   8   4  18   3871.22     79.30
   8   4  19   1048.57     43.73
   8   4  20     72.97     43.08
   8   4  21     42.96     44.52
   8   4  22    537.68     46.40
   8   5   0  12724.18    159.85
   8   5   1  11291.30     89.27
   8   5   2   6161.46     52.32
   8   5   3   3812.76     60.10
   8   5   4   5784.29     52.22
   8   5   5  14995.91     93.38
   8   5   6  13089.98     60.71
   8   5   7   2775.24     75.35
   8   5   8   3149.27     45.09
   8   5   9  15904.63     69.69
   8   5  10    217.09     42.56
   8   5  11   3816.15     71.95
   8   5  12   2844.82     76.98
   8   5  13    420.20     35.92
   8   5  14   3995.81     92.83
   8   5  15    728.62     43.20
   8   5  16   1600.24     46.19
   8   5  17    417.83     63.17
   8   5  18   1487.09     54.04
   8   5  19    129.49     46.94
   8   5  20    662.15     67.78
   8   5  21   1719.64     73.15
   8   6   0   5179.88    242.60
   8   6   2   5005.86     66.65
   8   6   3    144.44     32.74
   8   6   4    631.91     35.26
   8   6   5   9238.86     54.73
   8   6   6    862.95     64.38
   8   6   7  14757.40    117.36
   8   6   8   1160.97     44.05
   8   6   9   7343.83     78.76
   8   6  10   7035.99     76.13
   8   6  13   1284.71     54.40
   8   6  14   2263.53    102.98
   8   6  15   1855.47     65.58
   8   6  16   2221.54    124.71
   8   6  17    143.06     50.03
   8   6  18    517.33     62.99
   8   6  19     78.82     53.69
   8   6  20   3173.22    163.38
   8   7   0  18302.04     94.03
   8   7   1   2438.69     40.46
   8   7   2   5487.66     83.18
   8   7   3   6120.47     94.07
   8   7   4   3516.27     74.24
   8   7   5   4118.85     49.88
   8   7   6  14102.10    123.69
   8   7   7  10928.23     74.55
   8   7   8   2071.34     49.55
   8   7   9   2533.10     64.07
   8   7  10   2091.25     91.46
   8   7  11   1327.21     80.81
   8   7  12   2079.87     57.13
   8   7  13    463.67     69.23
   8   7  14    345.67    131.20
   8   7  15    679.08     57.96
   8   7  16   2165.19     63.33
   8   7  17   2151.22     64.60
   8   7  18    472.00     74.87
   8   7  19    346.54     66.30
   8   8   0   3591.60    149.57
   8   8   1    625.20     39.93
   8   8   2   3506.95     78.60
   8   8   3   2097.28     72.97
   8   8   4   2721.07     49.81
   8   8   5   2593.31     91.19
   8   8   6   1850.77     93.33
   8   8   7   4074.24     69.42
   8   8   8   4115.29     58.73
   8   8   9   1713.59     53.96
   8   8  10   2654.12     57.58
   8   8  11   1094.39     55.45
   8   8  12   4881.71     82.12
   8   8  13   2539.79     63.16
   8   8  14    529.62     58.48
   8   8  15   1405.65     70.87
   8   8  16    594.31     75.93
   8   8  17   1019.59    139.22
   8   9   0   2182.29    117.29
   8   9   1    164.04     50.14
   8   9   2   5899.16    126.76
   8   9   3   7840.39     80.73
   8   9   4   2805.65     75.79
   8   9   5   4805.63     74.33
   8   9   6      0.00     49.22
   8   9   7   1263.51    120.52
   8   9   8   2374.44     58.02
   8   9   9   1818.90     57.49
   8   9  10    553.78     56.08
   8   9  11   1860.40     60.46
   8   9  12    488.99    121.07
   8   9  13     85.35     58.12
   8   9  14   1509.65     93.53
   8   9  15   1293.67    110.27
   8   9  16   1959.27     82.58
   8  10   0   3239.49     75.96
   8  10   1   1515.63    123.72
   8  10   2    598.64     71.90
   8  10   3   2516.82     56.84
   8  10   4   3019.18     96.84
   8  10   5    146.26     86.24
   8  10   6   1410.40     56.46
   8  10   7   2419.16     60.20
   8  10   8   1226.30     57.85
   8  10   9     57.90     55.95
   8  10  10    941.90     59.49
   8  10  11    360.74     59.61
   8  10  12   1532.16     93.86
   8  10  13    247.32     61.03
   8  11   0    305.68     60.68
   8  11   1    482.10     93.07
   8  11   2   1260.38     66.41
   8  11   3   2427.65     60.53
   8  11   4   9445.53     88.35
   8  11   5   1862.35     73.53
   8  11   6   4882.96    151.79
   8  11   7   1193.72     60.59
   8  11   8    212.26     59.05
   8  11   9    440.73     60.23
   8  11  10    318.84     90.79
   8  11  11    406.93     62.01
   8  12   0    297.70     89.26
   8  12   1    449.49     78.13
   8  12   2   1272.65    105.13
   8  12   3    302.50     56.95
   8  12   4   1174.19     63.52
   8  12   5    224.17     58.51
   8  12   6    758.26     60.49
   9 -12  -6    540.32     37.13
   9 -12  -5   1478.55     63.07
   9 -12  -4   3915.66    108.76
   9 -12  -3   1787.62    115.18
   9 -12  -2    967.89     51.92
   9 -12  -1     57.99     46.11
   9 -11 -12    690.97     59.07
   9 -11 -11     76.16     35.66
   9 -11 -10   1592.00     57.20
   9 -11  -9   1263.37     33.06
   9 -11  -8    231.92     28.24
   9 -11  -7    520.06     29.93
   9 -11  -6    435.86     33.81
   9 -11  -5    607.55     32.62
   9 -11  -4    575.94     39.34
   9 -11  -3   1187.47     54.40
   9 -11  -2    155.94     44.82
   9 -11  -1    882.05     90.75
   9 -10 -15     49.86     48.13
   9 -10 -14    220.55     35.33
   9 -10 -13    693.01     38.48
   9 -10 -12    810.34     65.64
   9 -10 -11    971.91     35.89
   9 -10 -10    248.47     27.29
   9 -10  -9   1428.73     84.02
   9 -10  -8    105.55     25.53
   9 -10  -7   2601.14     75.35
   9 -10  -6   2483.73     67.27
   9 -10  -5   1171.59     41.29
   9 -10  -4    571.95     39.37
   9 -10  -3   4907.50    135.82
   9 -10  -2    645.76    113.53
   9 -10  -1   7935.58     94.81
   9  -9 -17     73.92     34.97
   9  -9 -16   1134.59     62.82
   9  -9 -15   1323.12     52.83
   9  -9 -14   2880.04     48.21
   9  -9 -13   1996.75     80.26
   9  -9 -12   1108.48     26.78
   9  -9 -11   3242.84     48.37
   9  -9 -10     91.35     23.42
   9  -9  -9    481.80     24.16
   9  -9  -8    933.55     29.12
   9  -9  -7   2760.94     74.34
   9  -9  -6   3086.26     62.53
   9  -9  -5   5053.43     40.99
   9  -9  -4   2235.47     84.70
   9  -9  -3   2688.06     67.87
   9  -9  -2   1586.72     53.02
   9  -9  -1   4369.20    117.25
   9  -8 -19   1010.46     62.86
   9  -8 -18      0.00     36.45
   9  -8 -17   1923.18     77.91
   9  -8 -16   1219.39     27.59
   9  -8 -15   2931.77     63.05
   9  -8 -14   1177.75     51.96
   9  -8 -13    651.49     23.88
   9  -8 -12   1450.03     44.43
   9  -8 -11    870.18     32.96
   9  -8 -10   4568.01     51.95
   9  -8  -9   1763.11     37.15
   9  -8  -8   2659.79     48.17
   9  -8  -7     98.25     20.04
   9  -8  -6     93.47     24.49
   9  -8  -5   1304.80     34.22
   9  -8  -4   1821.50     37.85
   9  -8  -3    453.54     32.76
   9  -8  -2    557.78     33.30
   9  -8  -1     59.48     32.74
   9  -7 -21     72.33     34.90
   9  -7 -20   2019.95     88.90
   9  -7 -19    214.38     33.35
   9  -7 -18   2587.40     45.28
   9  -7 -17   1303.86     47.19
   9  -7 -16    594.76     24.17
   9  -7 -15   1368.72     38.71
   9  -7 -14   2228.84     53.80
   9  -7 -13    436.05     23.71
   9  -7 -12   4085.34     77.99
   9  -7 -11    958.19     32.67
   9  -7 -10  10449.48    119.74
   9  -7  -9    292.30     18.46
   9  -7  -8   2562.68     39.06
   9  -7  -7    998.10     19.45
   9  -7  -6   3828.13     45.31
   9  -7  -5   9860.19    112.58
   9  -7  -4   5497.07     91.75
   9  -7  -3   2506.90     42.34
   9  -7  -2   6472.25    210.27
   9  -7  -1   4042.55    196.00
   9  -6 -22   1069.69     44.55
   9  -6 -21    616.40     38.89
   9  -6 -20    227.69     26.44
   9  -6 -19   2194.59     38.99
   9  -6 -18   1588.25     56.98
   9  -6 -17   2917.64     43.77
   9  -6 -16    474.43     22.79
   9  -6 -15    710.75     21.66
   9  -6 -14   1849.07     53.82
   9  -6 -13   4699.93     84.54
   9  -6 -12   8366.40    101.93
   9  -6 -11   2321.07     54.16
   9  -6 -10   4548.08     72.35
   9  -6  -9   3877.57     52.68
   9  -6  -8   3605.97     57.22
   9  -6  -7  12877.01    128.25
   9  -6  -6   1886.56     23.59
   9  -6  -5   1917.81     23.25
   9  -6  -4  12343.35     89.81
   9  -6  -3   1762.83     26.66
   9  -6  -2  20789.04    129.00
   9  -6  -1   2330.86     57.30
   9  -5 -23     74.82     35.07
   9  -5 -22    583.39     38.73
   9  -5 -21    410.75     35.42
   9  -5 -20    885.23     48.45
   9  -5 -19   2423.07     35.90
   9  -5 -18    917.62     31.71
   9  -5 -17   4936.00    154.85
   9  -5 -16    547.08     27.17
   9  -5 -15    425.28     19.65
   9  -5 -14   5346.17    102.67
   9  -5 -13   1454.00     30.77
   9  -5 -12  10098.58    152.90
   9  -5 -11   1213.85     19.76
   9  -5 -10  22202.89    237.94
   9  -5  -9   9906.63     95.99
   9  -5  -8   2125.13     27.23
   9  -5  -7   4012.03     74.31
   9  -5  -6    557.97     50.93
   9  -5  -5   2380.03     33.05
   9  -5  -4    764.98     21.54
   9  -5  -3  19174.80    395.05
   9  -5  -2   1489.57     93.28
   9  -5  -1   6534.99    102.04
   9  -4 -24    660.30     43.62
   9  -4 -23   1198.42     45.42
   9  -4 -22    181.56     33.06
   9  -4 -21   1209.33     38.10
   9  -4 -20   2733.79     76.25
   9  -4 -19   2411.82     39.81
   9  -4 -18   1703.02     49.10
   9  -4 -17   5035.29    112.91
   9  -4 -16    134.93     27.02
   9  -4 -15    634.25     26.22
   9  -4 -14   3607.80     61.79
   9  -4 -13     82.16     14.68
   9  -4 -12   2924.89     69.00
   9  -4 -11  13910.13    123.30
   9  -4 -10   5278.54     79.76
   9  -4  -9   6714.03     58.31
   9  -4  -8   4142.73     46.01
   9  -4  -7   3432.03     32.13
   9  -4  -6  11132.46     91.58
   9  -4  -5   1033.48     15.03
   9  -4  -4   2538.80     38.13
   9  -4  -3  17812.86    131.68
   9  -4  -2   8953.77    210.85
   9  -4  -1    422.63     15.55
   9  -3 -24   2308.60    100.15
   9  -3 -23    524.97     34.41
   9  -3 -22    319.35     32.49
   9  -3 -21   2724.11     44.40
   9  -3 -20    579.36     32.68
   9  -3 -19   3007.23     37.56
   9  -3 -18    296.47     27.67
   9  -3 -17    290.13     28.52
   9  -3 -16   1473.70     39.15
   9  -3 -15    302.57     35.36
   9  -3 -14   9804.56    128.39
   9  -3 -13   6222.19     71.15
   9  -3 -12   2139.00     34.35
   9  -3 -11  34369.80    195.99
   9  -3 -10   4460.89     57.24
   9  -3  -9  16651.01    164.20
   9  -3  -8   3893.00     25.07
   9  -3  -7    717.38     12.47
   9  -3  -6   5350.77     52.12
   9  -3  -5   3059.95     32.80
   9  -3  -4   9485.03     86.50
   9  -3  -3   1587.87     18.00
   9  -3  -2    340.32     11.88
   9  -3  -1   7594.59     56.29
   9  -2 -25   2333.11     93.33
   9  -2 -24    839.85     36.26
   9  -2 -23     66.82     33.13
   9  -2 -22     65.94     31.76
   9  -2 -21    971.00     50.06
   9  -2 -20   1227.46     53.35
   9  -2 -19   3756.18     71.05
   9  -2 -18    477.90     27.29
   9  -2 -17  11809.40    124.10
   9  -2 -16   1622.71     28.51
   9  -2 -15   4737.84     48.08
   9  -2 -14    280.33     30.61
   9  -2 -13    797.21     25.90
   9  -2 -12    951.70     20.70
   9  -2 -11   2741.28     34.00
   9  -2 -10   9180.82     74.39
   9  -2  -9   5600.40     56.01
   9  -2  -8   5023.54     39.20
   9  -2  -7   8094.18     82.92
   9  -2  -6   5017.88     54.74
   9  -2  -5   9790.63    146.11
   9  -2  -4  10053.09     96.67
   9  -2  -3   7973.64    111.89
   9  -2  -2   7844.18     87.96
   9  -2  -1   6352.80     67.26
   9  -1 -25   1949.74     64.94
   9  -1 -24    394.46     34.93
   9  -1 -23   1350.40     66.61
   9  -1 -22    180.48     31.81
   9  -1 -21    477.56     31.27
   9  -1 -20    514.17     69.74
   9  -1 -19   6804.78    105.97
   9  -1 -18   1688.81     52.61
   9  -1 -17   7283.75    122.87
   9  -1 -16    169.53     25.10
   9  -1 -15    166.44     21.56
   9  -1 -14   1335.58     27.26
   9  -1 -13    634.17     20.56
   9  -1 -12  10564.30    100.70
   9  -1 -11    362.98     35.30
   9  -1 -10  17501.51    152.94
   9  -1  -9   6325.86     72.51
   9  -1  -8   7384.34    232.77
   9  -1  -7  15081.14    156.71
   9  -1  -6   3505.93     66.19
   9  -1  -5  11772.75     99.57
   9  -1  -4  18990.76    290.30
   9  -1  -3   7757.24    198.49
   9  -1  -2  45847.25    482.80
   9  -1  -1   9542.16    128.54
   9   0   0  13986.66    207.66
   9   0   1  12884.93     98.42
   9   0   2   1727.31     38.73
   9   0   3  22176.04    475.12
   9   0   4     88.19     15.83
   9   0   5   2687.00     42.93
   9   0   6     33.28     17.54
   9   0   7    741.29     33.07
   9   0   8    166.41     23.54
   9   0   9  10546.63    142.03
   9   0  10    188.65     27.09
   9   0  11   1126.29     30.93
   9   0  12   1413.97     33.60
   9   0  13    766.15     32.06
   9   0  14  15160.06    230.36
   9   0  15     49.94     34.56
   9   0  16  16644.07    290.19
   9   0  17    556.26     38.48
   9   0  18    548.52     40.32
   9   0  19   1397.04     42.71
   9   0  20   1382.81     55.48
   9   0  21   4927.68     87.79
   9   0  22   2373.03     63.69
   9   1   0   9646.62    114.04
   9   1   1   4672.89     66.32
   9   1   2  37439.53    579.40
   9   1   3  19782.75    360.21
   9   1   4   1556.87     51.25
   9   1   5   5890.28     85.34
   9   1   6   3549.17     40.58
   9   1   7   2548.43     37.25
   9   1   8   3144.37     54.06
   9   1   9   1242.56     25.64
   9   1  10  10040.67    187.57
   9   1  11   5655.98    114.12
   9   1  12   2629.59     52.17
   9   1  13    212.72     31.58
   9   1  14   2219.44     69.25
   9   1  15   2687.96     55.17
   9   1  16    871.49     48.32
   9   1  17    223.56     49.84
   9   1  18   2181.57     56.22
   9   1  19    350.19     41.55
   9   1  20   1343.62     44.52
   9   1  21   1248.35     46.20
   9   1  22   3977.34     64.08
   9   2   0  27453.90    166.78
   9   2   1   1109.75     15.72
   9   2   2     67.66     18.18
   9   2   3   4030.96     33.27
   9   2   4    175.58     27.65
   9   2   5   1643.35     23.21
   9   2   6   6000.03    100.84
   9   2   7  38932.59    652.84
   9   2   8   1143.20     27.35
   9   2   9   4607.25     95.34
   9   2  10   1387.89     36.10
   9   2  11    289.01     38.43
   9   2  12   1980.26     48.58
   9   2  13  10568.60    213.80
   9   2  14   8127.64    157.70
   9   2  15    471.70     87.57
   9   2  16   2598.62     52.09
   9   2  17   3396.25     71.97
   9   2  18    802.23     41.38
   9   2  19   2088.16     48.00
   9   2  20   2670.65     66.45
   9   2  21    355.33     48.51
   9   2  22    429.23     61.24
   9   3   0   3242.31     23.95
   9   3   1   2854.21     26.32
   9   3   2  10496.61    112.01
   9   3   3   1105.50     23.61
   9   3   4   4240.76     32.57
   9   3   5   1894.44     38.70
   9   3   6   8105.41     44.29
   9   3   7   9180.71    207.62
   9   3   8   5756.19    107.55
   9   3   9  13822.65    261.86
   9   3  10    887.31     39.44
   9   3  11   1855.15     48.26
   9   3  12   2544.37     75.60
   9   3  13   9154.61    192.05
   9   3  14     80.20     34.60
   9   3  15   2007.48     39.40
   9   3  16   5763.03     86.29
   9   3  17   2573.35     86.44
   9   3  18   1927.53     54.22
   9   3  19    929.05     43.19
   9   3  20    244.73     42.92
   9   3  21    696.79     44.99
   9   4   0   9422.29     40.53
   9   4   1   1441.42     30.28
   9   4   2   2179.08     27.23
   9   4   3   2967.02     52.79
   9   4   4   6029.86     39.55
   9   4   6  14807.05     89.01
   9   4   8   3469.39     49.73
   9   4   9   8307.74    204.67
   9   4  10   4362.67     98.49
   9   4  11   3151.02     98.84
   9   4  12   4247.91    113.24
   9   4  13   1716.04     37.27
   9   4  14   3163.83     86.97
   9   4  15   3447.63     95.12
   9   4  16   3834.23     70.98
   9   4  17   1130.09     55.97
   9   4  18    984.17     43.03
   9   4  19    554.96     43.38
   9   4  20    147.79     43.65
   9   4  21   1000.18     46.56
   9   5   0    758.40     26.90
   9   5   1     31.76     24.28
   9   5   2    339.69     26.68
   9   5   3  33866.60    396.82
   9   5   4   1986.12     34.76
   9   5   5   9750.98     52.48
   9   5   6   1711.49     38.00
   9   5   7   4617.74     84.54
   9   5   8   4480.31     83.05
   9   5   9    766.91     55.11
   9   5  10    116.28     42.70
   9   5  11   2764.52     51.81
   9   5  12     59.66     47.62
   9   5  13    481.42     36.22
   9   5  14    999.49     46.08
   9   5  15    962.36     76.29
   9   5  16   1371.67     67.30
   9   5  17   1557.83     46.35
   9   5  18    166.80     51.47
   9   5  19    125.60     48.23
   9   5  20   2455.27     68.47
   9   6   0   3667.25    138.84
   9   6   1   8520.97     89.69
   9   6   2   1928.24     43.07
   9   6   3   1828.63     47.76
   9   6   4   1201.95     36.50
   9   6   5   3685.20     52.02
   9   6   6   6246.04     63.81
   9   6   7   2802.40     84.75
   9   6   8   5408.14     54.37
   9   6   9    534.54     64.50
   9   6  10    461.77     46.33
   9   6  11   1204.86     50.29
   9   6  12   1280.43     89.46
   9   6  13   3217.41     59.50
   9   6  14   3092.42     61.12
   9   6  15    340.52     56.37
   9   6  17   1829.30     63.18
   9   6  18   1754.51     69.95
   9   6  19   1338.25     56.50
   9   7   0   7006.65     86.20
   9   7   1   3904.73     66.29
   9   7   2   9816.12    156.48
   9   7   3   1230.19    102.81
   9   7   4  11867.40    113.51
   9   7   5    984.36     42.31
   9   7   6   6279.27     72.25
   9   7   7   1300.30     49.39
   9   7   8    199.03     45.64
   9   7   9   3199.77     54.68
   9   7  10   5090.77    105.63
   9   7  11    513.78     52.28
   9   7  12   1446.49     56.57
   9   7  13   2233.34     66.69
   9   7  14   3432.26    112.88
   9   7  15      0.00     70.46
   9   7  16   1091.71     62.13
   9   7  17   1097.80     62.55
   9   7  18    644.50     63.17
   9   8   0    790.47     43.33
   9   8   1   2251.78     51.90
   9   8   2    763.32     41.15
   9   8   3   2019.99     77.12
   9   8   4   2590.26     78.11
   9   8   5    195.42     44.28
   9   8   6    972.54     68.47
   9   8   7   3132.99     54.99
   9   8   8   3135.02     57.20
   9   8   9    922.43     52.29
   9   8  10    563.84     53.00
   9   8  11    588.63     54.64
   9   8  13   2428.24     95.10
   9   8  14   1738.77    108.65
   9   8  15    223.53     72.20
   9   8  16    188.61     96.11
   9   9   0   1903.14     55.40
   9   9   1   1742.59     55.87
   9   9   2    532.23     52.47
   9   9   3   1605.72     53.69
   9   9   4   1082.87     49.47
   9   9   5   2062.18     61.86
   9   9   6      0.12     49.15
   9   9   7     41.07     63.25
   9   9   8    543.92     77.65
   9   9   9   2638.36     60.42
   9   9  10    255.93     55.56
   9   9  11    395.62     57.60
   9   9  12    845.86     66.56
   9   9  13   1741.13     67.13
   9   9  14   2161.77    105.71
   9   9  15   1355.03     64.96
   9  10   0   2123.81     64.23
   9  10   1   1118.57     58.84
   9  10   2     18.00     47.76
   9  10   3   1172.08     52.99
   9  10   4    218.46     50.48
   9  10   5   3670.64     63.23
   9  10   6   1925.65     93.36
   9  10   7    410.15     55.73
   9  10   8   1115.25     87.85
   9  10   9   5361.18     71.75
   9  10  10   1167.75     60.91
   9  10  11   1426.36     62.30
   9  10  12    192.37     60.24
   9  11   0    474.43     59.59
   9  11   1    496.92     94.23
   9  11   2    117.39     61.44
   9  11   3   1985.18     61.54
   9  11   4    660.64     69.71
   9  11   5    231.54     55.12
   9  11   6    322.69     68.29
   9  11   7    396.15     67.80
   9  11   8    101.75     57.55
   9  11   9    544.96     60.45
   9  12   0   1547.91    149.62
   9  12   1   1045.23     81.98
   9  12   2      0.00     65.39
   9  12   3   1360.93     60.85
   9  12   4    380.87     57.55
  10 -11 -10     66.76     39.48
  10 -11  -9    628.80     35.83
  10 -11  -8    171.14     40.70
  10 -11  -7   2109.17     57.85
  10 -11  -6    900.64     35.89
  10 -11  -5    873.88     87.85
  10 -11  -4    856.67     57.65
  10 -11  -3    397.66     44.54
  10 -11  -2   1335.73     82.64
  10 -11  -1   1273.15     79.11
  10 -10 -14    377.80     34.85
  10 -10 -13    707.24     52.01
  10 -10 -12    245.37     35.49
  10 -10 -11     20.67     37.12
  10 -10 -10    863.38     47.28
  10 -10  -9    512.93     41.07
  10 -10  -8   1778.27     55.51
  10 -10  -7   3462.54     40.57
  10 -10  -6    109.16     26.43
  10 -10  -5    434.19     35.01
  10 -10  -4   1249.55     54.00
  10 -10  -3   1862.74     91.28
  10 -10  -2    350.49     40.69
  10 -10  -1    471.43     55.05
  10  -9 -16   1234.61     52.84
  10  -9 -15    188.93     33.23
  10  -9 -14   1590.77     42.09
  10  -9 -13    707.50     37.90
  10  -9 -12   1765.19     67.77
  10  -9 -11   2136.77     45.11
  10  -9 -10   4562.77     46.67
  10  -9  -9    641.24     27.83
  10  -9  -8    138.20     41.36
  10  -9  -7    552.47     22.66
  10  -9  -6    157.36     22.71
  10  -9  -5   1476.57     34.82
  10  -9  -4     22.97     24.50
  10  -9  -3    512.20     35.72
  10  -9  -2    954.80     38.08
  10  -9  -1    192.31     36.51
  10  -8 -18    382.33     33.80
  10  -8 -17    280.46     33.10
  10  -8 -16   1126.95     37.99
  10  -8 -15   1420.38     40.54
  10  -8 -14   1177.21     43.88
  10  -8 -13   1215.70     44.80
  10  -8 -12    219.09     34.16
  10  -8 -11   7235.28     99.38
  10  -8 -10     76.59     23.06
  10  -8  -9   3992.26     55.49
  10  -8  -8   2179.68     36.33
  10  -8  -7   1861.08     65.32
  10  -8  -6    704.58     24.32
  10  -8  -5   1424.42     27.03
  10  -8  -4   1267.52     40.90
  10  -8  -3   1123.78     57.07
  10  -8  -2    499.10     35.58
  10  -8  -1   1193.38     31.73
  10  -7 -20    524.04     48.99
  10  -7 -19    883.79     50.25
  10  -7 -18    459.81     35.13
  10  -7 -17    236.73     30.77
  10  -7 -16    351.04     30.43
  10  -7 -15    651.41     32.75
  10  -7 -14    430.17     22.07
  10  -7 -13    322.98     23.82
  10  -7 -12    291.46     23.35
  10  -7 -11    308.32     16.11
  10  -7 -10    770.95     26.49
  10  -7  -9    206.95     22.79
  10  -7  -8   3419.80     97.69
  10  -7  -7   1218.02     41.57
  10  -7  -6    909.04     28.80
  10  -7  -5   6785.47     96.34
  10  -7  -4  10176.62    118.28
  10  -7  -3   8950.65    148.80
  10  -7  -2   1816.05    100.09
  10  -7  -1    739.30     27.38
  10  -6 -21   1902.40     85.27
  10  -6 -20   3125.97     51.49
  10  -6 -19   4028.50     77.69
  10  -6 -18   1063.50     41.53
  10  -6 -17   1146.47     48.21
  10  -6 -16   3241.13     84.54
  10  -6 -15   2733.53     66.37
  10  -6 -14   3773.42     64.44
  10  -6 -13   2005.44     57.32
  10  -6 -12   1084.67     34.81
  10  -6 -11   2293.01     76.34
  10  -6 -10   2063.73     71.84
  10  -6  -9   1404.33     28.34
  10  -6  -8   1162.09     40.37
  10  -6  -7   4703.19     51.93
  10  -6  -6    111.05     20.55
  10  -6  -5    245.99     21.40
  10  -6  -4   5875.10     46.84
  10  -6  -3   1340.69     37.13
  10  -6  -2   3799.98    109.56
  10  -6  -1  11943.65    170.77
  10  -5 -22    149.50     39.00
  10  -5 -21    866.96     48.16
  10  -5 -20   1396.17     65.94
  10  -5 -19   1783.39     41.13
  10  -5 -18   6247.39    129.84
  10  -5 -17   2224.89     67.02
  10  -5 -16    806.32     37.78
  10  -5 -15    946.20     53.58
  10  -5 -14   1261.28     23.28
  10  -5 -13   1135.92     28.65
  10  -5 -12    730.08     43.91
  10  -5 -11   6167.80     83.08
  10  -5 -10   5070.49     80.44
  10  -5  -9   5893.92     93.77
  10  -5  -8   3040.48     56.43
  10  -5  -7   5879.21     65.63
  10  -5  -6    577.19     18.33
  10  -5  -5    697.58     17.86
  10  -5  -4   3403.95     31.75
  10  -5  -3  18431.38    177.76
  10  -5  -2  15338.68    289.99
  10  -5  -1  33413.54    189.20
  10  -4 -23    278.82     38.63
  10  -4 -22    242.94     37.66
  10  -4 -21    205.72     33.22
  10  -4 -20   1078.64     37.42
  10  -4 -19    994.65     55.74
  10  -4 -18   2023.54     45.81
  10  -4 -17    519.44     25.74
  10  -4 -16     30.36     22.68
  10  -4 -15    719.92     20.01
  10  -4 -14    562.67     23.09
  10  -4 -13    569.22     27.78
  10  -4 -12    924.59     85.08
  10  -4 -11   1352.65     25.12
  10  -4 -10   1697.39     22.62
  10  -4  -9    383.06     17.14
  10  -4  -8   4771.69     79.09
  10  -4  -7  13835.25    190.43
  10  -4  -6    169.53     17.32
  10  -4  -5   3127.38     50.92
  10  -4  -4   2597.31     25.57
  10  -4  -3    358.27     20.18
  10  -4  -2  22191.91    323.00
  10  -4  -1   1315.39     37.70
  10  -3 -24    107.39     36.52
  10  -3 -23    120.18     32.47
  10  -3 -22    191.42     31.35
  10  -3 -21   1269.69     38.42
  10  -3 -20    168.79     28.53
  10  -3 -19    161.16     29.24
  10  -3 -18    936.67     39.54
  10  -3 -17   7060.06     92.85
  10  -3 -16   4090.86     78.66
  10  -3 -15   8011.61    136.90
  10  -3 -14   1044.25     47.96
  10  -3 -13   2619.37     71.40
  10  -3 -12    310.18     27.14
  10  -3 -11   7194.33     95.72
  10  -3 -10  21654.42    222.48
  10  -3  -9   4526.20     41.81
  10  -3  -8    513.95     12.80
  10  -3  -7   4398.28     53.53
  10  -3  -6   7905.53     93.12
  10  -3  -5  10855.52    132.08
  10  -3  -4   5456.00     65.54
  10  -3  -3    460.77     15.51
  10  -3  -2   5059.91    104.47
  10  -3  -1   2226.04     53.22
  10  -2 -24    119.31     33.42
  10  -2 -23   1283.38     35.30
  10  -2 -22   1127.51     55.43
  10  -2 -21   2030.86     76.92
  10  -2 -20   1489.92     51.86
  10  -2 -19   2728.11     70.91
  10  -2 -18   1869.46     57.41
  10  -2 -17    300.15     24.30
  10  -2 -16   2211.01     48.56
  10  -2 -15   2068.85     38.58
  10  -2 -14   2580.43     42.44
  10  -2 -13    881.64     36.61
  10  -2 -12   3962.09    121.20
  10  -2 -11   9307.09    156.56
  10  -2 -10   7673.58    104.04
  10  -2  -9   3502.79     41.55
  10  -2  -8   4484.16     66.91
  10  -2  -7   2646.95     38.66
  10  -2  -6    466.28     17.72
  10  -2  -5    615.67     19.63
  10  -2  -4    577.76     13.72
  10  -2  -3    672.78     22.85
  10  -2  -2   2129.00     88.09
  10  -2  -1   2808.52     64.51
  10  -1 -24   1882.44     73.32
  10  -1 -23   1427.45     43.17
  10  -1 -22    188.41     30.80
  10  -1 -21    748.80     42.51
  10  -1 -20   1087.57     33.58
  10  -1 -19    159.12     26.96
  10  -1 -18   2008.50     44.46
  10  -1 -17   1625.67     53.29
  10  -1 -16    650.30     38.30
  10  -1 -15   1844.74     32.56
  10  -1 -14   1944.92     43.42
  10  -1 -13    612.93     19.22
  10  -1 -12   1832.99     41.13
  10  -1 -11   2911.37     65.79
  10  -1 -10   9451.25    103.55
  10  -1  -9    681.24     36.92
  10  -1  -8  14398.60    203.22
  10  -1  -7   4794.54     40.26
  10  -1  -6  10998.08    149.12
  10  -1  -5   3052.64     95.42
  10  -1  -4  15686.13    649.40
  10  -1  -3  28304.40    329.26
  10  -1  -2  29355.73    290.38
  10  -1  -1  20763.85    290.36
  10   0   0  18035.77    384.28
  10   0   1   1431.22     14.78
  10   0   2   4271.53     70.16
  10   0   3   2185.08     47.41
  10   0   4    666.08     27.84
  10   0   5   1980.66     38.33
  10   0   6   1568.34     37.85
  10   0   7   1448.06     38.22
  10   0   8     26.12     23.66
  10   0   9   6759.76    107.19
  10   0  10   7686.20    121.85
  10   0  11    943.72     29.28
  10   0  12   4107.79     75.48
  10   0  13   2050.60     62.55
  10   0  14     17.12     47.05
  10   0  15   4665.58     78.66
  10   0  16     89.82     36.80
  10   0  17    992.33     39.47
  10   0  18     10.53     39.68
  10   0  19     18.53     45.58
  10   0  20    916.30     43.97
  10   0  21   3310.31     76.52
  10   1   0   8493.75     52.38
  10   1   1    760.40     17.39
  10   1   2  10325.08     57.65
  10   1   3   9461.17    125.25
  10   1   4  20139.54    409.04
  10   1   5  22453.81    391.07
  10   1   6  13971.74    260.50
  10   1   7   9321.74    184.81
  10   1   8    615.92     28.19
  10   1   9  10072.36    169.39
  10   1  10   6183.61    176.88
  10   1  11    156.85     35.06
  10   1  12  12047.28    233.15
  10   1  13   9011.57    189.06
  10   1  14   2800.17     52.48
  10   1  15    403.75     36.07
  10   1  16   1964.41     46.01
  10   1  17    974.97     48.13
  10   1  18   1068.02     66.75
  10   1  19   3258.55    114.19
  10   1  20    259.11     46.56
  10   1  21    253.82     44.79
  10   2   0   9520.23     61.67
  10   2   1     52.92     13.00
  10   2   2   9871.33     57.04
  10   2   3    871.83     20.54
  10   2   4   5900.58     72.56
  10   2   5  25032.09    531.78
  10   2   6  10759.47    241.75
  10   2   7   5365.82    113.64
  10   2   8   2699.40     84.13
  10   2   9   5505.77    122.56
  10   2  10   2681.27     82.19
  10   2  11   9408.08    190.18
  10   2  12   2094.99     71.37
  10   2  13   4771.60    108.88
  10   2  14   2099.22     98.19
  10   2  15    366.12     39.56
  10   2  16   2206.20     72.32
  10   2  17   5566.14    148.40
  10   2  18   1255.92     49.34
  10   2  19   1105.19     43.43
  10   2  20    193.13     43.19
  10   2  21    334.65     48.86
  10   3   0  13326.99     42.09
  10   3   1     43.09     16.45
  10   3   2   6743.60     37.64
  10   3   3   8773.31     42.49
  10   3   4   1632.24     41.92
  10   3   5   1656.02     54.44
  10   3   6   1080.90     35.17
  10   3   7   8295.13    221.40
  10   3   8   5194.41    117.88
  10   3   9     69.23     26.07
  10   3  10    795.92     33.98
  10   3  11    599.05     41.49
  10   3  12   3411.25     72.38
  10   3  13   5637.60    135.57
  10   3  14    232.30     35.54
  10   3  15     62.57     36.56
  10   3  16   1128.24     39.83
  10   3  17   1363.91     45.97
  10   3  18   1085.33     47.40
  10   3  19    349.05     46.42
  10   3  20    525.41     44.06
  10   3  21      0.00     44.38
  10   4   0  15008.78    144.60
  10   4   1   3627.24     28.32
  10   4   2  17417.57    139.88
  10   4   3   6678.25     39.09
  10   4   4   1815.75     76.47
  10   4   5  25341.20    219.15
  10   4   6   1451.10     41.83
  10   4   7   3954.14     47.48
  10   4   8   2408.65     52.19
  10   4   9   3499.00     59.47
  10   4  10   3837.45    151.20
  10   4  11   1713.19     58.10
  10   4  12   2131.01     77.25
  10   4  13   4447.46    108.91
  10   4  14   3027.60     64.90
  10   4  15   1730.37     52.58
  10   4  16   1271.06     61.73
  10   4  17    333.55     44.59
  10   4  18   1104.95     47.80
  10   4  19   1885.54     63.14
  10   4  20    503.59     49.21
  10   5   0   1578.45     43.77
  10   5   1     43.96     23.59
  10   5   2   1941.72     38.12
  10   5   3    464.95     29.02
  10   5   4   1493.27     69.09
  10   5   5   6401.38     61.11
  10   5   6   6822.77     61.96
  10   5   7   1078.64     39.42
  10   5   9   7720.30     59.01
  10   5  10   4310.21     53.61
  10   5  11   2863.22     52.36
  10   5  12   3596.09     56.71
  10   5  13   2370.90     55.33
  10   5  14   3417.66     92.16
  10   5  15   1689.22     64.12
  10   5  16   3388.91    118.96
  10   5  17    584.54     70.01
  10   5  18    324.95     53.22
  10   5  19   1209.23     58.03
  10   6   1    362.56     29.00
  10   6   2   2508.96     36.85
  10   6   3   4425.86     74.13
  10   6   4    591.72     39.29
  10   6   5   1387.46     39.43
  10   6   6   3304.64     57.89
  10   6   8     92.94     56.48
  10   6  10   1907.49     50.52
  10   6  11   1274.29     51.26
  10   6  12    784.10     52.40
  10   6  13    890.05     96.47
  10   6  14    235.93     54.86
  10   6  15   2335.85     62.89
  10   6  16   1714.32     62.08
  10   6  17    493.70     75.22
  10   6  18   1617.61     99.51
  10   7   1   2508.26     41.07
  10   7   2    911.76     37.17
  10   7   3   3504.64     65.32
  10   7   4   4034.91     48.96
  10   7   5   1065.07     42.58
  10   7   6   5997.71     80.21
  10   7   7   8429.18    111.63
  10   7   8   1389.16     48.76
  10   7   9   1085.07     49.42
  10   7  10   4629.43     75.92
  10   7  11    580.07     91.42
  10   7  12   9355.76     94.29
  10   7  13     90.91     54.74
  10   7  14   3097.34     64.20
  10   7  15     60.60     71.52
  10   7  16    912.72    103.73
  10   7  17    255.94     60.82
  10   8   0    543.35     42.08
  10   8   1    424.58     65.33
  10   8   2   5710.74     55.09
  10   8   3   2407.53     47.49
  10   8   4    404.64     43.14
  10   8   5   6300.63    106.21
  10   8   6   7228.78    114.01
  10   8   7    597.63     50.80
  10   8   8   3026.83     67.71
  10   8   9   1445.78     91.57
  10   8  10   1125.08     54.84
  10   8  11    657.59     55.26
  10   8  12    596.45     56.61
  10   8  13    145.06     56.92
  10   8  14    495.83     73.88
  10   8  15    256.09     72.54
  10   9   0   1125.52    136.61
  10   9   1      0.00     47.07
  10   9   2   1735.53     59.69
  10   9   3   1649.26     49.12
  10   9   4   1305.77     49.40
  10   9   5   2119.53     53.92
  10   9   6   1178.82     81.51
  10   9   7   3106.59     74.68
  10   9   8    374.06    103.96
  10   9   9    323.97     54.55
  10   9  10    170.03     70.66
  10   9  11   1766.40    107.26
  10   9  12    693.46     59.57
  10   9  13    519.20     60.72
  10  10   0   1295.36     57.54
  10  10   1     69.87     53.24
  10  10   2   2908.34     96.33
  10  10   3  12366.84    100.59
  10  10   4   4142.23    117.45
  10  10   5   5840.29     70.20
  10  10   6    697.99     57.41
  10  10   7    161.49     54.05
  10  10   8    599.82     56.91
  10  10   9    192.44     78.06
  10  10  10    503.88     60.00
  10  10  11    814.70     70.49
  10  11   0    661.87     60.35
  10  11   1   1152.97     86.31
  10  11   2    735.14    163.05
  10  11   3    260.38     63.21
  10  11   4    771.32    117.20
  10  11   5    223.54     55.09
  10  11   6    668.60     74.86
  10  11   7    126.59     57.47
  11 -11  -8   1499.92     60.13
  11 -11  -7   1360.80     43.82
  11 -11  -6    686.72     43.66
  11 -11  -5    980.72     48.15
  11 -11  -4   5175.21     70.95
  11 -11  -3    225.85     48.05
  11 -11  -2   2660.03     78.31
  11 -11  -1    824.00     54.19
  11 -10 -12    592.45     37.27
  11 -10 -11   1405.77     59.80
  11 -10 -10    416.00     32.45
  11 -10  -9    216.58     39.14
  11 -10  -8    360.65     38.74
  11 -10  -7    123.66     31.30
  11 -10  -6     93.93     33.86
  11 -10  -5   1763.19     90.53
  11 -10  -4   2044.42     47.76
  11 -10  -3    314.08     42.46
  11 -10  -2   1302.52     61.50
  11 -10  -1   1338.07     72.13
  11  -9 -15    158.18     32.56
  11  -9 -14     51.99     42.20
  11  -9 -13    251.55     33.98
  11  -9 -12   1813.95     66.97
  11  -9 -11   1362.95     50.07
  11  -9 -10    619.31     34.92
  11  -9  -9   2187.15     54.11
  11  -9  -8   1059.52     40.23
  11  -9  -7   2382.34     62.47
  11  -9  -6   3091.95     47.69
  11  -9  -5     66.63     23.08
  11  -9  -4   1176.28     53.72
  11  -9  -3    864.85     76.64
  11  -9  -2   2115.73     64.91
  11  -9  -1   2959.98     88.87
  11  -8 -17    753.25     54.42
  11  -8 -16   1564.33     74.68
  11  -8 -15   1865.80     41.19
  11  -8 -14   1096.07     56.84
  11  -8 -13   2672.40     41.44
  11  -8 -12    242.55     31.23
  11  -8 -11   5507.09     64.74
  11  -8 -10   2848.13     61.98
  11  -8  -9    627.47     30.32
  11  -8  -8    242.06     26.61
  11  -8  -7   2970.91     81.65
  11  -8  -6   2945.71     42.44
  11  -8  -5   4401.49     52.02
  11  -8  -4    129.77     22.99
  11  -8  -3    289.86     35.29
  11  -8  -2    542.92     32.00
  11  -8  -1    709.64     49.57
  11  -7 -19    544.31     41.07
  11  -7 -18    943.21     67.11
  11  -7 -17     51.49     34.50
  11  -7 -16   1658.29     63.04
  11  -7 -15   2155.04     68.25
  11  -7 -14    559.76     30.79
  11  -7 -13    260.94     26.94
  11  -7 -12    838.67     40.25
  11  -7 -11    417.00     25.82
  11  -7 -10    146.63     25.76
  11  -7  -9    320.76     24.12
  11  -7  -8   1172.72     41.51
  11  -7  -7   1836.87     34.62
  11  -7  -6   1318.66     28.35
  11  -7  -5   1295.88     42.91
  11  -7  -4   3653.45     37.85
  11  -7  -3    995.84     30.23
  11  -7  -2    544.69     29.81
  11  -7  -1   1453.37     54.62
  11  -6 -20    627.24     46.17
  11  -6 -19    139.59     32.15
  11  -6 -18   4789.90     84.06
  11  -6 -17    596.62     33.24
  11  -6 -16    449.68     60.04
  11  -6 -15   1893.85     51.27
  11  -6 -14     70.21     33.27
  11  -6 -13   2021.48     40.35
  11  -6 -12   5127.54     78.18
  11  -6 -11   4488.63     71.26
  11  -6 -10   5146.14     55.40
  11  -6  -9   4513.20    103.01
  11  -6  -8    979.42     22.84
  11  -6  -7   4407.17     75.74
  11  -6  -6   4284.06     46.60
  11  -6  -5   5201.59     93.64
  11  -6  -4   1979.90     28.57
  11  -6  -3  17023.65    285.50
  11  -6  -2   5298.36    132.14
  11  -6  -1   6345.24    137.75
  11  -5 -21    478.46     41.19
  11  -5 -20   1245.79     63.85
  11  -5 -19   2092.85     49.32
  11  -5 -18    228.35     32.06
  11  -5 -17   2839.02     64.18
  11  -5 -16    265.76     25.59
  11  -5 -15      9.63     14.55
  11  -5 -14   6827.04    131.22
  11  -5 -13   2181.32     55.70
  11  -5 -12   1989.77     45.90
  11  -5 -11   3236.86     60.81
  11  -5 -10   2446.62     80.81
  11  -5  -9   5138.66    101.09
  11  -5  -8   5363.23     77.42
  11  -5  -7   7317.06    119.87
  11  -5  -6    743.24     22.78
  11  -5  -5   1209.15     18.27
  11  -5  -4  18328.32    117.98
  11  -5  -3    343.12     27.54
  11  -5  -2  20377.30    382.25
  11  -5  -1   4356.24     47.61
  11  -4 -22     93.94     42.45
  11  -4 -21    673.83     40.94
  11  -4 -20   2646.30     64.81
  11  -4 -19    178.65     37.85
  11  -4 -18   1632.27     40.51
  11  -4 -17      1.66     19.40
  11  -4 -16   1285.26     44.11
  11  -4 -15   1018.26     42.76
  11  -4 -14   6668.19    134.50
  11  -4 -13    302.97     21.55
  11  -4 -12   2071.58     36.20
  11  -4 -11   8936.84    150.31
  11  -4 -10    311.01     16.09
  11  -4  -9   7349.07    160.91
  11  -4  -8    635.49     16.59
  11  -4  -7     55.49     11.77
  11  -4  -6    781.40     30.26
  11  -4  -5   6538.06    144.77
  11  -4  -4   5280.92     73.09
  11  -4  -3   1197.56     27.80
  11  -4  -2   4793.86    108.00
  11  -4  -1   1982.89     46.21
  11  -3 -23    322.67     41.39
  11  -3 -22    638.22     36.86
  11  -3 -21    312.05     34.44
  11  -3 -20    619.81     34.40
  11  -3 -19   2498.72     65.61
  11  -3 -18    482.51     66.18
  11  -3 -17   5318.90    156.82
  11  -3 -16   3158.54     54.18
  11  -3 -15    307.84     37.33
  11  -3 -14   1099.88     58.85
  11  -3 -13   1372.52     32.66
  11  -3 -12   6265.97     82.83
  11  -3 -11  14701.97    181.91
  11  -3 -10   1831.65     22.85
  11  -3  -9   8712.32    171.00
  11  -3  -8   1718.76     58.94
  11  -3  -7   1659.81     55.10
  11  -3  -6   9468.80    107.05
  11  -3  -5    883.88     19.43
  11  -3  -4   3573.78     83.62
  11  -3  -3   1730.66     72.59
  11  -3  -2   3065.05     89.04
  11  -3  -1    833.42     46.00
  11  -2 -23     35.91     39.66
  11  -2 -22    107.19     33.03
  11  -2 -21   1447.73     67.39
  11  -2 -20     43.90     29.28
  11  -2 -19   2328.25     80.62
  11  -2 -18   1408.80     49.32
  11  -2 -17    865.98     44.87
  11  -2 -16    179.93     20.53
  11  -2 -15    251.54     27.01
  11  -2 -14   1230.04     57.10
  11  -2 -13   3489.99     54.85
  11  -2 -12   5181.47     85.04
  11  -2 -11  22353.91    378.65
  11  -2 -10   6548.80     80.00
  11  -2  -9   6924.42    113.26
  11  -2  -8    709.09     16.45
  11  -2  -7   1767.12     34.70
  11  -2  -6   2292.02     52.98
  11  -2  -5   8521.92    154.31
  11  -2  -4   1150.85     34.89
  11  -2  -3   2354.92     92.10
  11  -2  -2   7745.71    207.98
  11  -2  -1   1422.67     69.68
  11  -1 -24    132.46     34.19
  11  -1 -23    273.04     31.68
  11  -1 -22    480.47     50.10
  11  -1 -21    817.40     62.17
  11  -1 -20   2898.89     96.12
  11  -1 -19   1156.55     43.91
  11  -1 -18   6097.53    172.36
  11  -1 -17   4846.28    125.94
  11  -1 -16   2161.69     59.56
  11  -1 -15   4160.89     88.74
  11  -1 -14    319.35     29.72
  11  -1 -13    319.12     16.91
  11  -1 -12   2748.98     83.64
  11  -1 -11   1790.50     47.90
  11  -1 -10   1209.97     70.03
  11  -1  -9    696.60     47.00
  11  -1  -8   4722.26     29.66
  11  -1  -7  14430.79     66.68
  11  -1  -6   7350.16    203.60
  11  -1  -5   2153.20     41.22
  11  -1  -4  16456.65    634.75
  11  -1  -3   1988.16     31.19
  11  -1  -2    217.36     15.05
  11  -1  -1  19584.07    349.45
  11   0   0    873.85     20.98
  11   0   1   2248.16     30.96
  11   0   2  52078.30    558.05
  11   0   3   1644.37     31.31
  11   0   4   3350.27     86.48
  11   0   5   2580.08     47.69
  11   0   6   1805.64     32.00
  11   0   7     52.12     28.70
  11   0   8     22.64     33.20
  11   0   9   5153.53    155.60
  11   0  10     80.47     29.69
  11   0  11  10428.95    195.08
  11   0  12    270.64     30.77
  11   0  13   1985.21     69.17
  11   0  14      0.00     37.08
  11   0  15   2781.47     45.55
  11   0  16   1095.55     46.81
  11   0  17      7.66     64.14
  11   0  18    633.80     41.22
  11   0  19    100.15     41.91
  11   0  20    339.16     43.51
  11   1   0    354.22     21.60
  11   1   1   6248.47    100.93
  11   1   2   4978.64    164.03
  11   1   3   5376.00     62.81
  11   1   4     62.64     14.91
  11   1   5    373.50     17.43
  11   1   6   1200.48     26.68
  11   1   7   9052.39    205.64
  11   1   8   1522.07     25.27
  11   1   9   4907.24    101.94
  11   1  10    747.25     30.31
  11   1  11   1175.26     53.29
  11   1  12   2372.07     49.00
  11   1  13   8526.24    142.32
  11   1  14   4694.82    108.79
  11   1  15   4148.06     76.98
  11   1  16   2189.66     56.01
  11   1  17    998.50     50.74
  11   1  18    524.56     41.30
  11   1  19   3499.86     83.40
  11   1  20    243.96     43.43
  11   2   0   9379.63    312.39
  11   2   1   1098.65     44.45
  11   2   2   4213.57     40.49
  11   2   3   8717.43     85.80
  11   2   4   1293.45     32.41
  11   2   5   5602.55     36.90
  11   2   6   1579.01     49.41
  11   2   7   9480.15    194.80
  11   2   8   1864.25     39.04
  11   2   9   5416.57    134.79
  11   2  10    987.19     31.97
  11   2  11    478.35     33.90
  11   2  12   1807.37     40.62
  11   2  13   1787.95     45.38
  11   2  14   1227.99     36.36
  11   2  15   1248.60     59.33
  11   2  16   3098.25     62.60
  11   2  17    216.99     39.38
  11   2  18   1033.24     46.10
  11   2  19    343.50     48.86
  11   2  20   2200.76     70.66
  11   3   0   5317.92    149.98
  11   3   1    311.44     19.12
  11   3   2    971.68     43.93
  11   3   3   5256.51     33.05
  11   3   4   6028.07     58.95
  11   3   5   7226.40     70.62
  11   3   7   5173.92    102.67
  11   3   8   1838.16     50.73
  11   3   9   7598.66    165.31
  11   3  10   1104.43     40.28
  11   3  11   2947.02     65.64
  11   3  12    996.38     36.56
  11   3  13    317.17     41.34
  11   3  14    519.31     39.53
  11   3  15    694.76     38.32
  11   3  16   2195.38     51.55
  11   3  17   3025.39     76.62
  11   3  18    417.79     46.18
  11   3  19     87.91     51.55
  11   4   0   1051.58     25.82
  11   4   1      2.38     31.43
  11   4   2  10050.09     42.39
  11   4   3   7468.27     41.49
  11   4   4   6630.01     52.25
  11   4   5   4384.66     39.84
  11   4   6   1947.63     47.42
  11   4   8   2751.57     43.50
  11   4   9   1355.43     72.19
  11   4  10   1101.09     43.95
  11   4  11    783.99     47.65
  11   4  12   1892.06     39.56
  11   4  13   1871.11     69.69
  11   4  14   1534.12     64.98
  11   4  15    906.71     50.40
  11   4  16   2729.32     91.82
  11   4  17     85.07     44.65
  11   4  18   1183.72     57.42
  11   4  19    714.20     77.41
  11   5   0    650.19     22.30
  11   5   1   4665.20     55.14
  11   5   2   3857.26     49.78
  11   5   3   1782.58     32.66
  11   5   4   3002.24     99.99
  11   5   5    157.18     39.53
  11   5   6   1476.20     38.84
  11   5   7     98.81     42.08
  11   5   8   4164.22     62.00
  11   5   9   2922.13     68.55
  11   5  10   1029.46     81.59
  11   5  11   1144.98     48.79
  11   5  12   2183.12    108.67
  11   5  13   1972.04     55.42
  11   5  14   1299.03     55.75
  11   5  15   4563.66    359.96
  11   5  16   1722.91     51.43
  11   5  17   1466.66     63.62
  11   5  18   1197.38     55.86
  11   6   0   2529.04    136.03
  11   6   1   7063.33     59.01
  11   6   2   8764.28    126.81
  11   6   3   3766.77     46.79
  11   6   4    716.95     35.93
  11   6   5   4061.58     52.00
  11   6   6    597.46     48.61
  11   6   7    428.33     80.48
  11   6   8    547.41     43.90
  11   6   9   4347.66     68.72
  11   6  10    520.04     47.31
  11   6  11    544.58     50.22
  11   6  12   2560.77     72.81
  11   6  13   3782.83     75.12
  11   6  14   1305.64     71.30
  11   6  15     24.69     56.86
  11   6  16    924.48     60.34
  11   6  17   1230.92     62.88
  11   7   0    425.44     43.78
  11   7   1   1770.85     37.47
  11   7   2    942.55     36.10
  11   7   3   1898.24     49.06
  11   7   4   1302.78     41.05
  11   7   5   2187.74     45.98
  11   7   6   2326.80     73.87
  11   7   7   1147.78     60.09
  11   7   8   1507.18     49.21
  11   7   9    229.05     47.27
  11   7  10    692.98     50.71
  11   7  11   1510.51    109.30
  11   7  12   7492.76     77.55
  11   7  13   2253.46    112.54
  11   7  14    634.57     57.94
  11   7  15    817.51     60.80
  11   7  16   1168.33     62.61
  11   8   0   3848.76     91.53
  11   8   1    128.43     54.77
  11   8   2    897.09     44.55
  11   8   3   2894.01     49.78
  11   8   4   4262.40     54.90
  11   8   5   4992.80    105.20
  11   8   6    700.79     68.74
  11   8   7     77.41     46.37
  11   8   8   1640.14     53.55
  11   8   9    973.20    128.11
  11   8  10    366.80     53.22
  11   8  11    397.66     54.47
  11   8  12    903.49     71.39
  11   8  13    232.77     57.62
  11   8  14   1286.72     63.18
  11   9   0    647.36     73.83
  11   9   1    625.04     49.15
  11   9   2   1144.46     46.64
  11   9   3    739.98     53.81
  11   9   4    655.17     60.68
  11   9   5   4819.08    120.27
  11   9   6   1022.66     53.09
  11   9   7    189.64     77.74
  11   9   8   3887.96     97.55
  11   9   9   4071.89    191.56
  11   9  10    101.32     55.32
  11   9  11   1190.83    111.65
  11   9  12    983.19     74.19
  11  10   0    121.03     49.37
  11  10   1    995.08    103.20
  11  10   2    289.20     68.88
  11  10   3   1396.68     66.32
  11  10   4    285.40     59.40
  11  10   5    131.45     50.86
  11  10   6     37.42     61.01
  11  10   7    204.91     75.58
  11  10   8   1154.87     71.57
  11  10   9    536.60     71.04
  11  11   0   1809.33    133.88
  11  11   1    896.57     62.19
  11  11   2      0.00     49.56
  11  11   3    837.09    113.33
  11  11   4    744.14     54.81
  12 -10 -10    880.80     33.40
  12 -10  -9    643.75     56.69
  12 -10  -8    859.28     33.02
  12 -10  -7    242.92     33.91
  12 -10  -6    389.34     31.49
  12 -10  -5    363.31     41.14
  12 -10  -4    466.19     49.31
  12 -10  -3    562.60     47.85
  12 -10  -2    677.59     43.97
  12 -10  -1     83.97     48.53
  12  -9 -14    252.84     31.05
  12  -9 -13    322.31     31.13
  12  -9 -12    192.37     34.81
  12  -9 -11   1546.05     39.54
  12  -9 -10    146.37     28.93
  12  -9  -9   2267.04     60.69
  12  -9  -8    613.52     35.01
  12  -9  -7   1500.00     54.52
  12  -9  -6    752.43     32.09
  12  -9  -5   1957.73     46.29
  12  -9  -4      0.00     53.81
  12  -9  -3    991.91     35.06
  12  -9  -2    212.40     43.98
  12  -9  -1    331.42     47.84
  12  -8 -16    429.36     37.63
  12  -8 -15    742.73     45.76
  12  -8 -14    696.84     33.53
  12  -8 -13   1239.91     53.99
  12  -8 -12   1514.56     64.97
  12  -8 -11   2840.94     55.64
  12  -8 -10   1136.17     29.10
  12  -8  -9    331.23     29.47
  12  -8  -8    998.42     38.14
  12  -8  -7    456.65     25.88
  12  -8  -6    277.87     25.12
  12  -8  -5     34.08     26.02
  12  -8  -4    833.06     34.22
  12  -8  -3    252.99     30.60
  12  -8  -2   1284.31     82.78
  12  -8  -1    361.87     28.11
  12  -7 -18   1485.12     62.78
  12  -7 -17     23.75     39.53
  12  -7 -16   1787.57     39.03
  12  -7 -15    548.83     34.41
  12  -7 -14     85.09     26.45
  12  -7 -13   1858.49     83.38
  12  -7 -12   1628.55     72.08
  12  -7 -11   5156.15     52.05
  12  -7 -10    205.85     25.20
  12  -7  -9   1019.65     37.99
  12  -7  -8    247.46     22.66
  12  -7  -7   1921.18     57.72
  12  -7  -6    185.13     21.81
  12  -7  -5    718.07     27.84
  12  -7  -4    724.52     92.24
  12  -7  -3     15.74     25.12
  12  -7  -2     82.22     30.54
  12  -7  -1    595.26     33.56
  12  -6 -19      0.00     29.38
  12  -6 -18    252.45     31.75
  12  -6 -17    125.35     27.37
  12  -6 -16    988.80     40.88
  12  -6 -15     81.90     31.15
  12  -6 -14    589.33     38.30
  12  -6 -13    209.92     23.21
  12  -6 -12   1110.41     33.72
  12  -6 -11    260.40     28.20
  12  -6 -10    931.37     28.18
  12  -6  -9   1639.98     32.81
  12  -6  -8    148.26     25.65
  12  -6  -7   6136.81     91.12
  12  -6  -6    800.17     19.65
  12  -6  -5   5041.97     39.98
  12  -6  -4  17589.98    222.46
  12  -6  -3   2049.15     53.64
  12  -6  -2  14439.95    414.16
  12  -6  -1   8585.06    117.26
  12  -5 -20   2330.91     41.81
  12  -5 -19    722.66     37.98
  12  -5 -18     40.76     32.19
  12  -5 -17    360.13     28.20
  12  -5 -16    645.93     40.91
  12  -5 -15   3680.71     76.05
  12  -5 -14   1280.51     30.04
  12  -5 -13    430.80     32.33
  12  -5 -12    208.00     21.16
  12  -5 -11    136.50     20.31
  12  -5 -10    813.62     23.28
  12  -5  -9   1525.12     33.93
  12  -5  -8   2781.62     47.72
  12  -5  -7   1717.30     41.34
  12  -5  -6    599.25     21.09
  12  -5  -5   2027.10     72.81
  12  -5  -4   1067.01     44.90
  12  -5  -3   2882.64     63.81
  12  -5  -2  16212.42    264.90
  12  -5  -1   1978.25     36.77
  12  -4 -21    732.41     61.51
  12  -4 -20   1298.85     54.30
  12  -4 -19   1646.41     47.38
  12  -4 -18   3977.81    110.12
  12  -4 -17    247.59     24.29
  12  -4 -16    496.49     27.02
  12  -4 -15   2833.63     50.99
  12  -4 -14    237.33     22.86
  12  -4 -13   2495.81     49.46
  12  -4 -12   1459.30     33.48
  12  -4 -11  10604.73    130.60
  12  -4 -10   3382.40     54.69
  12  -4  -9   9910.93    179.27
  12  -4  -8    835.18     76.81
  12  -4  -7   1095.41     44.01
  12  -4  -6     29.74     18.30
  12  -4  -5    943.28     27.09
  12  -4  -4    189.32     14.34
  12  -4  -3   4558.56    100.79
  12  -4  -2    895.80     41.92
  12  -4  -1   2007.12     45.26
  12  -3 -22      0.00     37.68
  12  -3 -21    355.64     33.87
  12  -3 -20    363.19     32.74
  12  -3 -19    710.79     40.57
  12  -3 -18   2084.67     59.54
  12  -3 -17    753.73     29.23
  12  -3 -16    281.95     21.94
  12  -3 -15   1044.07     33.03
  12  -3 -14    502.25     32.07
  12  -3 -13   2318.99     63.49
  12  -3 -12   1553.34     33.43
  12  -3 -11   8772.95    195.52
  12  -3 -10   3387.29    113.40
  12  -3  -9   3171.03     60.11
  12  -3  -8   1828.99     33.59
  12  -3  -7   2339.72     26.23
  12  -3  -6   2681.73     71.32
  12  -3  -5     70.54     19.67
  12  -3  -4   1537.46     32.52
  12  -3  -3    785.68     27.51
  12  -3  -2   5161.46    202.45
  12  -3  -1   3013.94     66.24
  12  -2 -22    486.59     41.53
  12  -2 -21    227.44     32.43
  12  -2 -20    712.51     33.94
  12  -2 -19    119.60     33.00
  12  -2 -18   1657.17     57.72
  12  -2 -17   3133.12     57.80
  12  -2 -16   4154.43    112.82
  12  -2 -15   4795.75    120.46
  12  -2 -14    860.12     36.81
  12  -2 -13   1700.88     55.08
  12  -2 -12    167.39     15.03
  12  -2 -11   3991.51     95.25
  12  -2 -10   1882.18     35.03
  12  -2  -9   4104.85     63.54
  12  -2  -8   5191.21    133.80
  12  -2  -7   2176.83     38.96
  12  -2  -6   8378.95     80.72
  12  -2  -5   3477.65    137.91
  12  -2  -4    802.55     64.83
  12  -2  -3   4020.80    110.26
  12  -2  -2    791.37     41.00
  12  -2  -1   3148.17     59.28
  12  -1 -23     12.41     38.87
  12  -1 -22   1090.73     66.13
  12  -1 -21   1119.09     56.36
  12  -1 -20   6147.34     95.19
  12  -1 -19    199.76     29.31
  12  -1 -18   3021.89    113.47
  12  -1 -17    154.98     22.74
  12  -1 -16   2343.12    115.08
  12  -1 -15   2318.41     65.20
  12  -1 -14   6360.09    209.35
  12  -1 -13   1740.40     59.50
  12  -1 -12    413.42     50.04
  12  -1 -11   2272.55     72.78
  12  -1 -10   3343.11     98.22
  12  -1  -9   2446.32     53.23
  12  -1  -8    924.89     14.26
  12  -1  -7    519.23     23.19
  12  -1  -6   3492.04    129.94
  12  -1  -5   1851.31    109.23
  12  -1  -4    701.72     27.52
  12  -1  -3   5253.44     57.98
  12  -1  -2    280.51     29.26
  12  -1  -1   4921.82     68.15
  12   0   0     73.53     27.09
  12   0   1   5838.21     69.13
  12   0   2   7944.58    137.82
  12   0   3    944.75     67.97
  12   0   4  24477.44    292.34
  12   0   5    481.50     17.40
  12   0   6   2461.34     55.78
  12   0   7      0.00     26.50
  12   0   8   2555.56     42.21
  12   0   9   3892.83     68.86
  12   0  10   3482.02     63.59
  12   0  11   9593.20    202.51
  12   0  12   5256.50    110.77
  12   0  13   9186.81     77.03
  12   0  14   1449.06     36.68
  12   0  15    753.26     41.79
  12   0  16   3262.26     81.93
  12   0  17      0.00     38.95
  12   0  18   3070.48    109.29
  12   0  19    337.94     42.25
  12   1   0   8164.31     61.43
  12   1   1   2690.36    128.50
  12   1   2   1701.09     50.17
  12   1   3    765.64     26.93
  12   1   4    392.00     29.69
  12   1   5   1050.59     36.26
  12   1   6    750.23     25.14
  12   1   7    163.88     22.13
  12   1   8   6302.24    116.82
  12   1   9   1148.08     34.28
  12   1  10   2737.06     64.40
  12   1  11   3792.12     71.78
  12   1  12   3599.44     94.16
  12   1  13   3913.75     86.87
  12   1  14    796.47     35.83
  12   1  15    855.26     64.33
  12   1  16    299.22     37.71
  12   1  17   1688.68     42.23
  12   1  18   1161.02     42.88
  12   1  19   1046.69     51.93
  12   2   0   7428.18    123.13
  12   2   1    153.74     57.38
  12   2   2   1478.66     24.64
  12   2   4   5524.40     47.74
  12   2   5   5785.11     92.36
  12   2   6  13733.08    135.79
  12   2   7   3833.26     97.25
  12   2   8   5005.61    114.64
  12   2   9   2690.89     99.84
  12   2  10   1507.52     50.56
  12   2  11   1762.74     49.11
  12   2  12   4321.42    114.07
  12   2  13    654.99     33.87
  12   2  14    752.95     39.69
  12   2  15    529.85     40.64
  12   2  16    175.40     38.06
  12   2  17   1247.10     51.67
  12   2  18   1082.78     51.86
  12   2  19    563.11     43.10
  12   3   0  12651.80    186.55
  12   3   1   1744.03     23.48
  12   3   2   4574.39     29.69
  12   3   3   5046.31     41.00
  12   3   4   6238.56     49.24
  12   3   5  34008.17    261.50
  12   3   6    834.48     36.52
  12   3   7    323.22     32.51
  12   3   8    384.02     45.78
  12   3   9   1920.41     78.10
  12   3  10   3723.74     52.89
  12   3  11   2915.66     96.90
  12   3  12    226.48     32.58
  12   3  13   2083.41     71.62
  12   3  14     11.39     38.37
  12   3  15   3711.65    118.55
  12   3  16    943.67     44.12
  12   3  17    787.37     44.18
  12   3  18    319.25     73.98
  12   4   0   2782.47     52.68
  12   4   1   1587.21     53.61
  12   4   2   1415.09     37.46
  12   4   3     88.05     38.29
  12   4   4   1828.88     31.66
  12   4   5   4010.38     50.01
  12   4   6   3467.45     41.19
  12   4   7   2863.50     52.34
  12   4   8  10026.73     75.84
  12   4   9   5120.89     66.78
  12   4  10   1279.21     57.47
  12   4  11   4607.77     70.02
  12   4  12   1490.89     50.57
  12   4  13    788.44     62.56
  12   4  14    218.79     39.65
  12   4  15    386.63     41.89
  12   4  16   1518.57     68.73
  12   4  17    178.79     45.37
  12   4  18    598.72     47.73
  12   5   0   6329.80    385.87
  12   5   1   2567.03     30.41
  12   5   2   8103.18    107.98
  12   5   3   1630.25     32.48
  12   5   4   1540.43     36.66
  12   5   5   5094.51     50.47
  12   5   6    223.18     35.11
  12   5   7   8116.13    105.20
  12   5   8    849.04     41.40
  12   5   9   1114.73     44.37
  12   5  10    560.96     59.46
  12   5  11    508.87     46.92
  12   5  12   3045.40     56.86
  12   5  13   2962.55     59.36
  12   5  14    143.41     52.94
  12   5  15   2467.24     62.00
  12   5  16   1061.81     59.52
  12   5  17     28.51     58.94
  12   6   0   1909.17    103.47
  12   6   1   2469.08     59.24
  12   6   2    542.51     47.04
  12   6   3   2121.73     62.89
  12   6   4   5902.71     62.76
  12   6   5   1019.72     38.53
  12   6   6   4317.90     64.41
  12   6   7    743.94     81.93
  12   6   8   4258.44    104.19
  12   6   9    428.73     45.20
  12   6  10   3821.12     57.50
  12   6  11   3359.18     90.65
  12   6  12   1640.40    101.83
  12   6  13   3085.33     64.01
  12   6  14   2896.96     63.21
  12   6  15    543.68     57.38
  12   6  16   1102.18     61.71
  12   7   0    744.36     69.63
  12   7   1    800.46     34.60
  12   7   2   1951.95     73.16
  12   7   3   1825.21     70.37
  12   7   4    424.32     38.31
  12   7   5    867.79     68.80
  12   7   6   2299.43     48.78
  12   7   7   1352.79     59.11
  12   7   8   3359.06    125.52
  12   7   9   2648.58     63.88
  12   7  10    144.94     59.82
  12   7  11    432.99     52.21
  12   7  12    451.88     54.10
  12   7  13     78.79     67.04
  12   7  14    903.58     67.50
  12   8   0   3247.17     66.69
  12   8   1    368.33     49.39
  12   8   2   2374.71    149.29
  12   8   3   1562.26    104.29
  12   8   4   1799.75     52.76
  12   8   5    342.39     58.12
  12   8   6   4489.04     72.51
  12   8   7   2070.82     54.02
  12   8   8      0.00     48.08
  12   8   9   1424.98     54.92
  12   8  10    384.61     65.04
  12   8  11   1529.07     94.54
  12   8  12   1773.74     77.85
  12   9   0    914.07    124.76
  12   9   1     85.76     45.36
  12   9   3   7716.82    228.77
  12   9   4   2814.20    124.75
  12   9   5   8256.46    218.01
  12   9   6   1638.92     55.28
  12   9   7    546.41     67.67
  12   9   8    320.49     52.23
  12   9   9     91.84     53.41
  12   9  10    450.94     56.61
  12  10   0     98.26     78.08
  12  10   1    918.84     84.67
  12  10   2    387.19     61.00
  12  10   3    425.71     71.13
  12  10   4    289.78     65.99
  12  10   5    866.51     77.53
  12  10   6     57.23     90.69
  13 -10  -7    685.00     50.65
  13 -10  -6    703.76     40.66
  13 -10  -5   1711.67     55.27
  13 -10  -4   2814.64    117.99
  13 -10  -3    915.38     70.98
  13 -10  -2     75.50     59.06
  13 -10  -1    846.60     53.28
  13  -9 -12    420.73     52.81
  13  -9 -11   2686.95     76.42
  13  -9 -10    167.96     37.03
  13  -9  -9    762.24     37.74
  13  -9  -8    154.60     46.30
  13  -9  -7    163.15     27.24
  13  -9  -6    494.64     34.36
  13  -9  -5   1263.98     51.31
  13  -9  -4    338.47     41.25
  13  -9  -3    259.04     50.89
  13  -9  -2    253.05     54.17
  13  -9  -1    173.37     41.69
  13  -8 -14     57.25     36.33
  13  -8 -13    321.85     36.28
  13  -8 -12    931.89     64.71
  13  -8 -11    161.48     37.22
  13  -8 -10    171.02     49.81
  13  -8  -9    326.33     34.30
  13  -8  -8   1680.14     71.98
  13  -8  -7    448.62     27.37
  13  -8  -6   4742.37     78.64
  13  -8  -5     42.18     26.17
  13  -8  -4   1931.27     45.34
  13  -8  -3     70.41     28.97
  13  -8  -2   4084.95    182.44
  13  -8  -1    575.67     64.85
  13  -7 -17    690.06     42.77
  13  -7 -16   1043.96     77.13
  13  -7 -15   1615.59     43.95
  13  -7 -14    300.04     34.57
  13  -7 -13   3423.31     76.67
  13  -7 -12   1081.18     80.40
  13  -7 -11   3419.97     74.04
  13  -7 -10   1767.58     41.46
  13  -7  -9    676.79     36.19
  13  -7  -8   1752.00     54.05
  13  -7  -7   4036.14     81.18
  13  -7  -6   1962.51     54.30
  13  -7  -5    594.04     21.72
  13  -7  -4    700.76     38.98
  13  -7  -3   4536.05    130.80
  13  -7  -2    528.51     27.89
  13  -7  -1   2969.40     75.42
  13  -6 -18    843.50     49.90
  13  -6 -17    126.32     38.11
  13  -6 -16   1778.60     47.41
  13  -6 -15    349.48     33.10
  13  -6 -14   1215.36     47.75
  13  -6 -13      0.00     51.64
  13  -6 -12    132.88     23.39
  13  -6 -11     42.09     20.05
  13  -6 -10    327.93     19.00
  13  -6  -9     13.03     16.97
  13  -6  -8    690.19     24.53
  13  -6  -7    669.41     30.45
  13  -6  -6    418.33     19.78
  13  -6  -5    189.44     19.08
  13  -6  -4   6770.77    179.74
  13  -6  -3   3516.80    156.01
  13  -6  -2    251.05     47.50
  13  -6  -1    193.43     31.69
  13  -5 -19   1281.33     55.75
  13  -5 -18    278.80     38.43
  13  -5 -17    496.70     33.57
  13  -5 -16     50.14     34.68
  13  -5 -15   3081.04     63.10
  13  -5 -14    389.68     26.70
  13  -5 -13   2376.06     46.24
  13  -5 -12    138.18     18.03
  13  -5 -11   2465.80     55.37
  13  -5 -10    141.55     15.51
  13  -5  -9   2347.63    157.71
  13  -5  -8    534.59     43.56
  13  -5  -7    488.70     81.71
  13  -5  -6   9528.40    160.05
  13  -5  -5   1547.22     41.83
  13  -5  -4   6615.57    161.99
  13  -5  -3   3656.05    152.53
  13  -5  -2   6060.18    207.21
  13  -5  -1   3760.76     83.08
  13  -4 -20    878.58     75.25
  13  -4 -19    319.19     55.22
  13  -4 -18   1653.57     69.36
  13  -4 -17   2716.48     95.95
  13  -4 -16   1212.88    103.15
  13  -4 -15    464.88     20.68
  13  -4 -14   1648.76     24.82
  13  -4 -13   2691.85     43.50
  13  -4 -12   1665.45     43.09
  13  -4 -11   4003.27     45.65
  13  -4 -10   3481.74     83.66
  13  -4  -9   5579.27    101.89
  13  -4  -8   2442.96    126.06
  13  -4  -7   4288.77     51.17
  13  -4  -6    926.89     50.37
  13  -4  -5   7106.69    157.31
  13  -4  -4   4699.66    159.64
  13  -4  -3   3206.28     58.84
  13  -4  -2   8746.03    264.62
  13  -4  -1   1814.86     64.06
  13  -3 -21    255.05     56.06
  13  -3 -20   1300.66     56.34
  13  -3 -19   2095.06    143.13
  13  -3 -18    354.93     35.60
  13  -3 -17    977.79     36.05
  13  -3 -16    391.26     49.38
  13  -3 -15    497.19     34.49
  13  -3 -14   1511.70     70.83
  13  -3 -13    106.36     16.19
  13  -3 -12   2784.79     54.81
  13  -3 -11   3541.09     87.11
  13  -3 -10    570.74     42.15
  13  -3  -9   1956.38     82.01
  13  -3  -8   2361.50    138.22
  13  -3  -7    586.74     23.82
  13  -3  -6   1397.10     34.26
  13  -3  -5   3698.61     62.47
  13  -3  -4    437.08     67.60
  13  -3  -3   9523.20    224.43
  13  -3  -2    349.94     21.51
  13  -3  -1   1939.24     89.13
  13  -2 -21    295.07     36.57
  13  -2 -20   1819.98     46.72
  13  -2 -19    506.13     51.42
  13  -2 -18   4215.33     91.31
  13  -2 -17   1098.90     52.75
  13  -2 -16   2685.61     87.35
  13  -2 -15    357.78     21.43
  13  -2 -14    164.29     21.31
  13  -2 -13   1048.99     53.73
  13  -2 -12   6339.93    201.82
  13  -2 -11   9123.29    409.85
  13  -2 -10    652.18     19.10
  13  -2  -9   4192.45     70.09
  13  -2  -8   1639.61    127.20
  13  -2  -7   3441.00    134.59
  13  -2  -6   6796.07    228.12
  13  -2  -5    638.84    112.60
  13  -2  -4   2857.84     59.71
  13  -2  -3   1876.63     88.89
  13  -2  -2   1403.57     61.13
  13  -2  -1   1907.96     68.77
  13  -1 -22    244.33     43.18
  13  -1 -21    515.31     37.56
  13  -1 -20    711.75     64.76
  13  -1 -19   1436.17     44.74
  13  -1 -18   1503.89     33.48
  13  -1 -17    364.74     35.88
  13  -1 -16    269.97     24.37
  13  -1 -15    399.72     43.48
  13  -1 -14     49.62     18.58
  13  -1 -13   4883.07    225.52
  13  -1 -12   5683.67    130.32
  13  -1 -11  11035.30    210.25
  13  -1 -10   3705.97     90.23
  13  -1  -9   8586.35    186.50
  13  -1  -8   2018.89     32.43
  13  -1  -7   1044.79     69.22
  13  -1  -6   5971.05     60.91
  13  -1  -5   1239.12     36.70
  13  -1  -4   6279.24     61.89
  13  -1  -3   5357.27     76.44
  13  -1  -2   7937.62    376.85
  13  -1  -1   1720.67     86.15
  13   0   1    425.08     32.66
  13   0   2   4472.53     94.20
  13   0   3   1258.36     31.52
  13   0   4    364.66     29.22
  13   0   5     54.06     13.22
  13   0   6    810.17     45.47
  13   0   7  13408.66    283.61
  13   0   8    192.37     25.56
  13   0   9    349.95     26.95
  13   0  10    315.89     49.63
  13   0  11    175.59     33.52
  13   0  12   5358.58    118.21
  13   0  13   7949.72    115.97
  13   0  14    419.88     35.13
  13   0  15    829.64     39.60
  13   0  16     79.80     37.88
  13   0  17    104.63     44.76
  13   0  18   2231.34     88.60
  13   1   0    801.99     25.83
  13   1   1   8244.39    190.84
  13   1   2   9679.34    109.39
  13   1   3   1284.66    117.86
  13   1   4   1071.16     32.93
  13   1   5   1850.11     65.27
  13   1   6   2468.03     57.60
  13   1   7   2894.64     47.44
  13   1   8   2053.15     75.16
  13   1   9   1555.64     42.91
  13   1  10   2623.06     56.48
  13   1  11   1711.10     49.45
  13   1  12   1012.30     34.46
  13   1  13    547.79     36.20
  13   1  14    492.05     35.40
  13   1  15   1724.66     39.61
  13   1  16   2260.62     76.66
  13   1  17     97.58     43.15
  13   1  18     99.97     45.44
  13   2   1   2490.89     46.29
  13   2   2   1318.17     55.81
  13   2   3   4514.88     71.59
  13   2   4   4399.26     81.85
  13   2   5   8442.13     70.36
  13   2   6   6578.65     55.03
  13   2   7    243.90     43.08
  13   2   8   1788.04     50.68
  13   2   9   3654.49     87.95
  13   2  10   2417.39     50.02
  13   2  11   1584.69     35.04
  13   2  12    568.92     32.45
  13   2  13   1706.52     71.51
  13   2  14   1372.90     39.68
  13   2  15   3772.98     66.10
  13   2  16    120.03     38.18
  13   2  17   1019.43     47.90
  13   3   0   3796.16     39.71
  13   3   1    326.99     25.99
  13   3   2   4238.10     50.34
  13   3   3  18756.12     92.78
  13   3   4    158.35     23.78
  13   3   5    948.25     37.43
  13   3   6   1880.85     62.02
  13   3   7   4022.39     68.11
  13   3   8   1112.36     37.74
  13   3   9   1112.54     40.00
  13   3  10      0.00     39.70
  13   3  11    403.90     30.87
  13   3  12     84.10     31.69
  13   3  13    330.70     34.30
  13   3  14    135.93     35.68
  13   3  15    574.39     38.67
  13   3  16    746.04     43.81
  13   3  17    981.70     58.99
  13   4   0    152.58     18.59
  13   4   1   2824.27     70.46
  13   4   2   3420.31     46.54
  13   4   3    253.73     28.56
  13   4   4    236.70     26.67
  13   4   5   5088.44     80.02
  13   4   6   3536.16     42.23
  13   4   8    204.47     47.23
  13   4   9   1699.36     44.72
  13   4  10    617.17     43.80
  13   4  11    477.56     44.90
  13   4  12    616.06     47.90
  13   4  13    754.63     58.13
  13   4  14   1449.33     86.22
  13   4  15   2196.98     85.23
  13   4  16    362.57     40.25
  13   5   0   3075.55     38.18
  13   5   1   7319.77    197.59
  13   5   2    591.04     51.95
  13   5   3    425.25     27.68
  13   5   4    773.43     31.39
  13   5   5   1354.55     45.40
  13   5   6   1717.94     40.34
  13   5   7   1591.53     51.94
  13   5   8    283.67     39.82
  13   5   9   2166.93     54.39
  13   5  10   1962.12     64.82
  13   5  11   2670.85     95.51
  13   5  12   1178.25     64.36
  13   5  13   2577.05     60.01
  13   5  14   1280.42     57.10
  13   5  15    278.27     55.83
  13   6   0   2350.00     44.28
  13   6   1    327.46     42.96
  13   6   2      0.00     43.38
  13   6   3   2938.26    111.93
  13   6   4     21.46     32.55
  13   6   5    191.74     48.34
  13   6   6     22.91     37.54
  13   6   7    768.01     41.77
  13   6   8   3026.47    106.88
  13   6   9    106.03     44.09
  13   6  10    728.49     60.02
  13   6  11   1242.64     56.02
  13   6  12   6019.04     69.60
  13   6  13   1609.00     75.96
  13   6  14    716.95     62.50
  13   7   0    734.17     94.32
  13   7   1    503.75     50.93
  13   7   2   3448.40    129.24
  13   7   3    105.98     67.06
  13   7   4   3647.49     66.87
  13   7   5    339.94     39.48
  13   7   6    583.93     71.10
  13   7   7   1110.04     46.66
  13   7   8    999.46     66.46
  13   7   9    238.28     47.49
  13   7  10    259.10     50.52
  13   7  11    205.59     51.53
  13   7  12    832.80     55.93
  13   7  13    794.93     67.60
  13   8   1   1229.83     53.01
  13   8   2    321.36     60.75
  13   8   3    261.11     51.01
  13   8   4   2226.26     49.61
  13   8   5   5622.71    159.65
  13   8   6    512.85     46.28
  13   8   7    339.79     62.26
  13   8   8   3327.13     70.13
  13   8   9   2156.91     81.37
  13   8  10    416.01     53.12
  13   9   0    587.31     69.42
  13   9   1   1218.29     59.90
  13   9   2    896.77     58.78
  13   9   3   1954.94     64.63
  13   9   4   2435.56     86.93
  13   9   5    587.78     47.40
  13   9   6    108.25     48.17
  13   9   7    170.75     50.13
  13   9   8    958.85    102.42
  13  10   0    281.18     77.61
  13  10   1    803.85     82.49
  13  10   2    716.57     62.82
  13  10   3    683.45     63.73
  14  -9  -9    525.95     43.33
  14  -9  -8    131.68     41.43
  14  -9  -7      0.00     99.48
  14  -9  -6    144.02     38.62
  14  -9  -5   1100.30     59.43
  14  -9  -4    259.35     59.13
  14  -9  -3    200.93     48.39
  14  -9  -2    891.54     68.21
  14  -9  -1    624.99     77.38
  14  -8 -12    423.46     40.13
  14  -8 -11    563.87     49.20
  14  -8 -10     96.71     32.83
  14  -8  -9    373.81     33.34
  14  -8  -8   1505.10     77.37
  14  -8  -7   1055.28     66.34
  14  -8  -6    521.59     39.85
  14  -8  -5    208.18     29.70
  14  -8  -4    566.13     47.67
  14  -8  -3    316.10     49.74
  14  -8  -2    244.02     48.50
  14  -8  -1    114.91     29.67
  14  -7 -15    444.79     40.05
  14  -7 -14    653.76     38.85
  14  -7 -13   1505.01     49.22
  14  -7 -12    432.99     36.13
  14  -7 -11   3642.71     95.72
  14  -7 -10    410.19     36.81
  14  -7  -9    287.01     32.97
  14  -7  -8     90.83     30.27
  14  -7  -7   1444.34     66.86
  14  -7  -6    252.95     27.20
  14  -7  -5     31.28     21.84
  14  -7  -4   1882.91    100.97
  14  -7  -3   4506.78    102.63
  14  -7  -2   2618.03    120.24
  14  -7  -1   1523.26     48.88
  14  -6 -17    565.72     48.06
  14  -6 -16    183.13     37.09
  14  -6 -15    185.54     31.96
  14  -6 -14    264.17     31.02
  14  -6 -13    321.74     78.10
  14  -6 -12    900.15     34.83
  14  -6 -11   2013.96     70.36
  14  -6 -10    205.33     32.64
  14  -6  -9    790.42     36.26
  14  -6  -8   1417.52     54.90
  14  -6  -7    764.57     54.42
  14  -6  -6    575.67     20.66
  14  -6  -5    139.21     33.31
  14  -6  -4     87.07     26.24
  14  -6  -3   1091.95    102.41
  14  -6  -2   2358.68    123.12
  14  -6  -1   1164.43     55.71
  14  -5 -18    113.64     37.62
  14  -5 -17    368.04     36.12
  14  -5 -16    102.86     30.71
  14  -5 -15    386.70     40.89
  14  -5 -14    386.72     46.89
  14  -5 -13    324.15     30.12
  14  -5 -12   1952.75     34.88
  14  -5 -11   1189.16     74.75
  14  -5 -10   3314.80    142.15
  14  -5  -9    210.98     23.93
  14  -5  -8   1125.72     70.45
  14  -5  -7   2452.19     34.51
  14  -5  -6    870.07     41.70
  14  -5  -5   5010.57    118.21
  14  -5  -4   6238.36    278.88
  14  -5  -3    516.81     67.77
  14  -5  -2      0.00     11.65
  14  -5  -1   3114.78     48.90
  14  -4 -19    345.92     36.51
  14  -4 -18    137.93     30.92
  14  -4 -17    729.11     61.92
  14  -4 -16    834.54     71.32
  14  -4 -15   3043.26     78.26
  14  -4 -14   1114.28     49.56
  14  -4 -13    740.89     33.78
  14  -4 -12   2413.26     51.49
  14  -4 -11   2210.24     45.65
  14  -4 -10   1404.66     28.21
  14  -4  -9   1718.76     70.31
  14  -4  -8    523.23     47.94
  14  -4  -7    343.42     18.62
  14  -4  -6    165.90     17.36
  14  -4  -5    828.90     41.87
  14  -4  -4    977.12     60.40
  14  -4  -3    840.88     35.23
  14  -4  -2   3764.92    152.26
  14  -4  -1   4365.98    173.44
  14  -3 -20   1970.79    104.04
  14  -3 -19   1759.80     45.87
  14  -3 -18    403.53     43.81
  14  -3 -17    688.87     70.33
  14  -3 -16    678.39     36.44
  14  -3 -15   1048.52    100.82
  14  -3 -14    933.05     58.90
  14  -3 -13    859.38     25.97
  14  -3 -12   2070.56     50.18
  14  -3 -11    779.62     29.93
  14  -3 -10   4650.62    218.81
  14  -3  -9   2834.58    114.21
  14  -3  -8     63.54     13.73
  14  -3  -7    416.91     42.17
  14  -3  -6    398.22     40.27
  14  -3  -5    500.59     38.95
  14  -3  -4   2880.67     81.89
  14  -3  -3   1128.59     42.62
  14  -3  -2    598.39     32.14
  14  -3  -1   2493.11    122.16
  14  -2 -20   2473.12    152.13
  14  -2 -19    282.39     38.61
  14  -2 -18   1562.12    108.81
  14  -2 -17    607.98     45.88
  14  -2 -16    385.00     48.12
  14  -2 -15   2360.07     51.33
  14  -2 -14   3512.11    125.87
  14  -2 -13    118.22     24.98
  14  -2 -12     33.26     41.82
  14  -2 -11   2369.50     42.54
  14  -2 -10    851.84     30.61
  14  -2  -9    265.95     16.03
  14  -2  -8   2923.27    149.16
  14  -2  -7   4138.36    211.75
  14  -2  -6    228.99     34.36
  14  -2  -5    620.96     40.57
  14  -2  -4   1481.96     94.63
  14  -2  -3   3065.14     93.08
  14  -2  -2    783.37     64.27
  14  -2  -1   4526.00    115.05
  14  -1 -21     59.73     50.35
  14  -1 -20     44.92     47.60
  14  -1 -19     69.02     45.50
  14  -1 -18    582.56     45.72
  14  -1 -17   2923.82     77.23
  14  -1 -16   1428.27    113.78
  14  -1 -15    801.24     72.47
  14  -1 -14    417.01     35.83
  14  -1 -13    654.52     61.43
  14  -1 -12   1771.57    117.69
  14  -1 -11    247.50     35.91
  14  -1 -10   2178.37     48.37
  14  -1  -9   2002.22    225.60
  14  -1  -8   3377.95     38.90
  14  -1  -7   1629.86     33.74
  14  -1  -6   4821.81    249.15
  14  -1  -5   4499.75    271.18
  14  -1  -4  12315.30    501.05
  14  -1  -3   9232.17     78.99
  14  -1  -2   8490.24     81.90
  14  -1  -1   4498.72    115.43
  14   0   0     96.75     29.24
  14   0   1   2804.86    119.06
  14   0   2     27.24     16.24
  14   0   3     21.20     16.91
  14   0   4    188.85     25.48
  14   0   5     39.79     13.41
  14   0   6    257.20     29.70
  14   0   7   2475.18     99.61
  14   0   8    384.28     22.11
  14   0   9    582.43     29.18
  14   0  10   1652.39     60.78
  14   0  11   7996.80    169.32
  14   0  12    891.15     32.38
  14   0  13   2320.78     55.83
  14   0  14    415.52     34.79
  14   0  15      3.22     47.74
  14   0  16    936.19     55.01
  14   1   1   1578.86     45.94
  14   1   2    123.85     28.49
  14   1   3  10334.23    562.69
  14   1   4    683.64     35.84
  14   1   5   1992.77    126.54
  14   1   6   2376.67     94.02
  14   1   7    898.42     24.35
  14   1   8   2562.92     65.38
  14   1   9   1338.52     41.78
  14   1  10   1865.43     63.40
  14   1  11   1100.16     35.22
  14   1  12   6246.92    116.81
  14   1  13   1305.06     35.48
  14   1  14    359.63     34.91
  14   1  15    575.17     49.88
  14   1  16    764.02     45.76
  14   2   0   9880.97     93.61
  14   2   1    309.94     24.71
  14   2   2    198.24     60.36
  14   2   3   2518.42    263.08
  14   2   4   5485.61     58.49
  14   2   5   4429.03     74.33
  14   2   6    131.03     25.77
  14   2   7    639.82     43.96
  14   2   8   2317.70     40.11
  14   2   9    295.29     25.16
  14   2  10   2083.94     39.88
  14   2  11    507.70     41.58
  14   2  12    567.14     44.03
  14   2  13   1215.52     53.76
  14   2  14   1366.52     76.38
  14   2  15    364.52     37.45
  14   2  16    739.82     43.76
  14   3   0    757.67     27.13
  14   3   1    404.10     32.86
  14   3   2   1058.98    153.01
  14   3   3   1272.93     85.81
  14   3   4   7772.44     76.52
  14   3   5   2685.18     41.31
  14   3   7    817.81     39.81
  14   3   9   2502.50     46.09
  14   3  10   3930.67     64.08
  14   3  11   1900.08     48.99
  14   3  12    113.87     37.38
  14   3  13    333.47     34.46
  14   3  14    406.56     35.98
  14   3  15   1162.86     48.88
  14   4   1   1796.26    122.10
  14   4   2   1540.82     47.50
  14   4   3    319.86     45.05
  14   4   4   5357.04     42.53
  14   4   6    884.08     34.24
  14   4   7   2490.29     43.49
  14   4   8    712.61     43.88
  14   4   9    952.01     41.88
  14   4  10    625.11     43.28
  14   4  11   1860.63     50.29
  14   4  12    651.18     53.13
  14   4  13    431.11     49.94
  14   4  14   1763.05     72.84
  14   4  15    604.04     55.40
  14   5   0     56.15     23.10
  14   5   1   2102.19     88.78
  14   5   2   1268.59    151.45
  14   5   3   2973.80     36.73
  14   5   4   2009.19     66.48
  14   5   5    418.56     46.89
  14   5   6   3159.25     54.60
  14   5   7    709.08     46.42
  14   5   8   2438.42     47.89
  14   5   9    771.07     43.88
  14   5  10   3178.42    127.53
  14   5  11   1494.35     73.88
  14   5  12   3585.40     67.24
  14   5  13    233.44     64.51
  14   5  14    278.35     53.25
  14   6   0    253.98     30.29
  14   6   1   2156.14    108.20
  14   6   2   3245.72    202.24
  14   6   3    330.18     30.18
  14   6   4   1405.24     89.56
  14   6   5    392.81     76.14
  14   6   6   1360.77    116.77
  14   6   7   1795.67     56.09
  14   6   8   1043.51     45.52
  14   6   9    122.36     54.81
  14   6  10    829.45     89.56
  14   6  11    570.59     50.31
  14   6  12   1091.41     83.58
  14   7   0     94.34     37.71
  14   7   1    138.25     39.06
  14   7   2   1687.15     76.04
  14   7   3   2063.50     65.36
  14   7   5    666.77     40.43
  14   7   6   2299.11     50.47
  14   7   7      0.00     49.90
  14   7   8     70.06     44.57
  14   7   9   1638.47     53.29
  14   7  10    324.65     49.66
  14   7  11    902.73     65.02
  14   8   1    349.45     67.74
  14   8   2   2623.40    113.25
  14   8   3   6674.93     79.60
  14   8   4   2402.32     68.05
  14   8   5   1939.10     91.89
  14   8   6    637.85     79.45
  14   8   7    691.39     51.16
  14   8   8    595.69     87.45
  14   9   1   1540.46     93.49
  14   9   3    149.11     54.66
  14   9   4   1224.58     63.35
  14   9   5    177.51     58.05
  15  -8 -10   1125.94     65.17
  15  -8  -9    116.53     38.35
  15  -8  -8    186.67     43.80
  15  -8  -7    400.40     33.53
  15  -8  -6    583.08     34.09
  15  -8  -5    439.94     44.64
  15  -8  -4   2004.55    115.73
  15  -8  -3    297.90     47.10
  15  -8  -2   1111.65     81.35
  15  -8  -1    267.49     53.40
  15  -7 -13    294.35     38.12
  15  -7 -12    343.01     37.43
  15  -7 -11    208.25     36.00
  15  -7 -10     55.77     34.48
  15  -7  -9    161.66     34.44
  15  -7  -8    556.96     46.70
  15  -7  -7   2246.42     94.60
  15  -7  -6   1199.79     53.75
  15  -7  -5    595.19     52.92
  15  -7  -4   4142.64    174.79
  15  -7  -3    157.12     40.99
  15  -7  -2   2378.23    137.68
  15  -7  -1   1257.09     55.09
  15  -6 -15   1309.39     60.20
  15  -6 -14   1052.53     54.34
  15  -6 -13    719.84     58.58
  15  -6 -12   1841.54     94.87
  15  -6 -11    100.52     32.11
  15  -6 -10     68.81     36.19
  15  -6  -9    518.21     34.62
  15  -6  -8   1519.07     45.37
  15  -6  -7   1840.99     91.02
  15  -6  -6   2060.58     68.23
  15  -6  -5    673.42     44.66
  15  -6  -4    746.06     49.30
  15  -6  -3    874.11     45.60
  15  -6  -2    529.03     53.45
  15  -6  -1   1910.63     93.23
  15  -5 -16   1086.18     58.78
  15  -5 -15    287.72     91.88
  15  -5 -14     90.86     71.52
  15  -5 -13     73.54     55.88
  15  -5 -12    101.00     33.58
  15  -5 -11   1144.37     51.87
  15  -5 -10    467.18     28.69
  15  -5  -9     97.29     30.87
  15  -5  -8    219.05     22.17
  15  -5  -7   1082.03     43.98
  15  -5  -6   1033.73     63.65
  15  -5  -5   1283.18     67.29
  15  -5  -4    614.57     38.52
  15  -5  -3    850.85     46.65
  15  -5  -2    345.89     22.85
  15  -5  -1    538.70     31.35
  15  -4 -17    170.21     62.04
  15  -4 -16    282.32     46.48
  15  -4 -15    807.09    132.42
  15  -4 -14    136.13     69.42
  15  -4 -13   1207.94     77.78
  15  -4 -12     18.73     30.18
  15  -4 -11   1621.18     96.96
  15  -4 -10     92.69     22.32
  15  -4  -9    633.90     25.00
  15  -4  -8   1719.79     81.36
  15  -4  -7    561.64     36.91
  15  -4  -6   5274.84    223.39
  15  -4  -5   5702.30     84.16
  15  -4  -4    965.61     50.66
  15  -4  -3   9371.26     69.08
  15  -4  -2    353.11     34.49
  15  -4  -1   5454.51    297.60
  15  -3 -18   1866.34    357.56
  15  -3 -17    642.95     68.54
  15  -3 -16   1061.13    131.05
  15  -3 -15    227.67     61.81
  15  -3 -14    854.99    267.24
  15  -3 -13   1355.60    122.78
  15  -3 -12    484.55     58.50
  15  -3 -11   2559.28     45.58
  15  -3 -10   2170.55    105.54
  15  -3  -9    575.84     33.47
  15  -3  -8   6649.00    236.36
  15  -3  -7   2202.33    169.46
  15  -3  -6     74.17     20.40
  15  -3  -5   3486.16    344.30
  15  -3  -4    817.18     51.33
  15  -3  -3   6345.04    191.67
  15  -3  -2    416.01     61.36
  15  -3  -1   1685.25     94.43
  15  -2 -19    133.58     64.96
  15  -2 -18   1210.18    185.89
  15  -2 -17    102.02     41.62
  15  -2 -16    197.99     55.82
  15  -2 -15    461.07     51.75
  15  -2 -14    419.22    100.68
  15  -2 -13   1628.92     67.36
  15  -2 -12    146.77     27.85
  15  -2 -11   3985.44    147.12
  15  -2 -10   1949.47    112.00
  15  -2  -9   1011.70     56.08
  15  -2  -8   1633.38     72.78
  15  -2  -7    509.26     45.93
  15  -2  -6    426.35     52.38
  15  -2  -5   3909.19    353.71
  15  -2  -4   4759.44    246.88
  15  -2  -3   6657.74     88.51
  15  -2  -2    945.74     72.18
  15  -2  -1    328.07     63.38
  15  -1 -12   3725.02    142.29
  15  -1 -11   2063.06     36.63
  15  -1 -10    927.19     43.65
  15  -1  -9    517.51     70.17
  15  -1  -8    323.36     23.98
  15  -1  -7     84.43     22.91
  15  -1  -6   3022.72    198.63
  15  -1  -5    564.03     38.07
  15  -1  -4   1090.61     47.45
  15  -1  -3   1383.67     85.58
  15  -1  -2   1432.53     86.48
  15  -1  -1   4128.08     81.96
  15   0   0    321.44     54.04
  15   0   1   3098.18    132.10
  15   0   2    667.48    105.05
  15   0   3     89.09     25.59
  15   0   4    382.32     40.78
  15   0   5   1834.56     79.55
  15   0   6   3707.69    292.74
  15   0   7    508.80     31.88
  15   0   8   3478.45     89.24
  15   0   9    184.48     39.04
  15   0  10     58.03     30.63
  15   0  11    311.78     39.65
  15   0  12    872.03     32.27
  15   0  13    168.48     36.60
  15   0  14     38.91     34.06
  15   0  15   2194.44     48.48
  15   1   0     96.18     24.69
  15   1   1    961.49     32.02
  15   1   2    291.29     49.82
  15   1   3   3389.16    121.38
  15   1   4   3611.22    159.11
  15   1   5   3199.19     81.93
  15   1   6   4653.30    418.88
  15   1   7   2127.74     84.75
  15   1   8   1912.52     47.62
  15   1   9   1887.88     45.65
  15   1  10     59.25     26.34
  15   1  11   1390.00     53.71
  15   1  12   1945.86     60.66
  15   1  13   1095.91     72.29
  15   1  14    458.37     35.20
  15   1  15    577.27     37.55
  15   2   0   1424.49    111.37
  15   2   1   1424.84     41.91
  15   2   2  13592.21    344.65
  15   2   3   1791.21     60.46
  15   2   4   1030.07     88.13
  15   2   5     15.93     60.24
  15   2   6   1373.41     66.73
  15   2   7    704.39     30.72
  15   2   8    117.49     44.81
  15   2   9    737.62     37.56
  15   2  10   1494.75     43.80
  15   2  11     77.40     36.81
  15   2  12    365.87     37.04
  15   2  13    282.90     39.20
  15   2  14    197.38     40.66
  15   3   1    264.14     29.08
  15   3   2   2405.87     58.52
  15   3   4    129.62     51.70
  15   3   5    383.51     25.35
  15   3   6     68.90     27.35
  15   3   7   1102.32     46.88
  15   3   8    424.43     34.93
  15   3   9    653.78     51.41
  15   3  10    727.04     42.36
  15   3  11     22.36     47.94
  15   3  12    682.05     73.38
  15   3  13   2416.41    161.07
  15   3  14      4.89     46.03
  15   4   2   1517.68     47.90
  15   4   3   3631.56    111.21
  15   4   4    160.37     38.05
  15   4   5    627.92     67.90
  15   4   6    114.19     30.12
  15   4   7    535.08     45.96
  15   4   8      2.52     35.43
  15   4   9   2467.05     56.67
  15   4  10     48.74     41.46
  15   4  11   1078.36     57.05
  15   4  12   1067.90     50.43
  15   4  13    777.65     51.86
  15   5   1    252.78     45.42
  15   5   2    547.69     48.83
  15   5   3    116.88     40.43
  15   5   4    633.82     55.65
  15   5   5   1262.33     65.78
  15   5   6   3566.47     69.19
  15   5   7    785.02     39.49
  15   5   8    373.75     53.96
  15   5   9    665.32     56.14
  15   5  10    496.94     50.44
  15   5  11   1968.33     55.35
  15   5  12   1822.29     56.28
  15   6   1    515.05     58.08
  15   6   2    446.22     59.39
  15   6   3   1496.28     70.07
  15   6   4    784.88     65.30
  15   6   5    298.81     63.85
  15   6   6   1023.60     58.38
  15   6   7     22.70     51.03
  15   6   8   1378.50     47.86
  15   6   9     48.24     43.91
  15   6  10    383.55     50.57
  15   7   1    699.93     68.42
  15   7   2    511.71     67.27
  15   7   3    578.24     70.54
  15   7   4   2906.96     88.46
  15   7   6    449.86     76.28
  15   7   7    837.97     81.07
  15   7   8   3068.26    188.58
  15   8   0    386.96     75.06
  15   8   1    320.58     75.53
  15   8   2   3440.33    101.06
  15   8   3    173.60     75.32
  15   8   4    555.44     80.14
  15   8   5    328.70     80.22
  16  -8  -3    978.23     82.45
  16  -8  -2   1672.19     71.01
  16  -7 -10    109.86     86.08
  16  -7  -9    491.59     67.76
  16  -7  -8   1595.34     74.55
  16  -7  -7    375.02     39.78
  16  -7  -6    274.22     39.34
  16  -7  -5    144.57     52.48
  16  -7  -4     49.98     38.94
  16  -7  -3   1512.35     75.59
  16  -7  -2    338.08     54.82
  16  -7  -1    443.87     56.76
  16  -6 -12    218.63     82.34
  16  -6 -11   3347.42    105.73
  16  -6  -9    138.58     62.05
  16  -6  -8    429.73     63.20
  16  -6  -7    387.07     62.80
  16  -6  -6     81.01     79.32
  16  -6  -5    172.50     34.26
  16  -6  -4    103.73     34.14
  16  -6  -3    739.24     67.55
  16  -6  -2    135.29     49.74
  16  -6  -1    875.69     49.85
  16  -5 -14     73.21     74.61
  16  -5 -13    521.34     78.21
  16  -5 -11     52.13     71.72
  16  -5 -10    450.97     56.88
  16  -5  -9    556.04     71.47
  16  -5  -8    538.17     57.67
  16  -5  -7    162.99     70.42
  16  -5  -6     84.73     55.21
  16  -5  -5    285.07     56.44
  16  -5  -4      7.04     28.42
  16  -5  -3     58.25     29.11
  16  -5  -2    216.51     42.00
  16  -5  -1   1089.94     68.89
  16  -4 -15    266.26     69.15
  16  -4 -14     29.53     65.67
  16  -4 -13     72.51     64.62
  16  -4 -12      0.00     63.83
  16  -4 -11    602.46     77.35
  16  -4 -10     77.62     47.09
  16  -4  -9   2305.03     92.56
  16  -4  -8    303.21     66.98
  16  -4  -7    780.84    130.62
  16  -4  -6   1522.05     80.34
  16  -4  -5   4079.34    433.36
  16  -4  -4   1400.00    238.34
  16  -4  -3    227.19     90.59
  16  -4  -2    266.47     25.46
  16  -4  -1   2467.02    109.20
  16  -3 -12    337.15     42.60
  16  -3 -11    191.51     42.28
  16  -3 -10   1899.52     80.44
  16  -3  -9      0.00     40.51
  16  -3  -8    116.43     60.73
  16  -3  -7    198.62     41.27
  16  -3  -6    711.45     88.20
  16  -3  -5   1976.53    108.71
  16  -3  -4   1218.94     69.74
  16  -3  -3    315.71     46.56
  16  -3  -2   1236.95     51.69
  16  -3  -1   4177.73    371.15
  16  -2 -10    108.42     47.31
  16  -2  -9   2192.84     61.92
  16  -2  -8    777.21     93.05
  16  -2  -7    335.63     47.82
  16  -2  -6      0.00     45.41
  16  -2  -5   2080.55    134.14
  16  -2  -4   8674.02    758.32
  16  -2  -3   1983.52     65.98
  16  -2  -2   4255.25    278.94
  16  -2  -1    841.79     68.00
  16  -1  -7    240.56     33.36
  16  -1  -6    170.04     35.23
  16  -1  -5     85.41     36.36
  16  -1  -4     68.83     36.46
  16  -1  -3   3531.25    231.66
  16  -1  -2     27.38     38.54
  16  -1  -1   6717.05     88.53
  16   0   0    196.95     41.86
  16   0   1      0.00     34.22
  16   0   2   2602.47    233.85
  16   0   3    805.45     43.46
  16   0   4    579.94     70.32
  16   0   5   1991.26    139.06
  16   0   6   1238.27     35.65
  16   0   7   2166.35    188.04
  16   0   8     10.63     33.11
  16   0   9    313.50     37.15
  16   0  10    224.64     39.42
  16   0  11    357.85    101.00
  16   0  12   1979.14     64.73
  16   0  13    269.63     55.52
  16   1   0    338.65     38.71
  16   1   1   1066.66     78.29
  16   1   2    351.74     33.31
  16   1   3   2839.14     72.43
  16   1   4   3422.18    132.91
  16   1   5    494.43     47.18
  16   1   6    236.29     71.09
  16   1   7    699.19     43.63
  16   1   8    180.21     45.72
  16   1   9    207.79     50.33
  16   1  10   1824.55     98.27
  16   1  11   1884.48     55.73
  16   1  12    813.22     46.45
  16   1  13    593.29     47.61
  16   2   1    282.62     36.40
  16   2   2    933.11     44.80
  16   2   3    625.32     35.53
  16   2   4   2799.24     75.97
  16   2   5   2100.53     74.03
  16   2   6   1396.33     75.62
  16   2   7   2527.86     87.65
  16   2   8   4050.70    103.43
  16   2   9   1803.85     94.11
  16   2  10    172.28     53.46
  16   2  11   3072.31    108.64
  16   2  12    979.86     64.36
  16   3   3    259.14     45.33
  16   3   4    504.37     55.29
  16   3   5   1102.39     64.79
  16   3   6   1197.29     74.22
  16   3   7     98.62     69.83
  16   3   8   1030.27     81.54
  16   3   9    756.36     86.03
  16   3  10    143.12     84.88
  16   3  11    583.32     58.94
  16   3  12    554.09     68.41
  16   4   5   1508.74     71.10
  16   4   6   3162.55     89.27
  16   4   7    489.24     70.79
  16   4   8   1034.38     83.07
  16   5   8    905.72     82.11
  17  -6  -9    102.49     68.51
  17  -6  -8    451.09    201.62
  17  -6  -7   2474.90    115.79
  17  -6  -6    217.56     63.15
  17  -6  -5    785.57    255.24
  17  -6  -4    577.22     76.04
  17  -6  -3    626.34    184.68
  17  -6  -2   1115.73     84.45
  17  -6  -1    127.77     65.51
  17  -5 -12    749.64     77.54
  17  -5 -11    134.63     70.05
  17  -5 -10     76.30     54.75
  17  -5  -9    432.31     70.57
  17  -5  -8   1369.41     73.53
  17  -5  -7    292.52     65.66
  17  -5  -6   1749.57    211.04
  17  -5  -5    331.94     74.67
  17  -5  -4     33.68     68.01
  17  -5  -3   1546.93    169.19
  17  -5  -2      0.00     90.27
  17  -5  -1   2008.91    176.74
  17  -4 -10    163.99     63.21
  17  -4  -9    286.73     49.04
  17  -4  -8   1300.60    198.51
  17  -4  -7   1136.59     94.74
  17  -4  -6     35.54     84.57
  17  -4  -5   1171.00    177.83
  17  -4  -4    410.83     52.77
  17  -4  -3      6.72     68.30
  17  -4  -2    687.22    113.02
  17  -4  -1    242.11     54.73
  17  -3  -8   1195.24     48.57
  17  -3  -7    610.42     44.20
  17  -3  -6   5182.52     98.58
  17  -3  -5    163.15     43.47
  17  -3  -4   5212.57    514.56
  17  -3  -3   4292.90    410.04
  17  -3  -2    623.09    146.67
  17  -3  -1   1146.83    138.41
  17  -2  -5   3199.16     71.41
  17  -2  -4    477.57     38.72
  17  -2  -3   1691.23    123.75
  17  -2  -2   2063.46    170.44
  17  -2  -1     58.21     56.53
  17  -1  -3    840.80     86.05
  17  -1  -1    810.51     52.85
  17   0   0     48.09     30.32
  17   0   1     45.96     34.24
  17   0   2    147.73     37.63
  17   0   3   5896.78    530.82
  17   0   4   1986.36    220.65
  17   0   5   5915.54    108.73
  17   0   6     50.68     50.06
  17   0   7      0.00     52.64
  17   0   8   3953.43    369.08
  17   0  10    374.77     68.41
  17   1   2   3329.52     74.53
  17   1   3    792.00     79.32
  17   1   4    573.70     65.23
  17   1   5    255.23     44.31
  17   1   6   1793.74    157.21
  17   1   7    557.64     80.62
  17   1   8     35.95     81.72
  17   1   9    352.39     88.27
  17   1  10    131.51     90.78
  17   2   5    505.19     42.03
  17   2   6    545.43     72.76
  17   2   7   1034.84     83.35
  17   2   8    220.89     79.68
  17   2   9    536.58     86.01
  17   2  10    515.34     89.35
  17   3   7    124.25     70.43
  17   3   8   1258.07     86.03
  17   3   9      0.00     81.39
  18  -5  -7    143.60     71.83
  18  -5  -6    134.17    114.97
  18  -5  -5    115.13     56.45
  18  -5  -4    298.45     90.90
  18  -5  -3    239.11     77.49
  18  -5  -2     56.85     59.62
  18  -5  -1    406.68     62.58
  18  -4  -6    583.52     79.81
  18  -4  -5    181.01     67.32
  18  -4  -4    341.50     80.29
  18  -4  -3      0.00     52.00
  18  -4  -2    364.09    126.66
  18  -4  -1    722.14    126.74
  18  -3  -3   1470.78    153.58
  18  -3  -2   1271.37     77.77
  18  -3  -1    257.80     51.00
  18  -2  -1   1917.02     81.20
  18   0   4   3524.36     83.34
  18   0   5     71.53     63.29
  18   0   6    229.53     68.90
  18   0   7    116.75     83.71
  18   0   8     22.13     87.79
}
}
REVERT
;
loop_
_symmetry_equiv_pos_as_xyz
'+x, +y, +z'
'-x, +y+1/2, -z'
loop_
_atom_site_label
_atom_site_fract_x
_atom_site_fract_y
_atom_site_fract_z
_atom_site_U_iso_or_equiv
_atom_site_adp_type
_atom_site_occupancy
_atom_site_disorder_group
O3 0.379877(17) 0.48351(13) 0.620710(12) 0.01022(4) Uani 1 0
O2 0.166278(19) -0.08686(13) 0.826656(11) 0.01093(4) Uani 1 0
O1 0.322273(18) 0.27723(13) 0.785854(11) 0.00972(4) Uani 1 0
O4 -0.000554(18) -0.35735(13) 0.720350(13) 0.01150(5) Uani 1 0
N2 0.579894(19) 0.81554(13) 0.754435(13) 0.00968(5) Uani 1 0
N1 0.88519(2) 1.35854(13) 0.916007(13) 0.00995(5) Uani 1 0
C1 0.31226(2) 0.30925(13) 0.668437(13) 0.00767(5) Uani 1 0
C5 0.78561(2) 1.18208(13) 0.863973(13) 0.00729(5) Uani 1 0
C6 0.74942(2) 1.16539(13) 0.733572(13) 0.00841(5) Uani 1 0
C4 0.09592(2) -0.18059(13) 0.724704(14) 0.00838(5) Uani 1 0
C2 0.21870(2) 0.13130(13) 0.581878(14) 0.00869(5) Uani 1 0
C8 0.61160(2) 0.82591(13) 0.878885(15) 0.00985(5) Uani 1 0
C3 0.13148(2) -0.07017(13) 0.604695(14) 0.00908(5) Uani 1 0
C9 0.71205(2) 1.00445(13) 0.936376(14) 0.00874(5) Uani 1 0
C7 0.64682(2) 0.98303(13) 0.682844(14) 0.00909(5) Uani 1 0
H1 0.2490(8) 0.0969(15) 0.8095(5) 0.01964977 Uani 1 0
H2 0.2250(6) 0.1778(8) 0.4837(4) 0.02354849 Uani 1 0
H6 0.8014(5) 1.2960(9) 0.6748(4) 0.02174089 Uani 1 0
H10 0.7343(6) 1.0085(8) 1.0376(4) 0.02232845 Uani 1 0
H3 0.0746(6) -0.1710(9) 0.5251(4) 0.0227843 Uani 1 0
H7 0.6137(5) 0.9629(8) 0.5825(3) 0.0202007 Uani 1 0
H9 0.5508(6) 0.6866(8) 0.9305(4) 0.02309 Uani 1 0
H4 0.9378(7) 1.4790(9) 0.8608(4) 0.0206427 Uani 1 0
H8 0.5021(6) 0.6771(9) 0.7113(5) 0.0189082 Uani 1 0
H5 0.8981(6) 1.3816(9) 1.0100(4) 0.0223951 Uani 1 0
loop_
_atom_site_aniso_label
_atom_site_aniso_U_11
_atom_site_aniso_U_22
_atom_site_aniso_U_33
_atom_site_aniso_U_23
_atom_site_aniso_U_13
_atom_site_aniso_U_12
O3 0.01147(5) 0.00857(4) 0.01036(4) -0.00003(3) 0.00013(3) -0.00304(3)
O2 0.01308(5) 0.01238(5) 0.00733(4) 0.00147(3) 0.00110(3) -0.00185(4)
O1 0.01147(5) 0.01014(5) 0.00726(4) -0.00112(3) -0.00022(3) -0.00098(3)
O4 0.01148(5) 0.01034(5) 0.01282(5) 0.00232(3) 0.00196(4) -0.00284(4)
N2 0.00819(4) 0.00882(5) 0.01171(4) -0.00194(4) -0.00033(3) -0.00117(4)
N1 0.01091(5) 0.01015(5) 0.00865(4) -0.00124(3) 0.00050(4) -0.00301(4)
C1 0.00809(5) 0.00723(5) 0.00750(4) -0.00034(3) 0.00000(3) -0.00075(4)
C5 0.00753(5) 0.00778(5) 0.00647(4) -0.00012(3) 0.00038(3) -0.00072(4)
C6 0.00922(5) 0.00925(5) 0.00671(4) -0.00009(4) 0.00062(4) -0.00084(4)
C4 0.00839(5) 0.00834(5) 0.00847(4) 0.00140(4) 0.00121(4) -0.00064(4)
C2 0.01049(5) 0.00859(5) 0.00676(4) 0.00022(3) 0.00001(4) -0.00274(4)
C8 0.00943(5) 0.00875(5) 0.01132(5) 0.00092(4) 0.00097(4) -0.00173(4)
C3 0.01067(6) 0.00905(5) 0.00734(4) 0.00026(4) 0.00019(4) -0.00299(4)
C9 0.00910(5) 0.00948(6) 0.00759(4) 0.00096(4) 0.00066(4) -0.00117(4)
C7 0.00876(5) 0.01018(5) 0.00802(5) -0.00185(4) -0.00045(4) -0.00004(4)
H1 0.021 0.0236 0.014 0.0005 0.0004 0.0021
H2 0.0342 0.0256 0.0112 0.0013 0.0041 -0.0106
H6 0.027 0.0211 0.0176 0.0053 0.0046 -0.0058
H10 0.0269 0.0306 0.0087 0.0016 -0.0015 -0.0032
H3 0.0293 0.0229 0.0155 -0.0049 -0.0004 -0.0112
H7 0.0239 0.0247 0.011 -0.0024 -0.0025 -0.0032
H9 0.0252 0.0213 0.0234 0.005 0.0055 -0.0081
H4 0.0258 0.0156 0.0208 0.0016 0.0038 -0.0083
H8 0.0165 0.0189 0.0209 -0.0043 0.0002 -0.0071
H5 0.0305 0.0245 0.0115 -0.0032 -0.0007 -0.0045
loop_
_atom_type_symbol
_atom_type_description
_atom_type_scat_dispersion_real
_atom_type_scat_dispersion_imag
_atom_type_scat_source
C C 0 0 'Hirshfeld partitioning of a quantum chemical wavefunction.'
H H 0 0 'Hirshfeld partitioning of a quantum chemical wavefunction.'
N N 0 0 'Hirshfeld partitioning of a quantum chemical wavefunction.'
O O 0 0 'Hirshfeld partitioning of a quantum chemical wavefunction.'
loop_
_geom_angle_atom_site_label_1
_geom_angle_atom_site_label_2
_geom_angle_atom_site_label_3
_geom_angle
_geom_angle_site_symmetry_1
_geom_angle_site_symmetry_2
_geom_angle_site_symmetry_3
_geom_angle_publ_flag
O3 C1 O1 122.838(15) . . . yes
O2 C4 O4 123.496(15) . . . yes
O3 C1 C2 116.638(13) . . . yes
O2 C4 C3 118.949(15) . . . yes
O1 C1 C2 120.516(14) . . . yes
O4 C4 C3 117.554(14) . . . yes
O2 H1 O1 175.7(5) . . . yes
N2 C8 C9 121.403(15) . . . yes
N2 C7 C6 121.320(14) . . . yes
N1 C5 C6 120.938(14) . . . yes
N1 C5 C9 121.545(13) . . . yes
N2 C8 H9 116.4(2) . . . yes
N2 C7 H7 116.1(2) . . . yes
C1 O1 H1 110.7(3) . . . yes
C4 O2 H1 112.5(3) . . . yes
C8 N2 C7 120.600(15) . . . yes
C5 N1 H4 119.0(3) . . . yes
C5 N1 H5 120.2(3) . . . yes
C8 N2 H8 120.6(3) . . . yes
C7 N2 H8 118.8(3) . . . yes
C1 C2 C3 130.658(14) . . . yes
C5 C6 C7 119.674(14) . . . yes
C5 C9 C8 119.482(14) . . . yes
C6 C5 C9 117.517(14) . . . yes
C4 C3 C2 130.339(15) . . . yes
C1 C2 H2 112.6(2) . . . yes
C5 C6 H6 120.3(2) . . . yes
C5 C9 H10 121.0(2) . . . yes
C6 C7 H7 122.6(2) . . . yes
C4 C3 H3 112.9(2) . . . yes
C2 C3 H3 116.8(2) . . . yes
C8 C9 H10 119.5(2) . . . yes
C3 C2 H2 116.7(2) . . . yes
C9 C8 H9 122.2(2) . . . yes
C7 C6 H6 120.0(2) . . . yes
H4 N1 H5 120.6(4) . . . yes
loop_
_geom_bond_atom_site_label_1
_geom_bond_atom_site_label_2
_geom_bond_distance
_geom_bond_site_symmetry_1
_geom_bond_site_symmetry_2
_geom_bond_publ_flag
O3 C1 1.2446(2) . . yes
O2 C4 1.2955(2) . . yes
O1 C1 1.28839(19) . . yes
O4 C4 1.2365(2) . . yes
O2 H1 1.234(9) . . yes
O1 H1 1.196(9) . . yes
N2 C8 1.3556(2) . . yes
N2 C7 1.3571(2) . . yes
N1 C5 1.3390(2) . . yes
N2 H8 1.058(5) . . yes
N1 H4 1.018(4) . . yes
N1 H5 1.028(4) . . yes
C1 C2 1.5008(2) . . yes
C5 C6 1.4240(2) . . yes
C5 C9 1.4251(2) . . yes
C6 C7 1.3708(2) . . yes
C4 C3 1.5008(2) . . yes
C2 C3 1.3481(2) . . yes
C8 C9 1.3734(2) . . yes
C6 H6 1.077(4) . . yes
C2 H2 1.109(4) . . yes
C8 H9 1.097(4) . . yes
C3 H3 1.087(4) . . yes
C9 H10 1.100(4) . . yes
C7 H7 1.104(4) . . yes
