#------------------------------------------------------------------------------
#$Date: 2020-10-06 12:20:44 +0300 (Tue, 06 Oct 2020) $
#$Revision: 257606 $
#$URL: file:///home/coder/svn-repositories/cod/cif/7/24/04/7240412.cif $
#------------------------------------------------------------------------------
#
# This file is available in the Crystallography Open Database (COD),
# http://www.crystallography.net/
#
# All data on this site have been placed in the public domain by the
# contributors.
#
data_7240412
loop_
_publ_author_name
'Charpe, Vaibhav Pramod'
'Sagadevan, Arunachalam'
'Hwang, Kuo Chu'
_publ_section_title
;
 Visible light-induced aerobic oxidation of diarylalkynes to \a-diketones
 catalyzed by copper-superoxo at room temperature
;
_journal_issue                   14
_journal_name_full               'Green Chemistry'
_journal_page_first              4426
_journal_page_last               4432
_journal_paper_doi               10.1039/D0GC00975J
_journal_volume                  22
_journal_year                    2020
_chemical_absolute_configuration rm
_chemical_formula_sum            'C14 H10 O2'
_chemical_formula_weight         210.22
_space_group_crystal_system      trigonal
_space_group_IT_number           154
_space_group_name_Hall           'P 32 2"'
_space_group_name_H-M_alt        'P 32 2 1'
_atom_sites_solution_hydrogens   geom
_audit_creation_method           SHELXL-2014/6
_audit_update_record
;
2018-07-30 deposited with the CCDC.	2020-04-27 downloaded from the CCDC.
;
_cell_angle_alpha                90
_cell_angle_beta                 90
_cell_angle_gamma                120
_cell_formula_units_Z            3
_cell_length_a                   8.3601(7)
_cell_length_b                   8.3601(7)
_cell_length_c                   13.3968(12)
_cell_measurement_reflns_used    7075
_cell_measurement_temperature    100(2)
_cell_measurement_theta_max      26.2697
_cell_measurement_theta_min      2.8134
_cell_volume                     810.88(12)
_computing_cell_refinement       'SAINT V8.34A (Bruker AXS Inc., 2013)'
_computing_data_collection       'Bruker APEX2'
_computing_data_reduction        'SAINT V8.34A (Bruker AXS Inc., 2013)'
_computing_molecular_graphics    'Bruker SHELXTL'
_computing_publication_material  'Bruker SHELXTL'
_computing_structure_refinement  'SHELXL-2014/6 (Sheldrick, 2014)'
_diffrn_ambient_temperature      100(2)
_diffrn_detector_area_resol_mean 8.3333
_diffrn_measured_fraction_theta_full 1.000
_diffrn_measured_fraction_theta_max 0.996
_diffrn_measurement_device_type  'Bruker APEX-II CCD'
_diffrn_measurement_method       '\f and \w scans'
_diffrn_radiation_type           MoK\a
_diffrn_radiation_wavelength     0.71073
_diffrn_reflns_av_R_equivalents  0.0333
_diffrn_reflns_av_unetI/netI     0.0261
_diffrn_reflns_Laue_measured_fraction_full 1.000
_diffrn_reflns_Laue_measured_fraction_max 0.996
_diffrn_reflns_limit_h_max       10
_diffrn_reflns_limit_h_min       -10
_diffrn_reflns_limit_k_max       10
_diffrn_reflns_limit_k_min       -10
_diffrn_reflns_limit_l_max       16
_diffrn_reflns_limit_l_min       -16
_diffrn_reflns_number            10682
_diffrn_reflns_point_group_measured_fraction_full 1.000
_diffrn_reflns_point_group_measured_fraction_max 0.997
_diffrn_reflns_theta_full        25.242
_diffrn_reflns_theta_max         26.509
_diffrn_reflns_theta_min         2.813
_exptl_absorpt_coefficient_mu    0.086
_exptl_absorpt_correction_T_max  0.9485
_exptl_absorpt_correction_T_min  0.7698
_exptl_absorpt_correction_type   multi-scan
_exptl_absorpt_process_details   'SADABS V2014/4 (Bruker AXS Inc.)'
_exptl_crystal_colour            colorless
_exptl_crystal_density_diffrn    1.291
_exptl_crystal_density_meas      ?
_exptl_crystal_density_method    'not measured'
_exptl_crystal_description       lump
_exptl_crystal_F_000             330
_exptl_crystal_size_max          0.18
_exptl_crystal_size_mid          0.16
_exptl_crystal_size_min          0.16
_refine_diff_density_max         0.144
_refine_diff_density_min         -0.131
_refine_diff_density_rms         0.026
_refine_ls_abs_structure_details
;
 Refined as an inversion twin.
;
_refine_ls_abs_structure_Flack   0(2)
_refine_ls_extinction_method     none
_refine_ls_goodness_of_fit_ref   1.105
_refine_ls_hydrogen_treatment    constr
_refine_ls_matrix_type           full
_refine_ls_number_parameters     74
_refine_ls_number_reflns         1127
_refine_ls_number_restraints     0
_refine_ls_restrained_S_all      1.105
_refine_ls_R_factor_all          0.0313
_refine_ls_R_factor_gt           0.0295
_refine_ls_shift/su_max          0.000
_refine_ls_shift/su_mean         0.000
_refine_ls_structure_factor_coef Fsqd
_refine_ls_weighting_details
'w=1/[\s^2^(Fo^2^)+(0.0281P)^2^+0.0979P] where P=(Fo^2^+2Fc^2^)/3'
_refine_ls_weighting_scheme      calc
_refine_ls_wR_factor_gt          0.0685
_refine_ls_wR_factor_ref         0.0695
_reflns_Friedel_coverage         0.665
_reflns_Friedel_fraction_full    1.000
_reflns_Friedel_fraction_max     1.000
_reflns_number_gt                1070
_reflns_number_total             1127
_reflns_threshold_expression     'I > 2\s(I)'
_cod_data_source_file            d0gc00975j2.cif
_cod_data_source_block           180116LT_0m_a
_cod_depositor_comments
;
The following automatic conversions were performed:

data item '_chemical_absolute_configuration' value 'RM' was changed
to 'rm' in accordance with the
/home/data/users/saulius/crontab/automatic-downloads/rss-feeds/RSC/lib/dictionaries/cif_core.dic
dictionary named 'cif_core.dic' version 2.4.2 last updated on
2011-04-26.

data item '_exptl_crystal_density_meas' value 'not measured' was
changed to '?' -- the value is perceived as not measured.

Automatic conversion script
Id: cif_fix_values 7556 2019-12-06 15:28:31Z antanas 

 Adding full bibliography for 7240411--7240415.cif.

 Adding full bibliography for 7240411--7240415.cif.
;
_cod_original_cell_volume        810.88(15)
_cod_database_code               7240412
_shelx_space_group_comment
;
The symmetry employed for this shelxl refinement is uniquely defined
by the following loop, which should always be used as a source of
symmetry information in preference to the above space-group names.
They are only intended as comments.
;
_shelxl_version_number           2014/6
_shelx_res_file
;
TITL 180116LT_0m_a.res in P3(2)21
CELL  0.71073   8.3601   8.3601  13.3968   90.000   90.000  120.000
ZERR    3.000   0.0007   0.0007   0.0012    0.000    0.000    0.000
LATT -1
SYMM -Y, X-Y, 2/3+Z
SYMM -X+Y, -X, 1/3+Z
SYMM Y, X, -Z
SYMM X-Y, -Y, 1/3-Z
SYMM -X, -X+Y, 2/3-Z
SFAC C  H  O
UNIT 42  30  6
L.S. 4
ACTA
BOND $H
TWIN
FMAP 2
PLAN 5
TEMP -173.000
WGHT    0.028100    0.097900
BASF  -0.27250
FVAR       1.04093
C1    1    0.234571    0.208482    0.245038    11.00000    0.02517    0.02585 =
         0.04116    0.00667    0.00655    0.00959
C2    1    0.182640    0.296374    0.174870    11.00000    0.03076    0.03563 =
         0.04460    0.01014    0.00849    0.01594
AFIX  43
H2    2    0.147229    0.246317    0.109642    11.00000   -1.20000
AFIX   0
C3    1    0.182532    0.457050    0.200089    11.00000    0.04785    0.04079 =
         0.05977    0.01833    0.01610    0.02809
AFIX  43
H3    2    0.145815    0.516669    0.152476    11.00000   -1.20000
AFIX   0
C4    1    0.236076    0.530293    0.294832    11.00000    0.05640    0.03456 =
         0.06906    0.00894    0.02422    0.02580
AFIX  43
H4    2    0.236685    0.640882    0.311922    11.00000   -1.20000
AFIX   0
C5    1    0.288776    0.444061    0.364982    11.00000    0.05060    0.03437 =
         0.05188   -0.00047    0.01075    0.01630
AFIX  43
H5    2    0.325491    0.495542    0.429848    11.00000   -1.20000
AFIX   0
C6    1    0.287983    0.283115    0.340667    11.00000    0.03695    0.03132 =
         0.04298    0.00477    0.00428    0.01255
AFIX  43
H6    2    0.323626    0.223398    0.388794    11.00000   -1.20000
AFIX   0
C7    1    0.230519    0.034438    0.221006    11.00000    0.03049    0.02599 =
         0.04289    0.00514    0.00136    0.01072
O1    3    0.262260   -0.055263    0.281114    11.00000    0.06288    0.03552 =
         0.05146    0.00342   -0.00983    0.02737
HKLF 4

REM  180116LT_0m_a.res in P3(2)21
REM R1 =  0.0295 for    1070 Fo > 4sig(Fo)  and  0.0313 for all    1127 data
REM     74 parameters refined using      0 restraints

END

WGHT      0.0281      0.0979

REM Highest difference peak  0.144,  deepest hole -0.131,  1-sigma level  0.026
Q1    1   0.1774  0.0000  0.1667  10.50000  0.05    0.14
Q2    1   0.2683  0.1438  0.2290  11.00000  0.05    0.13
Q3    1   0.3127  0.2685  0.2833  11.00000  0.05    0.10
Q4    1   0.3521  0.3918  0.3470  11.00000  0.05    0.09
Q5    1   0.2540  0.5292  0.2382  11.00000  0.05    0.09
;
_shelx_res_checksum              60533
_shelx_hkl_file
;
   1   0   0  551.53   19.58
   1   0   0  535.79   18.79
   1   0   0  545.88   18.46
   0  -1   0  571.18   18.66
   0  -1   0  509.33   18.79
   0  -1   0  519.65   19.47
   0  -1   0  518.24   18.43
  -1   1   0  525.95   18.42
  -1   1   0  516.42   18.66
   1   0   0  620.39   20.69
  -1   1   0  519.69   18.50
  -1   1   0  520.37   18.87
  -1   1   0  553.18   19.88
   0   1   0  521.93   18.67
   0   1   0  548.95   18.97
   0   1   0  510.78   19.06
   1  -1   0  542.52   18.75
   0   1   0  559.26   18.76
   1  -1   0  530.70   19.26
   1  -1   0  535.92   18.62
  -1   0   0  564.00   20.01
  -1   0   0  533.56   19.13
  -1   0   0  524.44   18.83
  -1   0   0  531.57   18.50
   1  -1   0  497.27   18.51
   0   1   0  510.20   18.44
   1  -1   0  542.57   19.36
   1  -2   0 1204.95   43.68
   1  -2   0 1265.35   42.97
   1  -2   0 1264.80   42.89
   1   1   0 1160.14   43.51
   1   1   0 1275.25   44.37
   1   1   0 1284.00   43.02
   1   1   0 1250.02   42.38
  -2   1   0 1195.35   43.36
  -2   1   0 1262.97   43.20
   1   1   0 1212.63   43.30
  -2   1   0 1283.64   44.94
   2  -1   0 1301.67   42.88
  -1   2   0 1332.92   45.72
   2  -1   0 1276.85   43.25
  -1  -1   0 1263.88   44.39
  -1  -1   0 1278.17   44.35
  -1  -1   0 1200.24   42.61
  -1   2   0 1277.24   43.30
  -1   2   0 1157.72   43.33
   0  -2   0 4615.27  153.17
  -2   2   0 4510.06  155.59
   2   0   0 5086.11  157.87
   2   0   0 4645.85  154.15
   2   0   0 4481.00  151.52
  -2   2   0 4395.40  151.46
  -2   2   0 4478.82  153.48
   0   2   0 4376.46  153.11
  -2   0   0 4567.36  151.60
   0   2   0 4368.60  153.94
   0   2   0 4514.67  153.54
  -2   0   0 4479.86  154.80
  -2   0   0 4512.15  154.27
   2  -2   0 4438.59  151.09
   2  -2   0 4573.01  154.13
   2  -2   0 4380.85  151.47
   2  -3   0  111.15    4.48
   2  -3   0  107.88    4.08
   1   2   0  104.28    4.50
  -3   1   0  104.07    4.73
  -3   1   0  102.83    4.70
  -3   1   0  107.28    4.22
   2  -3   0  109.68    4.05
   1   2   0  109.47    4.67
   1   2   0  106.56    4.11
  -2   3   0  106.98    4.10
  -2   3   0  105.12    4.75
  -2   3   0  105.07    4.16
  -1  -2   0  107.95    4.43
   3  -1   0  102.81    4.22
  -1  -2   0  108.39    4.46
  -1  -2   0  104.24    4.33
   2   1   0  105.95    4.61
  -3   2   0   99.99    4.22
  -3   2   0  103.43    4.79
  -3   2   0  103.15    4.59
   1  -3   0  105.43    4.42
   1  -3   0  105.26    4.56
   1  -3   0  108.36    4.07
   2   1   0  116.55    4.92
   2   1   0  110.49    4.21
  -1   3   0  107.18    4.47
   3  -2   0  107.65    4.16
   3  -2   0  108.75    4.57
   3  -2   0  108.79    4.30
  -2  -1   0  112.04    4.17
  -1   3   0  106.08    4.72
  -1   3   0  107.66    4.11
  -2  -1   0  110.16    4.70
  -2  -1   0  108.53    4.59
   0  -3   0   31.98    1.93
   0  -3   0   30.04    1.45
  -3   3   0   31.16    2.18
   3   0   0   28.85    1.66
  -3   3   0   29.42    1.61
  -3   3   0   29.33    1.68
   0  -3   0   32.15    1.89
   3   0   0   25.39    2.34
  -3   3   0   30.95    1.79
   0   3   0   29.32    1.42
   0   3   0   31.88    2.08
   0   3   0   30.37    1.59
   3  -3   0   29.82    1.60
  -3   0   0   30.77    1.66
  -3   0   0   32.23    2.21
   0   3   0   30.14    1.89
  -3   0   0   29.81    2.03
   3  -3   0   28.90    1.91
   1   3   0  145.96    5.56
   3  -4   0  147.48    6.09
   1   3   0  145.83    6.30
  -4   1   0  147.04    6.44
   3  -4   0  144.92    5.53
  -4   1   0  144.40    5.69
  -4   1   0  146.51    6.47
  -1  -3   0  142.14    5.70
   4  -1   0  137.08    5.72
  -3   4   0  145.89    5.58
  -1  -3   0  138.49    5.95
   4  -1   0  140.88    7.31
  -3   4   0  143.84    6.49
  -3   4   0  136.16    5.61
  -1  -3   0  144.52    5.99
  -4   2   0  413.64   16.17
  -4   2   0  438.50   16.07
   2   2   0  436.02   16.16
   2  -4   0  437.37   15.71
  -4   2   0  468.01   15.47
   2   2   0  454.73   15.33
   2  -4   0  441.04   15.16
  -2   4   0  427.09   15.19
  -2   4   0  452.69   16.23
   4  -2   0  438.34   15.45
  -2  -2   0  445.19   15.79
  -2  -2   0  423.59   15.74
   1  -4   0  129.63    5.31
   3   1   0  144.91    6.58
   1  -4   0  141.57    5.84
   1  -4   0  143.96    6.07
   3   1   0  149.23    5.63
  -4   3   0  138.87    6.38
  -4   3   0  141.93    5.64
  -4   3   0  142.44    6.03
   4  -3   0  136.75    5.45
  -1   4   0  137.94    5.39
   4  -3   0  142.18    6.04
  -3  -1   0  142.62    6.09
  -3  -1   0  138.30    6.19
  -3  -1   0  141.05    5.48
  -1   4   0  137.79    6.25
  -4   4   0 2076.80   71.02
   0  -4   0 2040.20   71.17
  -4   4   0 2159.19   73.45
   4   0   0 2106.78   69.88
   0  -4   0 2083.01   75.51
  -4   4   0 2021.52   69.66
   4   0   0 2308.91   72.09
  -4   0   0 2112.33   70.66
  -4   0   0 2103.98   78.14
  -4   0   0 2017.28   70.71
   0   4   0 2077.52   71.15
   4  -4   0 2178.92   70.74
   0   4   0 2039.84   70.40
   4  -4   0 2114.44   73.81
   0   4   0 2043.44   72.12
  -5   1   0  103.06    5.36
   1   4   0  103.64    4.42
   4  -5   0  101.59    4.99
  -5   1   0   98.02    4.51
  -5   1   0   99.87    5.34
   1   4   0  104.25    5.27
   4  -5   0  104.45    4.39
  -4   5   0   95.41    4.46
  -4   5   0   97.40    5.41
  -1  -4   0  102.74    4.87
  -1  -4   0   99.37    4.40
  -1  -4   0  108.76    4.98
   5  -1   0  120.24    6.87
  -4   5   0   97.68    4.39
  -5   2   0    5.33    1.30
  -5   2   0    3.75    1.07
  -5   2   0    4.71    0.86
   3  -5   0    5.21    0.59
   3  -5   0    3.97    0.96
   2   3   0    4.46    0.81
   2   3   0    5.69    1.36
   3  -5   0    5.16    0.81
  -3   5   0    5.00    1.21
  -2  -3   0    5.56    1.09
  -3   5   0    4.72    0.85
   5  -2   0    5.40    1.92
  -2  -3   0    4.37    0.98
  -5   3   0    3.45    1.12
   2  -5   0    4.52    1.05
   2  -5   0    5.30    1.06
   2  -5   0    4.94    0.78
   3   2   0    5.88    1.37
  -5   3   0    5.37    0.99
   3   2   0    5.88    0.96
  -5   3   0    3.99    1.07
   5  -3   0    4.15    0.76
   5  -3   0    4.01    0.99
  -3  -2   0    5.39    1.23
  -2   5   0    5.01    1.22
  -3  -2   0    4.78    1.06
   5  -3   0    4.83    1.74
  -3  -2   0    5.89    0.87
  -2   5   0    5.88    0.87
  -5   4   0   97.99    4.82
   1  -5   0  100.83    4.98
  -5   4   0   95.88    5.39
   1  -5   0  100.58    4.80
   4   1   0  103.02    5.83
   4   1   0  101.88    4.53
  -5   4   0  100.94    4.54
   5  -4   0  103.81    5.06
   5  -4   0  101.33    4.39
  -4  -1   0   99.54    5.23
  -4  -1   0  104.98    5.14
  -4  -1   0   98.88    4.36
  -1   5   0   97.69    5.21
  -1   5   0  103.34    4.33
   5   0   0   20.19    3.31
   0  -5   0   24.56    2.11
   5   0   0   23.45    1.88
  -5   5   0   24.98    1.89
   0  -5   0   26.01    2.07
  -5   5   0   27.58    2.65
   0  -5   0   27.22    1.69
   0   5   0   27.80    2.46
   5  -5   0   23.60    1.72
  -5   0   0   29.25    2.63
  -5   0   0   26.19    2.41
  -5   0   0   24.91    1.02
   0   5   0   25.71    1.75
  -5   0   0   25.84    1.84
   5  -5   0   26.66    2.27
   0   5   0   24.62    1.41
  -6   1   0   30.82    2.13
  -6   1   0   25.14    2.60
   1   5   0   27.38    1.97
   5  -6   0   27.51    1.95
   1   5   0   28.01    2.66
   5  -6   0   26.46    2.41
  -6   1   0   27.70    2.81
  -1  -5   0   24.55    1.76
  -5   6   0   29.43    2.91
  -1  -5   0   29.47    2.35
  -5   6   0   26.50    2.06
  -1  -5   0   28.64    2.38
   6  -1   0   28.57    4.47
  -6   2   0   18.78    2.32
   2   4   0   21.71    2.35
  -6   2   0   22.47    2.39
  -6   2   0   20.56    1.77
   2   4   0   21.13    1.66
   4  -6   0   20.57    2.04
   4  -6   0   20.86    1.60
  -2  -4   0   20.53    1.92
   6  -2   0   19.63    3.78
  -4   6   0   22.10    2.43
  -4   6   0   22.26    1.86
  -2  -4   0   20.21    1.53
  -2  -4   0   20.64    1.85
   3  -6   0   95.33    5.24
   3  -6   0   93.83    4.20
   3  -6   0   99.76    4.90
   3   3   0   94.17    5.44
   3   3   0   94.15    4.38
  -6   3   0   96.84    5.49
  -6   3   0   99.02    5.30
  -6   3   0   93.36    4.49
  -3   6   0   88.65    4.23
  -3  -3   0   94.65    4.91
   6  -3   0   93.87    4.38
  -3  -3   0   94.92    4.91
  -3   6   0   91.59    5.33
   2  -6   0   19.90    2.12
   4   2   0   21.94    2.59
  -6   4   0   20.72    2.11
   4   2   0   21.41    1.76
  -6   4   0   19.42    2.76
   2  -6   0   18.74    1.85
  -6   4   0   20.48    1.76
  -4  -2   0   20.81    1.60
  -2   6   0   19.08    1.55
  -4  -2   0   19.95    2.16
  -4  -2   0   17.87    1.93
  -2   6   0   19.85    2.26
   6  -4   0   19.74    1.62
   6  -4   0   21.33    2.09
  -6   5   0   28.89    2.16
   5   1   0   26.44    2.09
   1  -6   0   26.76    2.42
   1  -6   0   26.60    2.26
  -6   5   0   29.64    2.95
   5   1   0   27.51    3.35
   1  -6   0   25.50    1.78
  -5  -1   0   27.19    1.96
  -1   6   0   25.68    2.60
  -5  -1   0   27.53    2.55
   6  -5   0   30.91    2.61
  -1   6   0   26.57    1.91
   6  -5   0   30.32    2.07
  -5  -1   0   27.83    2.73
  -6   6   0    3.02    1.27
  -6   6   0    2.16    0.79
   6   0   0    3.60    1.77
   0  -6   0    1.45    0.71
   0  -6   0    2.47    0.92
  -6   0   0    2.11    1.05
  -6   0   0    2.83    1.36
   6  -6   0    2.90    1.05
  -6   0   0    2.29    0.75
   0   6   0    2.78    1.14
   6  -6   0    3.06    0.80
  -7   1   0   20.21    3.14
   6  -7   0   21.68    2.39
   6  -7   0   19.91    2.27
   1   6   0   16.21    2.58
  -7   1   0   18.87    2.94
   7  -1   0   12.28    3.25
  -6   7   0   18.54    2.95
  -1  -6   0   18.95    2.15
   5  -7   0    8.93    1.35
   5  -7   0    8.36    1.71
   2   5   0    8.81    2.00
  -7   2   0    7.51    1.31
  -7   2   0    5.78    1.77
  -7   2   0   10.42    2.22
   7  -2   0   10.38    3.21
  -5   7   0    7.64    1.94
   4  -7   0   22.89    2.27
   4  -7   0   22.52    1.79
   4  -7   0   23.42    2.61
   3   4   0   23.80    2.73
  -7   3   0   20.84    2.45
  -7   3   0   23.95    2.73
  -7   3   0   22.57    2.01
  -3  -4   0   23.52    2.22
  -3  -4   0   22.64    2.22
  -4   7   0   22.66    2.70
   3  -7   0   24.61    2.30
  -7   4   0   24.35    2.08
   3  -7   0   29.79    2.65
   4   3   0   24.16    3.54
  -7   4   0   17.80    2.28
  -7   4   0   22.98    2.75
  -3   7   0   26.18    2.83
  -4  -3   0   24.53    2.50
   7  -4   0   14.05    3.72
   7  -4   0   21.32    2.34
   7  -4   0   26.58    2.02
  -4  -3   0   23.47    2.32
  -7   5   0    7.81    1.94
   2  -7   0    8.02    1.65
  -7   5   0    8.40    1.46
   5   2   0   10.11    2.49
   2  -7   0    7.91    1.60
   7  -5   0    7.72    1.33
  -5  -2   0    8.21    1.85
  -5  -2   0    7.61    1.73
  -2   7   0    6.91    1.74
   7  -5   0    9.47    1.94
  -7   6   0   17.76    2.94
   6   1   0   16.15    3.34
  -7   6   0   20.05    2.32
   1  -7   0   22.28    2.35
  -6  -1   0   21.78    3.19
   7  -6   0   21.90    2.28
  -6  -1   0   19.14    2.75
  -1   7   0   20.84    2.55
   7  -6   0   18.60    2.29
  -7   7   0   57.23    3.57
   7   0   0   45.24    5.46
  -7   7   0   58.49    4.80
   0  -7   0   58.29    3.95
  -7   0   0   56.50    4.47
  -7   0   0   50.21    4.13
   0   7   0   56.95    4.45
   7  -7   0   54.82    4.10
  -8   1   0   59.78    4.77
   1   7   0   51.55    4.42
   7  -8   0   56.68    4.27
  -1  -7   0   52.81    4.05
  -7   8   0   56.40    4.92
   6  -8   0   78.67    5.08
  -8   2   0   78.36    5.49
   2   6   0   70.74    5.32
  -8   2   0   83.35    5.56
  -6   8   0   76.18    5.64
  -8   3   0   11.52    2.42
   3   5   0   12.43    2.61
   5  -8   0   16.51    2.87
  -8   3   0   10.55    2.29
  -5   8   0   11.89    2.47
   8  -3   0    3.06    2.54
   4   4   0   22.16    3.50
   4  -8   0   33.92    3.00
  -8   4   0   26.96    2.36
  -8   4   0   29.14    3.29
   8  -4   0   28.58    3.02
  -4   8   0   24.84    3.06
   8  -4   0   27.15    2.31
   5   3   0   13.47    2.95
  -8   5   0   13.22    1.91
  -8   5   0   10.69    2.38
  -3   8   0   11.72    2.43
  -5  -3   0   13.17    2.33
   8  -5   0   12.17    1.79
   8  -5   0   12.05    2.31
  -8   6   0   82.21    5.91
  -8   6   0   76.85    4.54
   2  -8   0   81.79    5.27
   8  -6   0   83.21    4.43
   8  -6   0   77.58    5.23
  -2   8   0   80.98    5.56
  -6  -2   0   81.62    5.37
   1  -8   0   56.98    4.27
  -8   7   0   51.67    4.73
  -8   7   0   55.36    3.66
   7   1   0   35.24    5.54
   8  -7   0   58.14    4.34
  -7  -1   0   54.46    4.49
  -1   8   0   54.56    4.56
   8   0   0   21.05    4.85
  -8   8   0   34.06    4.02
   0  -8   0   45.16    3.63
   8  -8   0   30.51    3.59
   0   8   0   36.63    3.79
   1   8   0   36.18    3.88
   9  -1   0   15.08    4.96
  -8   9   0   32.88    4.84
   2   7   0    0.37    1.06
  -7   9   0    2.98    1.71
   9  -2   0    0.90    2.31
  -9   3   0   29.78    3.55
   3   6   0   26.59    3.90
  -6   9   0   33.96    3.88
  -9   4   0    2.45    1.59
   4   5   0    2.38    1.62
  -5   9   0    3.13    1.56
   9  -4   0    0.37    2.00
   9  -4   0    3.44    1.56
   9  -4   0    1.71    1.00
   4  -9   0    1.78    1.34
  -9   5   0    1.49    1.31
   5   4   0    5.02    2.05
   9  -5   0    2.22    1.23
   9  -5   0    3.81    1.19
  -4   9   0    2.35    1.60
   6   3   0   28.01    4.72
   3  -9   0   41.14    3.93
  -9   6   0   32.35    3.91
   9  -6   0   34.01    3.53
  -3   9   0   34.36    3.85
   7   2   0    3.00    2.11
  -9   7   0    1.58    0.95
  -9   7   0    1.71    1.38
  -2   9   0    1.56    1.35
   9  -7   0    2.20    1.23
   8   1   0   21.60    5.27
   1  -9   0   35.36    3.55
  -9   8   0   31.55    2.94
  -9   8   0   31.02    4.80
  -1   9   0   36.43    4.06
  -9   9   0   -0.31    1.39
   9   0   0    1.66    2.31
   0   9   0    0.38    1.29
   3   7   0   31.38    4.58
   7 -10   0   50.01    4.62
  10  -3   0   13.04    4.95
  -7  10   0   33.24    4.92
   4   6   0    6.91    2.49
  10  -4   0    8.91    2.57
  10  -4   0   10.88    2.36
  -6  10   0   10.58    2.92
  10  -4   0    2.19    2.75
   5 -10   0   10.47    3.01
   5   5   0   14.06    3.32
 -10   5   0   14.47    3.24
  -5  10   0   14.96    3.25
  10  -5   0   18.02    3.30
   6   4   0    5.25    2.41
 -10   6   0    9.21    2.69
  -4  10   0    8.83    2.57
  10  -6   0   12.28    2.65
 -10   7   0   37.73    4.51
   3 -10   0   41.51    4.47
   7   3   0   21.65    4.75
  -3  10   0   38.74    4.36
  10  -7   0   37.53    4.00
   0   0  -1    0.02    0.04
   0   0  -1    0.01    0.03
   0   0  -1    0.00    0.04
   0   0  -1    0.00    0.02
   0   0   1    0.00    0.02
   0   0   1    0.02    0.03
   0   0   1    0.01    0.05
   0   0   1    0.03    0.02
   1  -1  -1  103.99    3.74
  -1   0  -1  102.82    3.94
   0   1  -1   99.85    3.38
  -1   0  -1   94.71    3.81
   1  -1  -1  102.23    3.58
   0   1  -1   97.51    3.50
   0   1  -1  101.17    3.38
  -1   0  -1  101.24    3.60
   0   1  -1  100.66    3.47
  -1   0  -1   99.36    3.82
   1  -1  -1   99.10    3.87
   1  -1  -1   96.57    3.53
   0   1  -1   94.53    3.81
   1   0   1   98.28    3.81
   0  -1   1  101.03    3.84
   0  -1   1  100.47    3.33
  -1   1   1   96.38    3.52
   1   0   1  103.77    3.60
  -1   1   1   95.56    3.84
   0  -1   1  101.99    3.33
   0  -1   1  100.91    3.41
  -1   1   1   97.07    3.71
  -1   1  -1   84.41    3.03
  -1   1  -1   81.81    2.98
   0  -1  -1   87.26    3.40
  -1   1  -1   78.40    3.13
   1   0  -1   85.00    2.88
   1   0  -1   86.73    3.00
  -1   1  -1   83.82    3.24
   0  -1  -1   80.57    3.24
   0  -1  -1   78.17    2.95
  -1   1  -1   81.31    3.17
   0  -1  -1   80.60    3.12
   0  -1  -1   83.46    3.06
  -1   1  -1   78.81    3.55
   1   0  -1   81.25    3.16
  -1   0   1   85.77    2.89
   1  -1   1   83.78    3.02
   0   1   1   81.13    3.25
   0   1   1   78.99    3.12
   0   1   1   84.85    3.06
   1  -1   1   84.13    3.22
   0   1   1   82.57    3.37
   1  -1   1   80.85    3.17
  -1   0   1   83.95    3.15
   1  -1   1   78.64    3.11
  -1   2  -1 1538.49   52.82
   2  -1  -1 1581.26   54.22
   2  -1  -1 1635.93   53.82
  -1   2  -1 1599.38   54.38
  -1   2  -1 1617.38   53.67
  -1  -1  -1 1532.13   55.57
  -1  -1  -1 1575.93   53.25
  -1  -1  -1 1573.43   55.68
  -1   2  -1 1552.87   53.13
  -1   2  -1 1578.84   55.07
   1  -2   1 1498.24   52.88
   1   1   1 1572.14   57.39
   1   1   1 1548.86   52.94
  -2   1   1 1603.25   56.04
   1  -2   1 1547.03   54.22
   1   1   1 1613.64   54.09
   1   1   1 1563.89   54.98
   1   1   1 1630.75   52.23
  -2   1   1 1523.13   52.65
   1  -2   1 1545.41   56.34
   1  -2   1 1559.82   53.00
   1   1   1 1590.86   55.60
  -2  -1  -1  870.34   29.24
   3  -2  -1  953.89   31.36
  -1   3  -1  879.58   29.63
   3  -2  -1  849.77   29.29
   3  -2  -1  873.89   29.64
  -1   3  -1  878.06   29.40
  -2  -1  -1  849.95   29.75
  -2  -1  -1  881.65   29.80
   3  -2  -1  858.71   29.14
  -1   3  -1  883.79   31.10
   1  -3   1  831.51   29.75
   2   1   1  912.81   30.18
   2   1   1  881.37   29.27
  -3   2   1  844.06   29.93
   1  -3   1  795.56   28.92
   1  -3   1  873.26   29.30
  -3   2   1  884.63   29.25
  -2   0  -1 2633.15   93.95
   0   2  -1 2691.08   89.60
  -2   0  -1 2712.14   93.29
   0   2  -1 2557.78   89.52
   2  -2  -1 2696.01   90.91
   0   2  -1 2712.62   91.85
   2  -2  -1 2718.82   93.09
   0   2  -1 2685.30   91.10
  -2   0  -1 2601.06   90.77
   2  -2  -1 2710.59   90.53
   2  -2  -1 2585.27   91.12
   0  -2   1 2676.24   89.27
   0  -2   1 2679.28   93.51
   2   0   1 2637.07   90.04
   2   0   1 2935.12   94.45
  -2   2   1 2614.09   90.51
  -2   2   1 2599.05   94.17
  -2   2   1 2646.78   90.81
   1  -2  -1 1596.85   55.81
   1  -2  -1 1605.73   53.15
   1   1  -1 1516.22   54.39
  -2   1  -1 1551.15   53.22
   1   1  -1 1597.14   52.81
   1   1  -1 1579.57   54.18
  -2   1  -1 1573.89   55.21
   1   1  -1 1525.76   54.09
  -2   1  -1 1471.81   55.14
  -1   2   1 1477.68   53.97
  -1  -1   1 1626.37   56.01
   2  -1   1 1536.04   53.64
  -1  -1   1 1616.55   52.63
  -1   2   1 1572.24   53.56
  -2   2  -1 9999.00  302.10
   0  -2  -1 7640.71  293.42
  -2   3  -1 1187.11   41.45
   3  -1  -1 1403.62   43.11
  -2   3  -1 1208.15   42.02
  -1  -2  -1 1205.01   41.40
  -1  -2  -1 1196.33   42.85
  -1  -2  -1 1319.45   42.56
  -2   3  -1 1205.80   46.55
   3  -1  -1 1297.44   42.07
  -2   3  -1 1240.10   42.20
  -2   3  -1 1186.75   41.74
   1   2   1 1238.91   41.85
   2  -3   1 1227.44   42.31
  -3   1   1 1248.03   41.17
  -3   1   1 1232.92   43.37
   2  -3   1 1267.06   42.86
   1   2   1 1228.66   43.81
  -3   1   1 1201.46   44.65
   1   2   1 1192.98   41.65
   2  -3   1 1208.88   43.52
   4  -2  -1  379.19   13.63
  -2  -2  -1  370.55   14.10
  -2   4  -1  381.18   14.21
  -2  -2  -1  409.25   13.54
  -2  -2  -1  373.20   13.98
  -2   4  -1  381.39   13.31
   2  -4   1  391.72   13.76
   2   2   1  386.81   14.51
   2  -4   1  370.57   14.25
   2   2   1  389.04   13.54
   2   2   1  373.97   12.69
  -4   2   1  390.90   13.57
  -4   2   1  377.41   14.18
  -4   2   1  394.92   14.44
  -3  -2  -1  104.60    5.13
  -3  -2  -1  106.45    5.13
   5  -3  -1   99.79    4.38
   5  -3  -1  103.62    5.05
  -2   5  -1   96.40    4.21
  -2   5  -1  101.57    5.18
  -3  -2  -1  104.99    4.42
  -5   3   1  100.67    5.37
   3   2   1  103.29    5.58
   2  -5   1  103.27    5.20
  -5   3   1   97.70    4.47
   2  -5   1  100.72    4.64
   3   2   1  103.68    4.51
  -3  -1  -1   15.15    1.56
  -3  -1  -1   15.26    1.23
   4  -3  -1   16.53    1.22
  -1   4  -1   18.13    1.65
  -3  -1  -1   16.34    1.73
   4  -3  -1   17.40    1.58
  -1   4  -1   15.58    1.09
  -1   4  -1   17.62    1.44
  -4   3   1   15.96    1.74
   1  -4   1   17.71    1.37
   3   1   1   16.27    1.29
   1  -4   1   17.36    1.64
   3   1   1   16.13    1.89
   1  -4   1   19.00    1.13
  -4   3   1   16.03    1.28
   0   3  -1   88.93    3.45
   0   3  -1   83.98    3.77
  -3   0  -1   83.51    4.23
   0   3  -1   82.66    3.33
  -3   0  -1   88.14    3.67
   3  -3  -1   88.36    4.04
  -3   0  -1   85.75    4.19
   3  -3  -1   88.15    3.59
   0   3  -1   85.30    3.96
  -3   3   1   87.64    3.67
   0  -3   1   88.76    3.68
   0  -3   1   90.66    3.37
   0  -3   1   87.56    4.08
  -3   3   1   86.85    3.57
  -3   3   1   85.42    4.29
   3   0   1   90.40    3.73
   2  -3  -1  877.51   29.48
  -3   1  -1  865.23   30.10
   1   2  -1  884.77   29.23
   1   2  -1  872.01   29.75
   2  -3  -1  881.84   29.35
  -3   1  -1  874.72   29.48
   2  -3  -1  854.00   29.80
   1   2  -1  901.43   29.66
  -3   1  -1  882.66   30.12
   3  -1   1  884.15   29.51
  -1  -2   1  872.22   29.90
  -1  -2   1  843.04   29.45
  -2   3   1  846.45   29.33
   3  -1   1 1002.73   31.29
  -2   3   1  838.68   30.16
  -1  -2   1  845.72   29.53
   1  -3  -1 1216.62   41.31
  -3   2  -1 1197.56   43.06
  -3   2  -1 1221.49   41.61
   2   1  -1 1296.19   41.90
   2   1  -1 1245.49   42.57
   1  -3  -1 1231.22   41.23
   1  -3  -1 1163.10   42.14
   2   1  -1 1184.30   42.93
  -3   2  -1 1155.66   43.44
   3  -2   1 1174.56   40.56
  -1   3   1 1182.29   41.19
  -2  -1   1 1248.63   43.54
  -2  -1   1 1239.64   42.64
   3  -2   1 1174.88   40.71
   3  -2   1 1421.30   42.95
  -1   3   1 1186.20   43.23
  -3   3  -1    3.13    0.59
   0  -3  -1    3.25    0.59
  -3   3  -1    3.33    0.88
   0  -3  -1    2.78    0.73
   3   0  -1    2.74    0.56
  -3   3  -1    2.10    0.52
   0  -3  -1    2.00    0.56
   3   0  -1    5.20    1.27
  -3   3  -1    2.27    0.67
   0  -3  -1    3.31    0.59
  -3   0   1    2.92    0.85
   0   3   1    1.59    0.69
  -3   0   1    2.63    0.30
   0   3   1    3.10    0.55
   3  -3   1    2.68    0.54
  -3   0   1    2.91    0.76
   0   3   1    2.83    0.57
  -3   0   1    2.73    0.54
   3  -3   1    2.03    0.61
  -1  -3  -1   42.39    2.17
  -3   4  -1   41.77    2.77
  -1  -3  -1   39.59    2.54
   4  -1  -1   39.97    2.23
   4  -1  -1   43.91    3.52
  -3   4  -1   40.90    2.18
  -1  -3  -1   40.06    2.33
  -1  -3  -1   43.16    2.34
  -3   4  -1   40.57    2.07
  -3   4  -1   42.84    2.13
   1   3   1   42.72    2.20
   3  -4   1   41.53    2.45
   3  -4   1   42.35    2.08
   1   3   1   40.36    2.76
  -4   1   1   43.03    2.76
  -4   1   1   41.70    2.20
  -4   1   1   42.43    2.81
  -2  -3  -1    7.53    1.02
   5  -2  -1    7.17    1.10
  -3   5  -1    9.89    1.72
   5  -2  -1    6.52    2.12
  -2  -3  -1    8.15    1.41
  -3   5  -1    6.44    0.90
  -2  -3  -1    9.38    1.45
   2   3   1    7.70    0.49
  -5   2   1    9.77    1.70
  -5   2   1    7.12    1.45
   3  -5   1    8.39    1.28
  -5   2   1    7.22    1.04
   2   3   1    7.85    1.58
   3  -5   1    7.29    0.65
   2   3   1    8.58    1.19
   3  -5   1    7.54    0.95
  -3  -3  -1    3.44    1.07
   6  -3  -1    1.57    1.59
  -3  -3  -1    2.64    0.72
  -3  -3  -1    2.92    1.08
  -3   6  -1    2.69    1.07
   6  -3  -1    2.68    0.73
  -3   6  -1    3.25    0.73
  -6   3   1    2.72    1.17
   3  -6   1    3.92    1.00
   3   3   1    3.36    0.86
   3   3   1    2.89    1.24
   3  -6   1    2.74    1.05
  -6   3   1    3.70    0.88
  -4  -3  -1   71.29    3.96
   7  -4  -1   72.26    4.55
   7  -4  -1   71.07    3.75
  -4  -3  -1   68.13    4.39
  -4  -3  -1   72.32    4.50
  -3   7  -1   71.82    4.77
   3  -7   1   70.86    4.04
   3  -7   1   67.26    4.56
  -7   4   1   66.84    4.82
   4   3   1   67.32    5.13
  -7   4   1   70.54    3.86
  -2   6  -1  201.98    9.17
   6  -4  -1  209.88    8.13
  -4  -2  -1  203.92    9.03
   6  -4  -1  208.76    9.00
  -4  -2  -1  208.28    8.14
  -2   6  -1  200.06    7.91
  -4  -2  -1  203.06    9.02
  -6   4   1  199.15    9.42
   4   2   1  200.37    8.25
   2  -6   1  200.09    7.73
   2  -6   1  215.19    9.22
  -6   4   1  204.52    8.24
   4   2   1  214.19    9.93
   2  -6   1  209.04    8.45
  -1   5  -1   65.29    3.10
  -4  -1  -1   65.48    3.31
  -4  -1  -1   70.05    4.15
  -4  -1  -1   68.88    4.02
   5  -4  -1   67.84    3.87
  -1   5  -1   72.76    4.07
   5  -4  -1   69.50    3.30
  -5   4   1   71.55    3.46
   1  -5   1   67.95    3.01
   1  -5   1   67.62    3.91
   4   1   1   70.11    3.46
  -5   4   1   61.92    4.10
   1  -5   1   68.76    3.49
   4   1   1   64.62    4.53
   0   4  -1    0.70    0.58
   0   4  -1    0.47    0.32
   0   4  -1   -0.60    0.28
   4  -4  -1    0.39    0.44
   4  -4  -1    0.45    0.34
   0   4  -1    0.32    0.38
  -4   0  -1    0.96    0.63
  -4   0  -1    0.62    0.72
  -4   0  -1    0.49    0.35
  -4   4   1    0.65    0.43
   0  -4   1    0.51    0.32
  -4   4   1    0.99    0.71
   4   0   1    2.30    1.20
   0  -4   1    0.14    0.43
   4   0   1    1.84    0.56
   0  -4   1    0.28    0.33
   1   3  -1   16.38    1.14
   1   3  -1   17.70    1.47
   3  -4  -1   15.56    1.50
  -4   1  -1   17.35    1.84
   3  -4  -1   17.44    1.23
  -4   1  -1   16.71    1.71
   1   3  -1   17.78    1.59
  -4   1  -1   17.37    1.34
  -1  -3   1   19.45    1.13
  -1  -3   1   16.90    1.33
   4  -1   1   13.97    1.25
  -3   4   1   14.87    1.72
  -3   4   1   14.99    1.19
   4  -1   1   15.02    2.51
  -1  -3   1   18.48    1.62
   2   2  -1  391.79   14.18
  -4   2  -1  373.77   14.26
   2   2  -1  383.98   13.98
   2  -4  -1  393.15   13.05
  -4   2  -1  377.10   13.61
   2  -4  -1  390.98   14.05
  -4   2  -1  387.97   14.48
   2   2  -1  379.02   13.39
   2  -4  -1  397.72   13.43
  -2   4   1  367.62   14.40
  -2  -2   1  384.97   13.91
  -2   4   1  372.60   13.42
  -2  -2   1  384.24   13.25
  -2  -2   1  384.71   13.76
   1  -4  -1   40.73    2.10
   1  -4  -1   41.74    2.51
  -4   3  -1   42.59    2.62
   1  -4  -1   39.64    1.68
   3   1  -1   42.77    2.89
  -4   3  -1   42.16    2.26
   1  -4  -1   39.42    2.39
  -4   3  -1   43.44    2.88
   3   1  -1   40.25    2.14
  -1   4   1   40.94    2.12
   4  -3   1   39.69    2.50
  -1   4   1   35.46    2.66
  -3  -1   1   39.57    2.63
   4  -3   1   40.15    2.09
  -3  -1   1   41.86    2.49
   4   0  -1   67.68    4.73
   0  -4  -1   79.20    3.52
   0  -4  -1   82.18    3.87
  -4   4  -1   78.01    3.80
  -4   4  -1   81.13    4.44
  -4   4  -1   76.73    3.52
   0  -4  -1   82.69    3.40
  -4   4  -1   78.32    3.66
   0  -4  -1   85.35    4.14
   4  -4   1   79.93    4.03
   4  -4   1   80.65    3.53
   0   4   1   79.10    3.37
  -4   0   1   78.44    3.54
  -4   0   1   84.67    2.87
  -4   0   1   82.04    4.22
   0   4   1   79.69    4.35
  -4   0   1   81.02    4.39
   0   4   1   79.47    3.56
  -4   5  -1   10.21    1.78
   5  -1  -1   10.04    1.34
  -1  -4  -1   12.17    1.27
  -1  -4  -1   11.85    1.29
   5  -1  -1    8.09    2.09
  -4   5  -1   13.45    1.47
  -1  -4  -1   10.92    1.27
  -1  -4  -1   12.01    1.46
  -4   5  -1   10.23    1.20
   1   4   1    9.37    1.66
   1   4   1   13.64    1.46
  -5   1   1    9.25    1.60
   4  -5   1   12.34    1.09
  -5   1   1   11.55    1.33
  -5   1   1   11.50    1.77
   4  -5   1   12.35    1.40
  -4   6  -1  193.59    9.01
  -2  -4  -1  210.81    8.70
   6  -2  -1  154.27   10.42
  -4   6  -1  193.81    7.72
  -2  -4  -1  202.76    7.76
  -2  -4  -1  200.52    8.16
   2   4   1  194.10    9.06
   4  -6   1  198.01    7.60
   2   4   1  200.15    7.86
   2   4   1  194.07    6.77
   4  -6   1  190.71    8.31
  -6   2   1  205.95    7.94
  -6   2   1  204.74    9.07
  -3  -4  -1   30.04    2.57
  -4   7  -1   31.96    3.15
   7  -3  -1   18.32    4.17
  -3  -4  -1   33.12    2.82
   4  -7   1   29.83    2.53
  -7   3   1   32.97    2.39
  -7   3   1   32.53    3.16
   4  -7   1   34.02    3.19
   3   4   1   35.95    3.43
  -4  -4  -1   24.03    2.60
   8  -4  -1   24.60    2.76
  -4   8  -1   21.10    3.22
   8  -4  -1   20.46    2.30
   4  -8   1   30.28    2.99
  -8   4   1   21.13    2.42
  -8   4   1   25.07    3.62
   4   4   1   22.14    3.59
  -4   9  -1    8.12    2.30
   9  -5  -1    6.56    1.42
  -5  -4  -1    7.91    1.95
   9  -5  -1    7.30    1.94
  -9   5   1    5.82    2.00
   5   4   1    4.26    1.98
   8  -5  -1    6.49    1.79
  -5  -3  -1    4.83    1.60
   8  -5  -1    7.63    1.42
  -3   8  -1    4.41    1.62
  -8   5   1    5.53    1.85
   5   3   1    6.15    2.16
  -8   5   1    5.54    1.31
  -5  -2  -1   73.53    4.73
   7  -5  -1   70.09    3.77
   7  -5  -1   67.30    4.47
  -5  -2  -1   66.94    4.49
  -2   7  -1   71.58    4.78
  -7   5   1   64.46    4.86
  -7   5   1   68.82    3.89
   5   2   1   66.62    5.38
   2  -7   1   80.15    4.70
  -5  -1  -1   -0.99    0.64
   6  -5  -1   -0.05    0.50
  -1   6  -1   -0.01    0.29
  -5  -1  -1   -0.02    0.41
  -5  -1  -1   -0.21    0.54
   6  -5  -1    0.19    0.41
   1  -6   1    0.45    0.37
  -6   5   1   -0.10    0.66
  -6   5   1   -0.34    0.40
   5   1   1   -0.47    0.92
   1  -6   1    0.60    0.64
   1  -6   1    0.33    0.46
   0   5  -1    2.40    1.03
   0   5  -1    2.44    0.50
   0   5  -1    2.77    0.64
   5  -5  -1    3.03    1.00
  -5   0  -1    3.45    0.85
  -5   0  -1    2.92    1.01
  -5   0  -1    2.18    1.04
   5  -5  -1    3.01    0.73
  -5   5   1    4.15    0.93
   0  -5   1    2.85    0.63
   0  -5   1    2.47    0.90
  -5   5   1    1.89    1.01
   0  -5   1    3.10    0.81
   5   0   1    1.84    1.38
   1   4  -1   69.80    3.23
  -5   1  -1   67.32    4.19
  -5   1  -1   69.05    4.25
   4  -5  -1   71.13    3.94
  -5   1  -1   69.62    3.48
   4  -5  -1   74.20    3.37
   1   4  -1   73.03    4.01
  -4   5   1   70.99    4.35
  -1  -4   1   71.66    3.93
  -1  -4   1   68.82    3.05
   5  -1   1   67.00    5.15
  -1  -4   1   66.62    3.50
   3  -5  -1  108.13    4.18
  -5   2  -1  100.65    5.37
   2   3  -1  104.95    5.20
   2   3  -1  107.30    4.40
   3  -5  -1  106.56    5.05
  -5   2  -1  101.95    4.60
   3  -5  -1  104.32    4.41
  -5   2  -1  100.70    5.30
  -3   5   1  102.07    5.45
  -2  -3   1  104.76    4.72
  -3   5   1  100.29    4.40
   5  -2   1   90.84    6.58
  -2  -3   1  105.42    4.19
   2  -5  -1    8.76    1.45
   3   2  -1    7.79    1.58
   2  -5  -1    7.53    1.01
   2  -5  -1    7.96    1.39
   3   2  -1    7.80    1.06
  -5   3  -1    7.02    1.46
  -5   3  -1    7.01    1.06
  -5   3  -1    8.33    1.56
  -3  -2   1    8.92    1.39
  -2   5   1   10.13    1.80
  -3  -2   1    8.82    1.01
  -2   5   1    8.47    1.11
  -3  -2   1    6.99    1.33
   5  -3   1    6.63    1.24
   5  -3   1    6.79    1.01
   5  -3   1    6.32    2.05
   1  -5  -1   11.64    1.44
  -5   4  -1   12.45    1.73
  -5   4  -1   11.61    1.40
   4   1  -1    9.56    1.96
   1  -5  -1   11.46    1.26
   4   1  -1   11.78    1.39
  -5   4  -1   10.20    1.82
   1  -5  -1   11.30    1.35
  -4  -1   1    9.52    1.59
   5  -4   1    9.61    1.54
  -1   5   1   12.18    1.97
  -1   5   1   10.58    1.26
  -4  -1   1   11.74    1.70
  -5   5  -1    0.18    0.42
   5   0  -1    0.12    0.40
   5   0  -1    1.58    1.18
  -5   5  -1    0.25    0.66
   0  -5  -1    0.12    0.36
   0  -5  -1    0.04    0.43
  -5   5  -1    0.21    0.48
   0  -5  -1    0.35    0.44
   0  -5  -1    0.37    0.37
  -5   0   1    0.38    0.40
  -5   0   1    0.65    0.66
  -5   0   1    0.65    0.71
   5  -5   1    0.10    0.36
   0   5   1    0.23    0.35
  -5   0   1    0.65    0.18
   0   5   1    0.24    0.62
   5  -5   1    0.07    0.47
  -5   6  -1   71.83    4.77
  -1  -5  -1   72.18    4.23
  -1  -5  -1   74.29    4.01
  -1  -5  -1   59.30    3.40
  -1  -5  -1   77.48    3.67
  -5   6  -1   77.59    3.84
   1   5   1   71.81    3.69
  -6   1   1   73.43    4.63
   5  -6   1   77.03    4.31
  -6   1   1   69.58    4.50
  -6   1   1   71.69    3.70
   5  -6   1   75.92    3.61
   1   5   1   81.30    4.85
  -2  -5  -1   33.16    2.54
  -2  -5  -1   36.79    2.99
  -5   7  -1   35.16    3.37
   7  -2  -1   28.42    5.27
  -7   2   1   37.50    2.56
  -7   2   1   34.54    3.26
   5  -7   1   37.79    2.95
   2   5   1   35.66    3.41
  -5   8  -1   11.03    2.37
  -3  -5  -1    9.34    1.73
  -8   3   1   11.37    2.37
   3   5   1   10.39    2.48
   9  -4  -1   13.61    2.71
   9  -4  -1   12.72    1.99
  -4  -5  -1   14.05    2.33
  -5   9  -1   13.18    2.84
   5  -9   1   15.54    3.03
  -9   4   1   15.92    3.09
   4   5   1   10.17    2.71
  10  -5  -1   24.11    3.82
  -5  10  -1   19.11    3.63
   5   5   1   18.11    3.89
   5 -10   1   28.64    3.48
  10  -6  -1   49.21    4.62
  -4  10  -1   44.45    4.67
   4 -10   1   62.78    5.65
   6   4   1   29.26    5.16
 -10   6   1   43.06    4.72
  -6  -3  -1   19.54    3.13
  -3   9  -1   19.65    3.27
   9  -6  -1   12.00    2.12
   9  -6  -1   20.64    3.19
   3  -9   1   15.06    3.31
   6   3   1   15.72    3.66
  -9   6   1   17.62    3.45
  -6  -2  -1  179.12    8.99
  -2   8  -1  185.40    9.17
   8  -6  -1  169.59    7.63
   8  -6  -1  187.41    8.99
   6   2   1  149.53   10.03
  -8   6   1  161.98    7.74
   2  -8   1  188.43    8.93
  -8   6   1  174.46    9.48
  -1   7  -1   16.32    2.61
   7  -6  -1   14.81    2.39
   7  -6  -1   13.66    1.75
  -6  -1  -1   13.75    2.44
  -6  -1  -1   10.96    2.33
   6   1   1   14.47    3.45
  -7   6   1   13.21    1.78
  -7   6   1   14.37    2.70
   1  -7   1   20.10    2.02
  -6   0  -1   64.37    4.50
  -6   0  -1   67.49    3.62
   0   6  -1   62.48    4.28
   6  -6  -1   67.09    4.25
  -6   0  -1   67.35    4.51
   6  -6  -1   60.70    3.42
   6   0   1   60.08    5.48
  -6   6   1   66.84    3.66
  -6   6   1   66.45    4.76
   0  -6   1   65.43    4.18
  -6   1  -1   -0.56    0.68
  -6   1  -1   -0.10    0.40
   1   5  -1    0.28    0.42
   1   5  -1   -0.86    0.58
  -6   1  -1    0.60    0.73
   5  -6  -1    0.07    0.44
   5  -6  -1    0.54    0.62
  -1  -5   1    0.06    0.42
  -1  -5   1    0.53    0.61
  -5   6   1    0.45    0.82
  -1  -5   1    0.17    0.31
   6  -1   1    0.72    1.37
  -6   2  -1  203.76    9.43
   2   4  -1  203.86    7.98
   4  -6  -1  208.17    8.07
  -6   2  -1  204.86    8.28
   2   4  -1  202.90    9.07
   4  -6  -1  214.56    8.95
  -6   2  -1  213.14    9.42
  -2  -4   1  200.49    8.38
  -2  -4   1  201.49    7.70
   6  -2   1  201.00   11.53
  -4   6   1  211.76    9.60
  -6   3  -1    3.26    1.20
   3  -6  -1    4.66    0.87
   3   3  -1    3.29    1.27
  -6   3  -1    3.22    1.14
   3   3  -1    1.88    0.66
   3  -6  -1    2.47    0.93
  -6   3  -1    3.51    0.96
  -3  -3   1    3.23    0.69
  -3   6   1    2.57    1.10
  -3   6   1    2.23    1.09
   6  -3   1    0.39    1.44
  -3  -3   1    2.52    0.80
   4   2  -1  189.95    9.12
  -6   4  -1  189.68    7.88
   2  -6  -1  202.17    8.42
  -6   4  -1  190.34    8.49
  -6   4  -1  194.24    9.07
   4   2  -1  195.21    7.76
   2  -6  -1  197.06    8.42
   2  -6  -1  191.86    7.58
  -4  -2   1  198.30    8.61
  -2   6   1  196.23    9.04
  -4  -2   1  195.21    8.27
   6  -4   1  201.22    7.71
   6  -4   1  189.88    8.50
  -4  -2   1  193.91    7.47
  -2   6   1  179.74    7.58
  -6   5  -1   79.03    4.01
   5   1  -1   72.12    3.86
   1  -6  -1   77.07    4.37
  -6   5  -1   75.14    4.27
   1  -6  -1   72.98    3.66
  -6   5  -1   71.98    4.85
   5   1  -1   73.32    5.51
   1  -6  -1   82.18    4.38
  -5  -1   1   80.67    4.52
   6  -5   1   76.19    3.75
   6  -5   1   76.07    4.48
  -1   6   1   76.96    3.79
  -1   6   1   76.51    4.79
  -5  -1   1   79.46    4.74
  -6   6  -1  605.21   21.81
   0  -6  -1  628.25   22.48
   0  -6  -1  634.24   22.24
  -6   6  -1  616.79   23.47
   6   0  -1  499.71   24.30
  -6   0   1  604.02   23.06
   0   6   1  621.47   23.23
   6  -6   1  610.63   22.56
   6  -6   1  630.83   21.54
  -6   0   1  630.88   22.88
  -6   0   1  614.33   21.54
  -1  -6  -1  102.02    5.40
  -6   7  -1  104.01    5.15
  -6   7  -1  106.63    6.51
   6  -7   1  110.96    5.83
  -7   1   1  103.65    6.12
   1   6   1   98.66    6.14
  -6   8  -1   31.34    3.48
   8  -2  -1   19.69    4.80
  -8   2   1   26.97    3.14
   2   6   1   30.19    3.40
  -6   9  -1    1.08    1.28
   9  -3  -1    1.05    2.41
   3   6   1   -0.59    1.01
  10  -4  -1   30.75    4.41
  -6  10  -1   25.55    4.23
  10  -4  -1   27.15    3.18
   4   6   1   21.69    4.11
   6 -10   1   34.69    3.71
  -3  10  -1   42.59    4.36
  10  -7  -1   30.04    3.71
 -10   7   1   35.60    5.16
   3 -10   1   36.25    5.26
   7   3   1   18.57    4.52
   9  -7  -1    9.27    2.26
  -7  -2  -1    8.72    2.28
  -2   9  -1    8.42    2.24
   7   2   1    4.74    2.58
  -9   7   1    7.57    2.29
   2  -9   1   12.59    2.57
   8  -7  -1    2.50    1.28
  -7  -1  -1    2.38    1.48
  -8   7   1    1.10    0.89
   7   1   1    1.47    1.94
   1  -8   1    2.70    1.32
  -8   7   1    1.37    1.36
  -7   0  -1   35.87    3.46
  -7   0  -1   37.16    3.64
   7  -7  -1   35.52    2.60
   0   7  -1   34.49    3.30
   7  -7  -1   36.74    3.31
  -7   7   1   35.28    3.76
   7   0   1   19.20    4.25
   0  -7   1   37.63    3.33
  -7   1  -1   15.85    1.96
   1   6  -1    7.92    1.86
   6  -7  -1   13.86    1.73
   6  -7  -1   17.39    2.59
  -7   1  -1   12.64    2.37
  -7   1  -1   14.45    2.53
  -6   7   1   11.40    2.42
   7  -1   1    7.26    2.68
  -1  -6   1   12.55    2.10
   2   5  -1   62.91    4.51
  -7   2  -1   66.21    4.72
  -7   2  -1   67.12    3.81
  -7   2  -1   72.37    4.87
   5  -7  -1   67.76    3.63
   5  -7  -1   70.80    4.41
  -5   7   1   67.34    4.91
   4  -7  -1   67.19    3.60
  -7   3  -1   68.33    4.68
  -7   3  -1   73.52    3.98
  -7   3  -1   75.05    5.02
   4  -7  -1   67.08    4.30
   3   4  -1   72.23    4.82
  -4   7   1   73.66    5.02
  -7   4  -1   35.26    2.57
  -7   4  -1   34.97    3.35
  -7   4  -1   31.78    3.02
   4   3  -1   36.58    3.49
   3  -7  -1   32.13    2.87
   3  -7  -1   32.77    2.24
   3  -7  -1   32.41    2.77
   7  -4   1   33.22    2.35
   7  -4   1   32.85    2.91
  -3   7   1   33.97    3.33
   7  -4   1   23.42    4.65
   2  -7  -1   36.13    3.02
  -7   5  -1   35.17    3.02
   2  -7  -1   35.44    2.93
  -7   5  -1   34.20    3.47
  -7   5  -1   39.26    2.73
   5   2  -1   35.04    3.79
   7  -5   1   35.43    3.09
  -5  -2   1   39.48    4.06
  -2   7   1   36.35    3.45
   7  -5   1   38.29    2.55
   6   1  -1   88.10    6.98
   1  -7  -1  105.44    5.59
  -7   6  -1  102.08    5.17
  -7   6  -1  105.53    6.52
   7  -6   1  105.57    5.84
  -1   7   1  109.35    6.33
   7  -6   1   98.46    4.89
   0  -7  -1   72.85    4.47
   7   0  -1   57.47    6.14
  -7   7  -1   78.63    5.59
  -7   7  -1   80.66    4.36
   0   7   1   77.89    5.35
   7  -7   1   69.91    4.74
  -7   8  -1   12.56    2.76
   8  -1  -1    8.87    3.35
   1   7   1   11.70    2.47
   9  -2  -1    8.28    3.92
  -7   9  -1   27.05    4.18
   2   7   1   21.38    3.58
  -7  10  -1   21.68    3.91
  10  -3  -1    5.64    3.68
   3   7   1   20.15    3.86
  -8  -1  -1    7.92    2.31
  -1   9  -1    7.27    2.19
   9  -8  -1    6.92    2.08
   1  -9   1    6.53    2.12
   8   1   1    4.72    2.80
  -9   8   1    6.90    2.31
  -8   0  -1    3.86    1.73
   8  -8  -1    4.78    1.56
   0   8  -1    1.98    1.61
   0  -8   1    2.06    1.35
   8   0   1    3.01    2.44
  -8   8   1    4.10    1.90
   7  -8  -1    1.45    1.06
  -8   1  -1    0.76    1.03
  -8   1  -1    1.70    1.32
   8  -1   1    1.50    2.11
  -7   8   1    1.83    1.47
  -1  -7   1    2.17    1.31
   6  -8  -1  173.47    8.59
  -8   2  -1  179.30    9.15
  -8   2  -1  172.73    9.12
   2   6  -1  159.15    8.66
  -6   8   1  173.66    9.39
  -8   3  -1    7.15    2.13
  -8   3  -1    6.07    1.88
   5  -8  -1    4.71    1.52
  -8   3  -1    6.51    1.38
   3   5  -1    4.30    1.66
  -5   8   1    5.66    1.88
   8  -3   1    5.71    2.95
   4  -8  -1   21.75    2.49
  -8   4  -1   19.86    2.93
  -8   4  -1   22.31    3.34
   4   4  -1   21.50    3.39
  -8   4  -1   21.61    2.46
   4  -8  -1   28.71    2.87
   8  -4   1   26.69    2.23
  -4   8   1   21.67    3.31
   8  -4   1   22.89    2.76
   3  -8  -1   18.17    2.26
  -8   5  -1   12.77    2.29
   5   3  -1    8.88    2.40
  -8   5  -1   14.37    2.09
  -8   5  -1    9.64    2.29
   8  -5   1   11.23    1.70
  -3   8   1   11.11    2.49
   8  -5   1   13.86    2.54
   2  -8  -1   33.74    3.09
  -8   6  -1   32.39    3.69
  -8   6  -1   31.57    2.67
   6   2  -1   28.07    4.56
  -2   8   1   31.36    3.43
   8  -6   1   30.29    3.12
   7   1  -1    9.11    2.91
  -8   7  -1   13.05    2.03
   1  -8  -1   13.52    2.38
  -8   7  -1   13.89    2.89
  -1   8   1   11.05    2.47
   8  -7   1   11.90    2.30
  -8   8  -1   84.66    6.41
   0  -8  -1   87.43    5.21
  -8   8  -1   89.92    5.00
   0   8   1   75.89    5.88
  -8   9  -1    2.52    1.70
   9  -1  -1    2.03    2.73
   1   8   1    3.34    1.72
   0   9  -1   -1.37    1.41
  -9   9   1    0.63    1.47
   0  -9   1    1.42    1.56
   9   0   1    4.22    3.06
  -9   1  -1    7.78    2.29
   1   8  -1    9.98    2.19
   9  -1   1    5.65    3.37
  -8   9   1    8.62    2.63
  -9   2  -1    3.69    2.05
   9  -2   1    5.82    3.45
  -7   9   1    8.26    2.61
  -9   3  -1   18.91    3.28
   3   6  -1   14.09    2.91
  -9   3  -1   15.14    3.06
  -6   9   1   16.80    3.29
   9  -3   1    7.11    3.50
  -9   4  -1    5.91    1.95
  -9   4  -1    5.23    1.97
   4   5  -1    4.57    1.96
   9  -4   1    6.10    1.93
  -5   9   1    5.93    2.00
   9  -4   1    8.32    1.64
   9  -4   1    0.54    2.15
   4  -9  -1   13.11    2.71
   5   4  -1   10.93    2.77
  -9   5  -1   14.41    3.05
  -4   9   1   12.49    2.73
   9  -5   1   15.66    2.85
   6   3  -1    0.89    1.36
   3  -9  -1   -0.65    0.75
  -9   6  -1    0.23    1.17
  -9   6  -1    1.02    0.88
  -3   9   1    0.17    1.20
   9  -6   1    0.80    0.98
   2  -9  -1   22.82    2.85
  -9   7  -1   24.73    4.10
   7   2  -1   14.23    3.73
  -9   7  -1   19.74    2.59
   9  -7   1   17.67    2.94
  -2   9   1   18.48    3.27
   8   1  -1    3.19    2.62
  -9   8  -1    3.18    1.91
  -9   8  -1    3.21    1.24
  -1   9   1    2.86    1.62
   9   0  -1    1.89    2.31
  -9   9  -1    0.26    1.26
   0   9   1    0.44    1.31
   7 -10  -1   46.59    4.65
   3   7  -1   31.76    3.95
  -7  10   1   29.44    4.72
   4   6  -1   33.99    4.35
   6 -10  -1   68.03    6.11
 -10   4  -1   49.92    5.05
  10  -4   1   51.68    4.84
  -6  10   1   50.30    5.17
   5   5  -1   18.29    3.78
   5 -10  -1   25.96    4.15
 -10   5  -1   23.24    3.93
  10  -5   1   24.61    3.85
  -5  10   1   21.63    4.03
 -10   6  -1   23.02    3.94
   6   4  -1   16.03    3.67
  -4  10   1   24.84    4.03
  10  -6   1   24.73    3.77
 -10   7  -1   20.61    3.87
   7   3  -1   16.03    4.29
  -3  10   1   19.87    3.56
   0   0  -2    0.22    0.08
   0   0  -2   -0.04    0.11
   0   0  -2    0.47    0.18
   0   0  -2    0.67    0.15
   0   0   2    0.00    0.04
   0   0   2    0.12    0.13
   0   0   2    0.08    0.06
   0   0   2    0.09    0.08
  -1   0  -2 2028.29   69.83
   1  -1  -2 1996.88   69.04
  -1   0  -2 2009.46   70.12
  -1   0  -2 1968.99   70.44
   1  -1  -2 1977.21   67.57
   0   1  -2 1975.53   70.63
  -1   0  -2 2009.86   68.28
   1  -1  -2 2066.46   70.19
  -1   1   2 1968.83   67.43
   1   0   2 2018.94   67.77
   1   0   2 1956.49   69.00
  -1   1   2 2031.65   69.50
  -1   1   2 1975.53   67.64
  -1   1   2 1989.86   69.00
   1   0   2 2181.68   70.01
   0  -1  -2 4509.03  149.48
   0   1   2 4417.76  148.17
   0   1   2 4450.23  146.49
   0   1   2 4220.65  149.06
  -1   2  -2  386.58   13.02
  -1  -1  -2  386.75   12.74
  -1   2  -2  392.48   13.15
  -1  -1  -2  389.53   13.54
  -1   2  -2  375.77   12.84
  -1   2  -2  391.68   12.81
  -1  -1  -2  368.37   13.09
   2  -1  -2  380.44   13.04
  -1   2  -2  375.36   13.04
  -1  -1  -2  379.63   13.45
   2  -1  -2  395.19   13.55
   1  -2   2  382.71   12.76
   1  -2   2  375.31   13.61
   1   1   2  364.72   12.74
  -2   1   2  379.18   12.99
  -2   1   2  391.72   13.49
   1   1   2  388.54   13.10
   1  -2   2  380.95   12.73
   1   1   2  381.93   13.73
  -1   3  -2   62.22    2.42
   3  -2  -2   62.99    2.65
  -2  -1  -2   59.29    3.19
  -2  -1  -2   63.04    2.78
   3  -2  -2   58.64    2.74
  -2  -1  -2   63.02    2.22
  -2  -1  -2   62.67    3.20
  -1   3  -2   60.18    2.72
  -1   3  -2   57.67    2.43
  -1   3  -2   62.17    2.50
  -1   3  -2   60.69    2.91
   3  -2  -2   58.39    2.98
  -3   2   2   63.25    3.29
   1  -3   2   62.16    3.28
   2   1   2   62.03    3.49
  -3   2   2   62.11    2.72
   2   1   2   62.94    2.78
   1  -3   2   59.26    2.35
   0   2  -2    3.12    0.39
   0   2  -2    2.89    0.33
   2  -2  -2    2.53    0.45
   2  -2  -2    3.59    0.69
  -2   0  -2    3.62    0.84
  -2   0  -2    2.69    0.54
  -2   0  -2    2.06    0.62
   2  -2  -2    2.80    0.51
   0   2  -2    2.61    0.47
  -2   2   2    2.39    0.66
   0  -2   2    2.43    0.64
  -2   2   2    2.27    0.41
   2   0   2    1.50    0.72
   2   0   2    2.51    0.48
  -2   1  -2  452.05   14.31
   1  -2  -2  381.28   13.58
   1   1  -2  372.23   13.11
   1  -2  -2  399.11   13.22
   1   1  -2  378.44   12.92
  -2   1  -2  390.23   13.73
  -2   1  -2  382.00   13.69
   1   1  -2  385.25   13.15
  -2   1  -2  380.64   13.25
  -1   2   2  374.88   13.83
  -1  -1   2  388.29   13.77
  -1   2   2  385.22   13.18
   2  -1   2  372.56   13.23
   2   0  -2 1420.13   47.17
   2   0  -2 1276.28   43.57
  -2   2  -2 1518.29   44.89
   0  -2  -2 1273.79   44.58
  -2   2  -2 1290.99   45.28
  -2   2  -2 1202.59   44.59
   0  -2  -2 1294.19   45.88
   2   0  -2 1289.76   44.24
  -2   2  -2 1260.04   44.54
   0  -2  -2 1301.36   44.50
   0  -2  -2 1304.97   44.51
  -2   2  -2 1303.72   44.87
  -2   0   2 1321.62   45.77
  -2   0   2 1270.50   43.63
   2  -2   2 1318.31   44.46
   0   2   2 1261.37   45.65
   2  -2   2 1259.00   45.19
   0   2   2 1252.35   46.61
  -2   0   2 1335.13   43.99
   0   2   2 1360.21   45.02
  -2   3  -2   48.57    2.44
  -1  -2  -2   48.19    2.70
  -2   3  -2   46.30    2.56
  -1  -2  -2   50.20    2.34
   3  -1  -2   48.14    2.27
  -1  -2  -2   48.89    2.55
  -2   3  -2   47.38    2.11
  -2   3  -2   49.25    2.19
  -2   3  -2   50.01    2.25
   3  -1  -2   47.44    2.73
   1   2   2   53.13    2.98
   1   2   2   47.86    2.12
   1   2   2   47.38    1.88
   2  -3   2   50.28    2.35
  -3   1   2   52.12    2.74
   2  -3   2   49.12    2.24
   1   2   2   52.98    2.37
   2  -3   2   48.27    2.06
  -3   1   2   51.02    2.24
  -2   4  -2  131.62    5.13
  -2  -2  -2  142.51    5.48
   4  -2  -2  108.16    6.90
   4  -2  -2  140.04    5.50
  -2  -2  -2  135.44    6.07
  -2   4  -2  140.62    4.91
  -2   4  -2  139.74    5.92
  -2   4  -2  139.12    5.24
  -2  -2  -2  141.51    5.95
   4  -2  -2  133.80    5.30
  -2   4  -2  134.18    5.60
   2   2   2  132.56    6.34
   2  -4   2  133.26    5.39
   2  -4   2  134.96    6.17
   2  -4   2  142.44    5.05
  -4   2   2  136.84    5.38
   2   2   2  132.22    5.42
  -4   2   2  138.49    6.17
  -2   5  -2   96.72    5.92
  -3  -2  -2   90.95    4.83
  -2   5  -2   91.41    4.77
  -3  -2  -2   98.40    4.98
   5  -3  -2   88.31    4.06
   5  -3  -2   91.15    4.70
  -2   5  -2   89.52    3.90
  -3  -2  -2   93.96    4.24
   3   2   2   89.20    5.31
  -5   3   2   92.87    4.21
   2  -5   2   98.72    5.06
  -5   3   2   95.73    5.13
   3   2   2   95.36    4.30
   2  -5   2   92.95    4.19
   2  -5   2   97.83    3.80
  -3  -1  -2  266.65   10.57
   4  -3  -2  266.01    9.91
  -1   4  -2  260.38    9.43
   4  -3  -2  255.96   10.29
  -3  -1  -2  271.80    8.94
  -1   4  -2  280.37   10.29
  -1   4  -2  267.54    9.94
  -3  -1  -2  275.75    9.89
   4  -3  -2  273.85    9.71
  -3  -1  -2  254.64   10.51
  -4   3   2  268.47   10.75
   3   1   2  288.30   11.25
  -4   3   2  255.52    9.77
   1  -4   2  264.41   10.60
   1  -4   2  268.81    9.29
   3   1   2  266.71    9.89
   3  -3  -2 1356.94   45.04
   0   3  -2 1268.88   45.76
   0   3  -2 1378.41   48.93
   3  -3  -2 1338.08   45.85
   3  -3  -2 1320.02   47.05
  -3   0  -2 1391.51   47.75
   0   3  -2 1302.44   46.89
  -3   0  -2 1348.78   45.01
   0   3  -2 1338.11   45.63
  -3   0  -2 1343.91   45.79
   3   0   2 1537.24   46.84
   0  -3   2 1323.56   45.68
   0  -3   2 1320.03   48.82
  -3   3   2 1306.99   45.84
   3   0   2 1338.32   45.03
   0  -3   2 1338.67   44.81
   2  -3  -2   61.09    2.76
  -3   1  -2   57.53    3.18
   2  -3  -2   60.22    3.05
   1   2  -2   60.73    2.72
  -3   1  -2   60.52    2.76
  -3   1  -2   64.56    3.33
   1   2  -2   62.52    2.45
   1   2  -2   62.17    2.82
   2  -3  -2   59.66    2.66
  -1  -2   2   60.48    2.45
  -2   3   2   60.74    3.35
  -2   3   2   58.84    2.64
  -1  -2   2   60.62    3.19
  -1  -2   2   60.62    2.25
   3  -1   2   58.30    3.75
   3  -1   2   63.60    2.80
   1  -3  -2   53.11    2.74
   2   1  -2   52.01    2.54
   1  -3  -2   48.37    2.26
   2   1  -2   51.17    2.19
  -3   2  -2   48.08    2.73
  -3   2  -2   51.20    2.40
   1  -3  -2   46.95    2.29
   2   1  -2   51.50    1.88
  -3   2  -2   49.16    2.83
  -1   3   2   50.17    2.95
   3  -2   2   61.80    3.85
  -1   3   2   49.46    2.31
  -2  -1   2   51.61    2.07
   3   0  -2 1360.24   43.65
   0  -3  -2 1233.90   43.77
   0  -3  -2 1227.20   44.37
   0  -3  -2 1265.13   44.39
   3   0  -2 1302.23   42.85
  -3   3  -2 1233.37   44.54
  -3   3  -2 1247.78   42.98
   3   0  -2 1265.53   42.18
  -3   3  -2 1260.13   44.12
   0  -3  -2 1278.17   42.28
  -3   3  -2 1198.30   42.84
   0   3   2 1224.59   43.16
   3  -3   2 1223.92   42.56
  -3   0   2 1291.33   43.87
  -3   0   2 1328.90   42.17
   3  -3   2 1294.18   42.65
   0   3   2 1276.56   42.26
  -3   4  -2 1326.01   46.65
  -3   4  -2 1291.05   45.40
   4  -1  -2 1382.75   45.69
  -1  -3  -2 1373.23   46.39
   4  -1  -2 1523.76   48.19
  -3   4  -2 1374.89   46.45
  -3   4  -2 1342.25   46.12
  -1  -3  -2 1268.72   46.69
  -1  -3  -2 1335.19   45.63
   1   3   2 1368.90   45.67
  -4   1   2 1319.25   46.33
   1   3   2 1373.80   46.75
   3  -4   2 1365.37   46.92
  -4   1   2 1448.39   45.60
  -3   5  -2  167.70    6.15
  -2  -3  -2  169.71    7.21
   5  -2  -2  159.07    6.81
  -3   5  -2  165.86    7.52
  -2  -3  -2  177.66    6.81
  -3   5  -2  170.36    6.62
  -2  -3  -2  168.19    7.51
  -3   5  -2  165.54    6.52
   3  -5   2  175.17    7.84
  -5   2   2  171.25    7.67
   2   3   2  178.67    6.86
   2   3   2  173.25    7.93
   2   3   2  175.89    5.91
   3  -5   2  164.91    6.22
   3  -5   2  177.20    7.00
  -5   2   2  166.70    6.72
   3  -5   2  167.25    6.38
  -3  -3  -2  111.35    5.69
   6  -3  -2  115.04    5.85
  -3  -3  -2  106.04    5.04
  -3  -3  -2  120.09    5.99
  -3   6  -2  117.60    6.02
  -3   6  -2  111.33    4.85
   6  -3  -2  114.60    5.06
   3  -6   2  118.02    4.68
   3   3   2  116.54    6.50
   3  -6   2  112.65    6.12
  -6   3   2  113.29    6.14
  -6   3   2  114.07    5.12
   3  -6   2  114.66    5.26
  -4  -3  -2   61.62    3.52
   7  -4  -2   67.63    4.41
  -4  -3  -2   63.68    4.37
   7  -4  -2   69.89    3.67
  -3   7  -2   66.71    4.49
  -4  -3  -2   62.04    4.28
  -7   4   2   72.18    4.88
   3  -7   2   68.05    4.64
   4   3   2   60.13    4.96
  -7   4   2   66.15    3.69
  -4  -2  -2   69.77    4.44
  -4  -2  -2   76.79    4.54
   6  -4  -2   73.07    4.33
  -2   6  -2   70.98    3.39
   6  -4  -2   70.72    3.59
  -4  -2  -2   72.71    3.69
  -2   6  -2   69.75    4.32
   2  -6   2   71.79    3.68
   2  -6   2   68.59    4.43
  -6   4   2   75.61    4.77
  -6   4   2   71.36    3.71
   4   2   2   76.08    5.15
   2  -6   2   70.42    3.17
   5  -4  -2  175.39    7.57
  -4  -1  -2  172.73    7.83
  -4  -1  -2  164.77    6.87
  -4  -1  -2  172.82    7.80
  -1   5  -2  171.43    7.13
   5  -4  -2  159.86    6.70
  -1   5  -2  170.48    6.50
  -1   5  -2  175.58    7.51
  -5   4   2  165.17    7.95
   4   1   2  168.50    8.48
   1  -5   2  175.64    7.73
   1  -5   2  168.92    6.27
  -5   4   2  175.28    6.91
   0   4  -2  202.03    8.22
  -4   0  -2  212.64    9.02
  -4   0  -2  223.45    9.16
   4  -4  -2  219.38    8.04
   0   4  -2  216.58    8.53
   0   4  -2  198.79    7.65
   0   4  -2  213.23    7.77
   4  -4  -2  211.16    8.70
  -4   0  -2  225.42    8.24
  -4   4   2  211.66    9.18
   0  -4   2  204.41    7.87
   0  -4   2  222.08    8.93
   0  -4   2  199.59    7.48
   4   0   2  239.18   10.24
  -4   1  -2  275.54    9.99
   3  -4  -2  263.59   10.43
   1   3  -2  271.51   10.20
   1   3  -2  261.92   10.03
  -4   1  -2  263.80   10.78
  -4   1  -2  271.91   10.82
   3  -4  -2  267.05    9.81
   1   3  -2  275.25    9.58
  -1  -3   2  269.11    9.30
   4  -1   2  316.12   12.23
  -3   4   2  263.47   10.89
  -1  -3   2  265.62    9.66
  -1  -3   2  263.85   10.57
   2  -4  -2  133.26    5.89
  -4   2  -2  131.56    6.07
   2   2  -2  139.11    5.66
   2   2  -2  148.24    5.88
   2   2  -2  138.95    5.18
  -4   2  -2  141.91    5.52
   2  -4  -2  136.94    5.33
  -4   2  -2  127.43    6.13
   4  -2   2  118.41    7.16
  -2  -2   2  137.68    4.96
  -2   4   2  130.35    5.30
  -2   4   2  135.09    6.30
  -4   3  -2 1340.28   46.32
   3   1  -2 1461.07   46.81
  -4   3  -2 1395.65   46.78
   1  -4  -2 1312.14   47.80
   1  -4  -2 1352.36   46.12
   3   1  -2 1360.19   46.27
  -4   3  -2 1333.51   45.78
   1  -4  -2 1381.21   45.70
   1  -4  -2 1376.57   48.07
   3   1  -2 1420.62   45.60
  -3  -1   2 1400.67   45.40
   4  -3   2 1394.85   48.37
   4  -3   2 1328.96   45.55
   4  -3   2 1346.95   46.21
  -1   4   2 1356.85   46.78
  -1   4   2 1302.07   45.64
  -3  -1   2 1359.39   46.00
   0  -4  -2 1885.94   63.33
   0  -4  -2 1863.71   64.18
   0  -4  -2 1883.53   65.75
  -4   4  -2 1896.33   64.97
   4   0  -2 2033.67   65.51
   4   0  -2 1939.31   63.36
  -4   4  -2 1858.11   63.37
  -4   4  -2 1892.17   66.96
   0  -4  -2 1881.05   64.12
  -4   0   2 1986.21   63.12
   4  -4   2 1946.58   67.64
   0   4   2 1841.86   67.25
   4  -4   2 1877.43   63.17
  -4   0   2 1890.60   65.42
   0   4   2 1860.98   63.34
  -1  -4  -2  114.79    5.63
  -4   5  -2  124.94    5.02
  -4   5  -2  112.26    4.86
   5  -1  -2  102.28    6.73
  -1  -4  -2  121.71    5.01
  -1  -4  -2  120.31    5.01
  -4   5  -2  111.89    4.82
   5  -1  -2  108.74    4.98
  -1  -4  -2  116.85    5.13
  -4   5  -2  114.28    5.85
   1   4   2  113.09    4.98
   1   4   2  114.63    5.97
  -5   1   2  120.87    5.77
  -5   1   2  117.96    4.92
   4  -5   2  118.09    4.74
   4  -5   2  122.69    5.39
  -5   1   2  108.54    4.21
  -2  -4  -2   18.34    2.05
  -2  -4  -2   19.84    1.97
  -2  -4  -2   20.84    1.67
  -4   6  -2   18.53    2.20
  -4   6  -2   18.55    1.52
  -4   6  -2   18.32    1.60
   6  -2  -2   12.33    3.31
   2   4   2   19.92    0.98
  -6   2   2   17.50    2.16
   2   4   2   19.04    1.69
   2   4   2   20.94    2.48
  -6   2   2   19.16    1.65
   4  -6   2   19.45    1.84
  -3  -4  -2  137.96    6.14
  -4   7  -2  141.76    7.34
  -3  -4  -2  137.59    6.71
   7  -3  -2  148.26    6.23
  -3  -4  -2  139.91    7.05
  -7   3   2  143.57    7.47
   4  -7   2  126.64    7.26
   4  -7   2  136.68    6.71
  -7   3   2  130.06    6.07
   3   4   2  137.50    7.69
  -4   8  -2   47.64    4.03
   8  -4  -2   49.82    3.97
  -4  -4  -2   44.28    3.57
   8  -4  -2   50.84    3.22
   4   4   2   40.51    4.29
  -8   4   2   46.21    4.15
   4  -8   2   46.97    4.14
   9  -5  -2    7.80    2.16
  -5  -4  -2    6.72    1.85
  -4   9  -2    5.74    1.91
   9  -5  -2    7.53    1.62
  -9   5   2    6.01    1.98
   5   4   2    3.34    1.89
   8  -5  -2    5.94    1.68
  -5  -3  -2    7.96    1.99
  -5  -3  -2    8.24    2.89
   8  -5  -2    6.48    1.32
  -3   8  -2    6.67    1.73
   5   3   2    4.24    1.96
  -8   5   2    6.07    1.86
  -8   5   2    8.13    1.75
  -5  -2  -2   20.12    2.16
   7  -5  -2   19.87    2.19
  -5  -2  -2   16.80    2.57
   7  -5  -2   22.66    2.48
  -5  -2  -2   22.05    3.06
  -2   7  -2   23.92    2.60
  -7   5   2   22.28    2.00
  -7   5   2   24.21    3.47
   5   2   2   20.75    3.51
   2  -7   2   30.57    2.83
  -5  -1  -2    8.54    1.34
  -5  -1  -2    8.15    1.91
  -1   6  -2    8.13    1.68
   6  -5  -2    8.20    1.25
  -5  -1  -2    8.95    1.79
   6  -5  -2    9.56    1.83
  -1   6  -2    8.84    1.17
  -6   5   2    7.74    1.28
   1  -6   2    8.33    0.97
  -6   5   2   10.15    2.10
   1  -6   2    7.51    1.61
   5   1   2    7.54    2.16
   0   5  -2    0.53    0.51
   0   5  -2    0.85    0.65
   0   5  -2   -0.04    0.36
   5  -5  -2    0.21    0.50
   0   5  -2    0.11    0.31
  -5   0  -2    0.14    0.53
   5  -5  -2    0.44    0.45
  -5   0  -2    0.24    0.40
  -5   0  -2    0.14    0.86
   0  -5   2    0.24    0.55
   0  -5   2    0.44    0.27
  -5   5   2    0.14    0.65
   5   0   2    2.16    1.44
   0  -5   2    2.08    0.62
   4  -5  -2  161.01    7.32
   1   4  -2  165.26    7.19
  -5   1  -2  160.52    6.76
  -5   1  -2  170.46    7.75
   1   4  -2  165.87    6.99
   1   4  -2  164.32    6.38
   4  -5  -2  167.47    6.63
  -5   1  -2  174.30    7.84
  -1  -4   2  169.31    7.48
  -1  -4   2  160.89    6.47
  -4   5   2  173.37    7.95
  -1  -4   2  163.53    6.03
  -5   2  -2   93.19    4.98
   2   3  -2   93.34    3.88
   2   3  -2   93.45    4.43
   3  -5  -2   88.68    4.01
  -5   2  -2   95.42    5.10
   2   3  -2   93.55    4.64
  -5   2  -2   90.71    4.21
   3  -5  -2   89.95    4.65
   5  -2   2   74.10    5.93
  -2  -3   2   95.24    3.59
  -3   5   2   97.05    5.19
  -2  -3   2   76.35    3.87
  -5   3  -2  178.07    7.00
   3   2  -2  165.77    7.29
   3   2  -2  175.29    6.71
  -5   3  -2  176.64    7.98
   2  -5  -2  174.27    6.33
  -5   3  -2  174.85    7.70
   2  -5  -2  178.23    7.54
   2  -5  -2  170.26    6.77
   3   2  -2  174.77    7.72
  -2   5   2  164.66    6.83
  -2   5   2  171.75    8.02
   5  -3   2  163.31    7.37
  -3  -2   2  178.71    6.46
   5  -3   2  180.64    6.80
  -5   4  -2  116.96    5.60
   1  -5  -2  121.05    5.70
   1  -5  -2  121.16    5.03
  -5   4  -2  121.52    5.18
   4   1  -2  116.30    4.99
  -5   4  -2  112.63    6.00
   4   1  -2  110.38    6.22
   1  -5  -2  121.52    5.32
   1  -5  -2  117.25    4.53
  -4  -1   2  121.88    5.48
  -4  -1   2  113.56    4.74
  -1   5   2  118.08    6.05
   5  -4   2  125.30    4.97
  -1   5   2  114.54    4.98
   5  -4   2  110.99    5.50
  -5   5  -2   35.92    2.49
  -5   5  -2   33.08    2.26
   0  -5  -2   38.81    2.28
   5   0  -2   35.07    2.27
   5   0  -2   30.08    3.44
   0  -5  -2   37.67    2.81
   0  -5  -2   34.53    2.32
   0  -5  -2   35.39    2.09
  -5   5  -2   35.00    3.01
   5  -5   2   35.93    2.62
  -5   0   2   36.01    1.47
   0   5   2   33.35    2.20
   5  -5   2   37.25    2.14
  -5   0   2   37.25    2.76
   0   5   2   36.90    3.11
  -1  -5  -2  186.47    7.60
  -5   6  -2  187.63    7.70
  -1  -5  -2  186.08    8.48
  -5   6  -2  191.60    7.58
   6  -1  -2  192.24    7.86
  -1  -5  -2  200.33    7.83
  -5   6  -2  185.29    7.48
  -5   6  -2  189.23    8.92
  -1  -5  -2  190.86    7.69
   6  -1  -2  157.63    9.99
  -6   1   2  194.18    7.60
  -6   1   2  194.75    8.68
   1   5   2  188.02    8.97
   1   5   2  171.87    9.13
   5  -6   2  190.11    7.41
   5  -6   2  194.05    8.26
  -6   1   2  184.45    6.65
  -2  -5  -2   84.00    5.01
  -5   7  -2   85.96    5.43
  -2  -5  -2   80.40    4.41
  -5   7  -2   83.11    4.25
  -7   2   2   79.53    5.21
   5  -7   2   84.32    4.71
   2   5   2   83.76    5.54
   8  -3  -2   13.31    3.87
  -5   8  -2   18.03    2.93
   8  -3  -2   19.56    2.29
  -3  -5  -2   18.79    2.19
   5  -8   2   13.22    2.71
  -8   3   2   17.41    2.88
   3   5   2   17.57    3.15
   9  -4  -2   25.74    3.68
  -4  -5  -2   22.64    2.62
  -5   9  -2   24.38    3.71
   9  -4  -2   28.11    3.00
   5  -9   2   25.35    3.95
   4   5   2   21.57    3.88
  10  -5  -2   73.52    4.65
  10  -5  -2   77.19    5.89
  -5  10  -2   65.92    5.76
  -5  -5  -2   75.07    5.14
   5   5   2   57.16    6.00
  10  -6  -2    6.82    2.13
  -6  -4  -2    4.71    1.81
  -4  10  -2    4.33    2.01
   6   4   2    3.91    2.28
   4 -10   2   14.64    3.11
  -6  -3  -2   21.95    3.24
  -3   9  -2   19.47    3.31
   9  -6  -2   23.04    2.65
   9  -6  -2   17.78    3.06
  -9   6   2   22.65    3.80
   6   3   2   18.48    3.81
   3  -9   2   20.93    3.66
   8  -6  -2   15.20    2.00
  -6  -2  -2   16.72    2.85
  -6  -2  -2   13.90    3.26
  -2   8  -2   13.22    2.47
   8  -6  -2   17.08    2.81
  -8   6   2   15.55    2.07
  -8   6   2   17.10    3.05
   6   2   2   15.07    3.55
  -1   7  -2   14.94    2.39
  -6  -1  -2   16.46    2.66
   7  -6  -2   16.25    1.96
   7  -6  -2   16.33    2.44
  -6  -1  -2   19.72    3.09
   1  -7   2   15.98    1.95
   6   1   2   14.47    3.47
  -7   6   2   16.59    2.91
  -7   6   2   16.61    2.04
  -6   0  -2    2.40    0.79
   6  -6  -2    1.85    0.73
   0   6  -2    4.52    1.18
   6  -6  -2    1.34    0.89
  -6   0  -2    3.00    1.38
  -6   0  -2    2.46    1.20
   6   0   2    1.52    1.38
  -6   6   2    1.94    1.19
   0  -6   2    5.45    1.14
   5  -6  -2    7.97    1.23
   5  -6  -2    9.72    1.80
   1   5  -2    8.58    1.16
  -6   1  -2    7.92    1.80
  -6   1  -2    9.13    2.03
  -6   1  -2    8.02    1.38
   1   5  -2    6.77    1.52
  -1  -5   2    8.10    1.67
  -1  -5   2    8.72    1.68
  -5   6   2    8.34    1.90
   6  -1   2    9.56    2.72
   4  -6  -2   72.31    4.30
   2   4  -2   72.60    3.44
   4  -6  -2   75.35    3.66
  -6   2  -2   76.56    4.74
  -6   2  -2   72.52    3.81
   2   4  -2   69.54    4.25
  -6   2  -2   73.26    4.72
  -2  -4   2   72.83    3.57
   6  -2   2   58.67    5.83
  -4   6   2   74.87    4.83
  -2  -4   2   70.43    3.08
   3   3  -2  113.75    4.96
  -6   3  -2  115.65    6.10
   3  -6  -2  114.73    4.47
  -6   3  -2  114.40    6.28
   3   3  -2  113.98    5.99
   3  -6  -2  114.21    5.03
  -6   3  -2  118.61    5.32
   3  -6  -2  117.87    4.51
   3  -6  -2  110.62    5.73
  -3  -3   2  113.67    4.59
  -3   6   2  118.11    6.41
   2  -6  -2   19.09    2.03
  -6   4  -2   21.07    1.82
   4   2  -2   16.77    2.58
   2  -6  -2   19.95    1.96
   4   2  -2   17.98    1.55
  -6   4  -2   20.88    2.42
   2  -6  -2   19.00    1.60
  -6   4  -2   16.55    2.05
   6  -4   2   19.01    2.02
  -2   6   2   18.28    2.68
  -4  -2   2   18.71    1.79
  -4  -2   2   18.21    1.37
   6  -4   2   17.64    1.56
  -6   5  -2  190.60    8.31
   5   1  -2  185.13    9.72
   1  -6  -2  199.18    8.58
   1  -6  -2  189.49    8.02
   1  -6  -2  180.71    7.54
  -6   5  -2  190.60    7.86
   5   1  -2  183.43    7.70
  -6   5  -2  188.06    9.05
   1  -6  -2  188.54    6.80
  -5  -1   2  191.86    7.40
  -1   6   2  186.64    8.96
  -5  -1   2  184.26    8.22
   6  -5   2  194.77    7.58
   6  -5   2  192.08    8.47
  -6   6  -2  252.58   10.26
   0  -6  -2  253.78   10.90
   0  -6  -2  247.62    9.44
  -6   6  -2  247.45   11.50
   0  -6  -2  253.90   10.25
   0  -6  -2  250.32    9.91
   6   0  -2  269.36   13.25
  -6   6  -2  262.94   10.19
   0   6   2  258.55   11.57
   6  -6   2  264.28    9.88
   6  -6   2  264.53   10.85
  -6   0   2  254.83   10.94
  -6   7  -2   13.58    2.48
  -1  -6  -2   13.43    1.53
   7  -1  -2   13.18    3.50
  -6   7  -2   12.46    1.75
  -1  -6  -2   13.23    2.21
  -7   1   2   13.46    2.31
   1   6   2   16.46    2.78
   6  -7   2   14.50    2.20
  -6   8  -2   99.91    6.48
  -2  -6  -2   97.61    5.04
   2   6   2   94.00    6.39
  -6   9  -2    7.41    2.31
   9  -3  -2    6.60    1.56
   9  -3  -2    0.98    2.20
   3   6   2    5.73    2.06
   6  -9   2    7.74    2.47
  10  -4  -2   41.64    3.52
  10  -4  -2   45.17    4.55
  -6  10  -2   37.87    4.40
   4   6   2   39.00    4.80
  -3  10  -2   42.49    4.24
  -7  -3  -2   27.84    4.06
  10  -7  -2   27.03    4.09
 -10   7   2   25.58    4.42
   7   3   2   19.16    4.79
   3 -10   2   36.07    5.50
  -2   9  -2    2.54    1.24
   9  -7  -2    2.03    1.19
  -7  -2  -2    1.78    1.38
   7   2   2   -0.37    1.60
   2  -9   2    0.85    1.58
  -9   7   2    0.69    1.31
   8  -7  -2    1.29    0.87
  -7  -1  -2    1.51    1.33
   8  -7  -2    0.69    0.95
  -1   8  -2   -0.18    1.10
   1  -8   2    5.81    1.54
  -8   7   2    0.57    1.19
   7   1   2    1.39    1.92
   0   7  -2    3.18    1.35
  -7   0  -2    3.50    1.49
   7  -7  -2    2.79    0.95
   7  -7  -2    1.73    1.17
  -7   0  -2    2.33    1.36
   7   0   2    3.40    2.33
  -7   7   2    3.84    1.63
   6  -7  -2   14.21    1.77
   6  -7  -2   20.36    2.91
   1   6  -2   19.07    2.23
  -7   1  -2   16.40    2.06
  -7   1  -2   18.84    3.00
  -7   1  -2   17.82    2.89
  -1  -6   2   20.15    2.12
   7  -1   2   13.42    3.59
  -6   7   2   16.53    2.89
   2   5  -2   16.07    2.49
   5  -7  -2   18.84    1.99
  -7   2  -2   17.61    2.86
   5  -7  -2   20.01    2.76
  -7   2  -2   19.51    2.98
  -7   2  -2   20.42    2.22
  -5   7   2   18.38    2.99
   7  -2   2   14.55    3.65
  -7   3  -2   66.06    4.72
   3   4  -2   68.20    4.61
   4  -7  -2   66.29    3.57
  -7   3  -2   67.26    4.66
  -7   3  -2   65.78    3.79
   4  -7  -2   64.82    4.29
  -4   7   2   65.14    4.84
  -7   4  -2  142.13    7.23
   4   3  -2  135.21    7.50
   3  -7  -2  138.00    6.87
  -7   4  -2  143.53    7.69
   3  -7  -2  136.97    6.05
   3  -7  -2  139.52    6.95
  -7   4  -2  138.56    6.35
  -3   7   2  134.17    7.53
   7  -4   2  139.77    6.14
   7  -4   2  140.01    7.09
  -7   5  -2   91.65    4.55
   2  -7  -2   80.21    4.67
  -7   5  -2   77.80    4.79
   2  -7  -2   87.07    4.99
   5   2  -2   68.95    5.49
  -7   5  -2   79.81    5.45
  -2   7   2   82.92    5.43
   7  -5   2   81.90    4.97
   7  -5   2   81.59    4.14
  -7   6  -2   16.93    2.06
   1  -7  -2   13.55    2.22
   6   1  -2   11.81    2.91
  -7   6  -2   15.13    1.96
   1  -7  -2   15.09    1.89
  -7   6  -2   15.81    2.80
  -1   7   2   13.87    2.66
   7  -6   2   13.18    2.19
  -7   7  -2   16.05    2.84
   0  -7  -2   16.02    1.97
   7   0  -2   23.14    4.35
  -7   7  -2   16.96    2.16
   7  -7   2   16.45    2.52
   0   7   2   18.37    3.12
  -7   8  -2   20.51    2.41
  -7   8  -2   21.02    3.38
   8  -1  -2   13.19    4.23
   1   7   2   23.47    3.47
   9  -2  -2   10.80    4.19
  -7   9  -2   18.77    3.41
   2   7   2   21.25    3.79
  -7  10  -2    3.15    1.87
  10  -3  -2    2.42    1.25
  10  -3  -2   -1.19    2.22
   3   7   2    0.67    1.58
  -1   9  -2    6.54    2.27
   9  -8  -2    7.66    2.14
  -8  -1  -2   10.28    2.73
   8   1   2    2.98    2.38
  -9   8   2    7.30    2.51
   1  -9   2    5.52    2.33
  -8   0  -2    7.68    2.31
   0   8  -2    7.29    2.01
   8  -8  -2    4.68    1.71
   8   0   2    1.76    2.32
  -8   8   2    4.51    1.90
  -8   1  -2    0.46    1.04
   7  -8  -2    1.22    1.04
   1   7  -2   -0.92    0.92
  -8   1  -2   -0.10    1.05
  -7   8   2    1.85    1.38
   8  -1   2    0.17    1.77
  -1  -7   2    3.73    1.42
  -8   2  -2   18.24    2.94
   6  -8  -2   12.60    2.35
  -8   2  -2   15.63    2.87
   2   6  -2   14.25    2.63
   8  -2   2    7.00    3.11
  -6   8   2   18.50    3.37
  -8   3  -2    6.85    1.47
   3   5  -2    6.49    1.88
  -8   3  -2    7.47    2.02
  -8   3  -2    4.86    1.68
   5  -8  -2    6.62    1.73
  -5   8   2    7.17    2.24
   8  -3   2    2.66    2.25
  -8   4  -2   46.43    3.28
   4  -8  -2   53.90    3.98
   4   4  -2   45.97    4.17
  -8   4  -2   48.35    4.03
  -8   4  -2   44.01    4.18
   4  -8  -2   41.54    3.63
   8  -4   2   50.75    3.21
  -4   8   2   49.55    4.42
   8  -4   2   52.62    4.10
  -8   5  -2   17.59    3.06
   5   3  -2   14.86    3.03
   3  -8  -2   16.74    2.58
  -8   5  -2   19.09    2.90
  -8   5  -2   18.15    2.30
   3  -8  -2   18.72    2.98
   8  -5   2   19.68    2.26
   8  -5   2   19.29    2.93
  -3   8   2   18.01    3.14
  -8   6  -2  103.11    5.36
   6   2  -2   82.34    6.95
  -8   6  -2  101.44    5.78
  -8   6  -2  102.27    6.74
   2  -8  -2  103.48    5.72
   8  -6   2  103.88    6.10
  -2   8   2   97.03    6.44
   1  -8  -2   20.05    2.42
   7   1  -2   15.50    3.86
  -8   7  -2   23.36    2.66
  -8   7  -2   25.06    3.94
  -1   8   2   20.77    3.38
   8  -7   2   18.62    2.82
   8   0  -2    2.13    2.24
  -8   8  -2    3.30    1.79
  -8   8  -2    2.56    1.10
   0   8   2    3.60    1.82
   9  -1  -2    1.08    2.59
  -8   9  -2    0.73    1.31
   1   8   2    0.25    1.30
   0   9  -2    2.66    1.53
  -9   9   2    1.94    1.62
   9   0   2    0.93    2.45
  -9   1  -2    8.91    2.45
  -8   9   2    8.63    2.67
   9  -1   2    1.11    2.30
  -1  -8   2    6.82    1.93
  -9   2  -2    0.35    1.07
   9  -2   2    1.65    2.51
  -7   9   2    1.82    1.50
  -9   3  -2   20.62    3.54
  -9   3  -2   26.93    3.93
   3   6  -2   22.13    3.57
  -6   9   2   23.30    3.83
   4   5  -2    6.55    2.10
   5  -9  -2    7.32    2.23
  -9   4  -2    4.83    1.92
  -9   4  -2    6.46    2.11
   9  -4   2    0.11    1.89
   9  -4   2    5.86    1.93
  -5   9   2    4.74    1.98
  -9   5  -2   20.68    2.64
   5   4  -2   17.45    3.34
   4  -9  -2   22.93    2.95
  -9   5  -2   21.96    3.61
  -9   5  -2   27.17    3.15
   9  -5   2   22.89    3.37
  -4   9   2   30.51    4.33
   3  -9  -2   11.11    2.17
  -9   6  -2   12.36    2.16
   6   3  -2    6.18    2.34
  -9   6  -2    8.12    1.73
  -9   6  -2    7.09    2.28
   9  -6   2    8.02    2.01
  -3   9   2    8.45    2.48
  -9   7  -2   24.10    4.07
  -9   7  -2   21.13    2.77
   2  -9  -2   21.69    3.13
   7   2  -2   12.38    3.47
  -2   9   2   23.74    3.80
  -9   8  -2    0.89    0.95
  -9   8  -2    0.14    1.28
   8   1  -2    1.51    2.11
  -1   9   2    0.10    1.28
  -9   9  -2    0.23    1.35
   9   0  -2    1.85    2.58
   0   9   2    0.44    1.41
   3   7  -2   20.12    3.70
 -10   3  -2   22.04    3.98
  -7  10   2   27.34    4.52
   6 -10  -2    9.79    2.74
 -10   4  -2    6.66    2.21
 -10   4  -2    5.97    2.27
   4   6  -2    4.59    2.14
  10  -4   2    6.92    2.26
  10  -4   2    0.73    2.43
  -6  10   2    5.41    2.28
   5   5  -2   51.94    5.58
 -10   5  -2   74.89    5.72
   5 -10  -2   67.65    5.82
 -10   5  -2   76.72    6.28
  -5  10   2   81.50    6.46
  10  -5   2   78.90    5.88
   4 -10  -2   29.76    4.19
 -10   6  -2   42.55    4.74
   6   4  -2   32.01    5.04
  -4  10   2   42.61    4.62
  10  -6   2   39.11    4.07
   7   3  -2    2.39    2.27
 -10   7  -2    4.85    2.15
  -3  10   2    3.10    1.90
   0   0  -3  690.95   24.29
   0   0  -3  703.58   23.20
   0   0  -3  686.24   23.80
   0   0  -3  679.89   24.68
   0   0   3  683.18   23.20
   0   0   3  678.75   22.86
   0   0   3  669.22   23.62
   1  -1  -3    0.34    0.20
  -1   0  -3    0.56    0.39
   1  -1  -3    0.71    0.22
  -1   0  -3    0.50    0.33
   1  -1  -3    0.48    0.26
   1  -1  -3    0.39    0.35
  -1   0  -3    0.64    0.30
  -1   0  -3    0.75    0.26
   1   0   3    0.63    0.25
   0  -1   3    0.51    0.31
  -1   1   3    0.69    0.37
   1   0   3    1.18    0.50
  -1   1   3    0.69    0.22
   1   0   3    0.40    0.21
  -1   1   3    0.63    0.20
   1   0  -3  924.70   32.11
   0  -1  -3  911.43   31.36
   0  -1  -3  953.13   32.76
   1   0  -3  923.58   31.80
  -1   1  -3  902.87   32.02
   0  -1  -3  938.99   31.91
   0  -1  -3  938.29   32.10
   0  -1  -3  934.07   32.29
  -1   1  -3  952.39   31.41
  -1   1  -3  930.74   34.59
   0  -1  -3  906.63   31.27
   1  -1   3  902.98   30.99
   0   1   3  934.02   31.76
   1  -1   3  945.03   31.18
   0   1   3  941.98   31.40
   1  -1   3  893.80   34.29
   0   1   3  897.89   32.30
   2  -1  -3  220.89    7.93
   2  -1  -3  237.08    8.56
  -1  -1  -3  233.56    8.64
  -1   2  -3  230.86    8.02
  -1  -1  -3  226.79    8.60
  -1  -1  -3  215.60    7.80
   2  -1  -3  232.86    8.03
  -1   2  -3  225.77    8.29
  -1   2  -3  229.11    7.92
  -1   2  -3  240.37    7.79
  -1  -1  -3  221.83    8.14
  -1   2  -3  232.61    7.74
   2  -1  -3  224.14    8.25
   1   1   3  244.55    8.93
   1   1   3  235.04    8.15
  -2   1   3  219.16    7.89
  -2   1   3  219.16    8.39
   1  -2   3  224.87    8.73
  -2  -1  -3  472.61   15.94
  -1   3  -3  486.58   16.37
  -1   3  -3  502.20   16.04
  -1   3  -3  472.58   16.48
  -1   3  -3  480.59   16.32
  -2  -1  -3  483.56   17.17
  -2  -1  -3  466.47   17.19
   3  -2  -3  465.98   16.85
   3  -2  -3  478.84   16.49
   3  -2  -3  485.79   16.35
  -1   3  -3  475.73   16.07
   1  -3   3  458.95   15.82
  -3   2   3  470.09   17.16
   2   1   3  506.90   17.71
   2   1   3  476.70   16.52
   1  -3   3  453.72   17.25
   0   2  -3    8.21    0.40
   0   2  -3    7.92    0.40
   2  -2  -3    8.00    0.69
   0   2  -3    8.26    0.51
  -2   0  -3    8.37    0.77
  -2   0  -3    8.02    1.02
   2  -2  -3    8.47    0.91
   0   2  -3    7.61    0.47
  -2   0  -3    9.44    1.04
   2   0   3    7.78    0.73
  -2   2   3    8.32    0.89
   2   0   3    9.45    1.44
  -2   2   3    8.49    1.18
   0  -2   3    8.15    1.02
   1   1  -3  234.45    7.65
   1  -2  -3  231.82    8.12
  -2   1  -3  228.99    8.14
   1  -2  -3  229.45    8.53
  -2   1  -3  232.35    8.58
  -2   1  -3  226.22    8.68
   1   1  -3  230.03    7.80
   1   1  -3  229.18    7.79
  -1   2   3  222.97    8.72
   2  -1   3  225.24    8.08
  -1   2   3  222.45    8.07
  -1  -1   3  240.40    8.81
   2   0  -3    8.26    1.16
   0  -2  -3    8.54    0.89
   0  -2  -3    8.12    0.75
  -2   2  -3    7.83    0.66
   2   0  -3    7.51    0.54
  -2   2  -3    7.92    1.43
   2   0  -3    7.69    0.79
   2   0  -3    8.46    0.62
   0  -2  -3    8.01    0.95
  -2   2  -3    8.79    0.92
  -2   2  -3    9.18    0.93
   0  -2  -3    8.00    0.47
   0   2   3    8.35    0.59
   2  -2   3    8.52    0.59
   0   2   3    6.08    0.71
   2  -2   3    7.45    0.71
  -2   0   3    8.43    0.57
   0   2   3    9.88    1.35
   3  -1  -3  321.16   12.18
   3  -1  -3  343.69   13.36
  -1  -2  -3  334.84   12.10
  -2   3  -3  323.42   11.33
   3  -1  -3  321.90   11.55
  -2   3  -3  339.74   11.43
  -2   3  -3  328.16   11.70
  -1  -2  -3  346.82   12.38
  -2   3  -3  327.99   11.91
  -1  -2  -3  333.73   11.71
  -2   3  -3  338.70   11.75
   2  -3   3  323.09   12.44
   1   2   3  320.09   12.55
   1   2   3  322.76   11.66
   1   2   3  334.82   11.21
  -3   1   3  324.85   11.25
  -3   1   3  334.01   12.09
   1   2   3  322.17   11.09
   2  -3   3  328.94   11.20
   4  -2  -3  335.79   12.25
   4  -2  -3  329.61   11.78
  -2   4  -3  322.89   11.83
  -2   4  -3  319.07   11.35
   4  -2  -3  317.51   11.57
  -2  -2  -3  339.98   12.64
  -2  -2  -3  330.95   12.39
  -2   4  -3  324.98   11.40
  -2   4  -3  329.58   11.43
  -2  -2  -3  333.50   11.84
  -2   4  -3  321.08   12.10
   4  -2  -3  277.18   13.52
   2   2   3  351.77   13.13
   2   2   3  325.72   11.44
   2  -4   3  331.63   11.15
  -4   2   3  333.35   11.65
  -4   2   3  324.76   12.52
   2  -4   3  322.72   12.69
  -3  -2  -3  231.21    9.64
   5  -3  -3  234.45    8.68
   5  -3  -3  217.91    9.35
  -3  -2  -3  228.64    9.76
  -2   5  -3  227.28    7.93
   5  -3  -3  234.07    8.95
  -3  -2  -3  220.36    8.83
  -2   5  -3  229.37    8.39
  -2   5  -3  226.70    9.33
  -2   5  -3  231.24    8.98
   2  -5   3  227.56    9.86
   2  -5   3  237.61    8.54
   2  -5   3  229.57    8.10
  -5   3   3  235.04    8.77
  -5   3   3  227.09    9.83
   3   2   3  238.67   10.43
  -3  -1  -3   50.33    3.26
   4  -3  -3   49.63    3.00
  -3  -1  -3   52.13    2.02
   4  -3  -3   52.42    2.73
  -1   4  -3   51.52    2.28
   4  -3  -3   50.52    2.56
  -1   4  -3   53.13    2.65
  -1   4  -3   51.03    2.30
  -3  -1  -3   51.49    2.73
  -3  -1  -3   51.42    3.27
  -1   4  -3   53.06    2.86
   1  -4   3   53.04    3.31
   1  -4   3   53.31    2.03
   3   1   3   60.78    3.86
   1  -4   3   52.43    2.20
  -4   3   3   53.39    3.37
  -3   0  -3  185.48    7.80
   3  -3  -3  180.50    7.09
   3  -3  -3  187.02    6.95
   3  -3  -3  184.91    7.51
   0   3  -3  186.49    6.84
   0   3  -3  187.98    6.55
  -3   0  -3  185.03    7.12
  -3   0  -3  186.06    7.77
   0   3  -3  185.98    6.98
   0  -3   3  179.15    7.73
   3   0   3  208.58    8.67
  -3   3   3  186.86    7.88
  -3   1  -3  464.63   17.42
   2  -3  -3  475.51   17.23
   1   2  -3  490.48   16.56
   2  -3  -3  474.45   16.66
  -3   1  -3  475.05   16.76
  -3   1  -3  479.48   17.48
   1   2  -3  488.24   16.23
   1   2  -3  463.75   16.48
  -1  -2   3  481.75   17.49
   3  -1   3  559.18   18.61
  -2   3   3  486.14   17.63
  -3   2  -3  341.95   11.72
   1  -3  -3  328.04   11.69
   1  -3  -3  329.22   11.85
   1  -3  -3  334.85   12.26
  -3   2  -3  336.41   12.39
   2   1  -3  335.82   11.36
  -3   2  -3  326.52   12.29
   2   1  -3  323.00   11.17
   2   1  -3  330.93   11.74
  -1   3   3  325.72   11.65
  -2  -1   3  337.61   11.30
  -2  -1   3  332.68   11.06
  -1   3   3  342.02   12.59
   3  -2   3  320.26   13.34
   3   0  -3 1951.94   65.15
   3   0  -3 1832.23   60.18
  -3   3  -3 1814.00   62.71
  -3   3  -3 1731.58   62.96
   0  -3  -3 1776.34   60.11
   0  -3  -3 1770.36   60.68
   0  -3  -3 1742.12   61.13
   3   0  -3 1830.62   61.56
  -3   3  -3 1717.24   61.10
   0  -3  -3 1758.42   59.75
  -3   3  -3 1795.23   59.68
   3  -3   3 1722.28   62.49
  -3   0   3 1790.04   59.33
   0   3   3 1804.96   62.35
  -3   0   3 1754.92   59.43
  -3   0   3 1695.93   61.33
   0   3   3 1731.83   59.81
  -3   4  -3   38.91    2.42
   4  -1  -3   43.81    2.28
  -3   4  -3   41.15    2.29
  -3   4  -3   42.53    2.69
  -1  -3  -3   40.82    2.78
   4  -1  -3   45.01    3.83
  -1  -3  -3   42.97    2.56
  -1  -3  -3   43.97    2.35
  -3   4  -3   40.55    2.07
  -3   4  -3   43.43    2.19
   1   3   3   42.77    2.33
   1   3   3   43.07    3.05
  -4   1   3   45.38    2.75
   1   3   3   37.46    1.78
   3  -4   3   44.24    2.35
   1   3   3   39.76    1.93
  -4   1   3   43.10    1.85
   3  -4   3   43.46    1.99
  -3   5  -3   83.41    3.48
  -3   5  -3   81.69    3.65
  -2  -3  -3   80.62    4.53
  -2  -3  -3   81.60    3.88
  -3   5  -3   79.20    4.35
   5  -2  -3   80.79    3.89
  -3   5  -3   80.30    3.55
   5  -2  -3   81.32    6.02
  -2  -3  -3   83.87    4.34
   2   3   3   76.81    4.79
   3  -5   3   82.03    3.81
   3  -5   3   80.14    3.35
  -5   2   3   82.76    3.75
  -5   2   3   83.53    4.56
   2   3   3   83.13    3.08
   3  -5   3   81.09    4.73
  -3  -3  -3  279.78   11.44
   6  -3  -3  280.90   11.50
  -3  -3  -3  279.62   10.70
  -3   6  -3  275.37   11.50
  -3  -3  -3  279.26   11.76
  -3   6  -3  277.87   10.28
   6  -3  -3  278.37   10.53
   3   3   3  289.61   12.52
  -6   3   3  274.86   11.80
   3  -6   3  285.01   12.01
  -6   3   3  277.59   10.58
   3  -6   3  266.91    9.94
  -4  -3  -3  284.10   12.03
   7  -4  -3  286.43   12.08
   7  -4  -3  274.13   10.91
  -3   7  -3  288.59   12.14
  -4  -3  -3  263.22   12.08
  -4  -3  -3  285.60   11.06
   4   3   3  278.13   13.20
  -7   4   3  276.40   10.96
  -7   4   3  292.65   12.61
   3  -7   3  291.42   12.62
  -4  -2  -3   27.07    2.63
  -4  -2  -3   27.67    2.07
  -4  -2  -3   27.85    2.72
  -2   6  -3   27.73    2.50
  -2   6  -3   27.69    1.76
   6  -4  -3   27.48    1.98
   6  -4  -3   26.07    2.46
   2  -6   3   21.55    2.42
  -6   4   3   27.64    2.74
   4   2   3   27.21    3.15
   2  -6   3   27.08    1.80
  -6   4   3   26.93    2.02
  -1   5  -3  194.23    7.86
  -1   5  -3  188.04    6.89
  -1   5  -3  182.71    7.45
  -4  -1  -3  187.51    8.38
  -4  -1  -3  184.06    8.37
  -4  -1  -3  184.65    6.28
   5  -4  -3  180.30    8.00
   5  -4  -3  180.72    7.23
  -4  -1  -3  185.30    7.42
  -1   5  -3  178.01    6.46
   4   1   3  183.68    9.09
   1  -5   3  175.99    6.77
  -5   4   3  179.16    8.44
   1  -5   3  191.17    8.41
   0   4  -3  101.05    4.39
  -4   0  -3   93.21    5.14
   4  -4  -3   98.42    4.32
   0   4  -3  103.78    4.00
   4  -4  -3  105.11    5.01
  -4   0  -3  100.31    4.49
   0   4  -3   98.54    4.59
  -4   0  -3   98.88    5.25
   0  -4   3   97.03    5.11
   4   0   3  109.29    6.17
  -4   4   3  100.35    5.34
   1   3  -3   52.54    2.75
  -4   1  -3   52.10    2.76
   3  -4  -3   57.34    2.70
  -4   1  -3   49.31    3.27
  -4   1  -3   53.35    3.39
   3  -4  -3   51.03    3.10
   1   3  -3   53.66    2.33
   1   3  -3   55.23    2.69
  -3   4   3   49.99    3.37
  -1  -3   3   54.94    3.34
   4  -1   3   62.16    4.34
  -4   2  -3  320.99   12.67
   2  -4  -3  322.35   12.43
   2   2  -3  333.21   12.05
   2   2  -3  322.65   11.87
   2   2  -3  324.85   11.41
   2  -4  -3  336.44   11.76
  -4   2  -3  334.37   12.66
  -4   2  -3  343.81   11.91
  -2  -2   3  329.47   11.22
   4  -2   3  313.79   14.06
  -2   4   3  324.94   12.89
   1  -4  -3   43.75    2.30
  -4   3  -3   42.24    2.75
   3   1  -3   42.75    2.11
   1  -4  -3   41.19    2.23
   1  -4  -3   42.43    2.75
   3   1  -3   45.37    2.89
   3   1  -3   41.26    1.67
  -4   3  -3   42.76    2.89
  -4   3  -3   42.67    2.33
   1  -4  -3   38.92    2.24
   3   1  -3   41.43    2.51
  -3  -1   3   44.55    1.91
   4  -3   3   36.83    3.51
  -3  -1   3   37.14    2.16
  -1   4   3   41.30    2.93
   4  -3   3   42.85    2.15
   4  -3   3   45.44    2.61
  -4   4  -3  316.31   12.31
  -4   4  -3  301.19   11.70
   4   0  -3  366.48   13.47
  -4   4  -3  308.39   11.34
   0  -4  -3  309.65   11.40
   0  -4  -3  304.51   11.35
   0  -4  -3  320.74   12.23
   4   0  -3  312.44   11.25
   0  -4  -3  305.06   11.11
   0   4   3  287.10   12.40
  -4   0   3  309.94   11.03
   4  -4   3  306.15   11.09
  -4   0   3  300.87   10.61
  -4   0   3  319.18   11.81
   4  -4   3  316.95   11.74
  -1  -4  -3   15.82    1.42
   5  -1  -3    8.71    2.31
  -4   5  -3   15.80    1.46
  -4   5  -3   18.34    1.45
  -4   5  -3   16.12    1.30
  -1  -4  -3   13.98    1.53
   5  -1  -3   17.02    1.44
  -4   5  -3   16.78    1.91
  -1  -4  -3   14.42    1.76
   1   4   3   15.71    2.29
   4  -5   3   10.37    1.01
  -5   1   3   16.22    1.79
   4  -5   3   13.36    1.42
   6  -2  -3   15.55    3.48
  -2  -4  -3   16.04    2.33
  -4   6  -3   16.19    1.51
  -4   6  -3   16.67    1.31
   6  -2  -3   12.33    1.64
  -4   6  -3   18.51    2.13
  -2  -4  -3   19.27    2.02
  -4   6  -3   17.35    1.46
  -2  -4  -3   17.00    1.90
   2   4   3   20.16    2.93
  -6   2   3   18.21    2.16
  -6   2   3   17.32    1.55
   4  -6   3   15.85    1.28
   4  -6   3   16.78    1.67
   2   4   3   19.35    1.00
   4  -6   3   13.83    2.27
  -4   7  -3   63.06    4.39
   7  -3  -3   65.19    4.33
  -3  -4  -3   61.91    3.54
  -3  -4  -3   61.25    4.06
  -3  -4  -3   64.42    4.40
   7  -3  -3   66.31    3.59
   7  -3  -3   40.75    6.07
  -7   3   3   62.80    3.51
  -7   3   3   60.69    4.41
   3   4   3   56.18    4.70
   4  -7   3   60.86    4.55
  -4  -4  -3   12.99    2.35
  -4   8  -3   11.76    2.32
  -4  -4  -3    9.44    2.09
   8  -4  -3   11.31    2.28
   8  -4  -3    9.09    1.61
  -8   4   3    8.69    2.16
   4   4   3   11.34    2.75
   4  -8   3   11.51    2.46
   9  -5  -3   25.76    3.73
  -5  -4  -3   22.60    3.26
   9  -5  -3   24.85    2.81
  -4   9  -3   20.18    3.29
   5   4   3   18.13    3.74
   8  -5  -3   19.64    2.26
   8  -5  -3   21.92    2.70
  -3   8  -3   19.35    2.94
  -5  -3  -3   19.51    3.07
  -5  -3  -3   18.45    2.92
   3  -8   3   23.57    2.99
  -8   5   3   21.61    3.45
   5   3   3   16.28    3.40
  -5  -2  -3   53.44    3.27
  -5  -2  -3   52.76    4.07
   7  -5  -3   52.95    3.16
  -2   7  -3   43.50    3.68
   7  -5  -3   50.85    3.85
  -5  -2  -3   46.25    3.93
   5   2   3   50.26    4.78
  -7   5   3   52.75    4.27
  -7   5   3   45.84    3.07
   2  -7   3   56.33    4.15
  -5  -1  -3  187.51    8.70
  -5  -1  -3  175.40    7.47
  -1   6  -3  170.94    7.98
  -5  -1  -3  182.10    8.63
   6  -5  -3  177.12    7.31
   6  -5  -3  182.57    8.25
  -1   6  -3  170.02    6.88
  -6   5   3  176.20    8.74
   5   1   3  166.48    9.52
   1  -6   3  179.33    8.49
  -5   0  -3   24.21    2.60
  -5   0  -3   22.96    2.43
   0   5  -3   22.76    2.12
   0   5  -3   21.87    1.84
  -5   0  -3   21.25    1.83
   0   5  -3   22.52    1.49
   5  -5  -3   23.63    1.77
   5  -5  -3   21.80    2.17
  -5   5   3   20.90    2.40
   5   0   3   21.98    3.54
   0  -5   3   24.01    2.36
   1   4  -3  177.36    6.88
  -5   1  -3  193.98    8.59
   4  -5  -3  184.10    8.06
   1   4  -3  185.36    7.66
  -5   1  -3  185.96    7.49
   1   4  -3  183.15    7.48
   4  -5  -3  185.65    7.30
   5  -1   3  174.59    9.55
  -1  -4   3  188.80    8.30
  -4   5   3  185.21    8.60
   2   3  -3  219.12    8.95
   3  -5  -3  241.62    9.64
   3  -5  -3  229.42    8.75
  -5   2  -3  227.94    9.83
   2   3  -3  229.54    8.43
   2   3  -3  237.78    9.25
  -5   2  -3  235.10    8.96
  -5   2  -3  220.15    9.82
   5  -2   3  236.89   11.80
  -3   5   3  227.44   10.04
  -5   3  -3   80.40    3.93
   3   2  -3   90.28    4.61
   2  -5  -3   86.66    3.87
   2  -5  -3   85.06    3.68
  -5   3  -3   84.98    4.67
   3   2  -3   81.39    3.62
   3   2  -3   84.31    4.21
  -5   3  -3   81.72    4.73
   2  -5  -3   84.24    4.51
   3   2  -3   81.83    3.00
  -3  -2   3   87.46    3.29
   5  -3   3   83.72    3.77
  -3  -2   3   81.39    3.68
  -2   5   3   77.47    4.73
   5  -3   3   67.66    5.55
   1  -5  -3   13.60    1.69
   1  -5  -3   15.44    1.26
   4   1  -3   13.68    1.25
  -5   4  -3   13.42    1.54
  -5   4  -3   13.85    2.10
  -5   4  -3   17.25    1.91
   4   1  -3   14.77    2.41
   1  -5  -3   16.97    1.48
   1  -5  -3   15.06    1.40
  -4  -1   3   15.42    1.13
  -1   5   3   17.26    2.11
   5  -4   3   14.27    1.58
   5  -4   3   15.56    1.29
  -5   5  -3  620.62   22.12
   0  -5  -3  635.84   21.60
   0  -5  -3  605.58   22.68
   0  -5  -3  625.42   21.72
   0  -5  -3  612.20   21.56
   5   0  -3  572.15   24.02
  -5   5  -3  622.21   23.01
  -5   5  -3  626.85   21.76
   5   0  -3  584.70   21.61
   5  -5   3  612.76   21.39
   5  -5   3  634.29   22.28
  -5   0   3  635.26   22.38
   0   5   3  629.36   23.29
  -5   0   3  636.22   21.38
  -1  -5  -3  321.49   12.14
  -1  -5  -3  335.19   13.27
  -5   6  -3  326.24   12.07
   6  -1  -3  318.14   12.19
  -5   6  -3  336.97   12.15
  -1  -5  -3  326.98   12.27
  -5   6  -3  313.56   11.92
  -5   6  -3  311.11   13.35
   6  -1  -3  256.96   14.72
   1   5   3  323.56   13.68
  -6   1   3  340.17   13.18
   5  -6   3  332.80   12.59
  -2  -5  -3   73.14    4.32
  -5   7  -3   78.05    4.01
  -2  -5  -3   75.26    4.87
  -5   7  -3   79.02    5.17
   2   5   3   73.49    5.31
   5  -7   3   78.18    5.34
  -7   2   3   73.91    4.89
  -3  -5  -3   75.59    4.61
  -5   8  -3   69.49    5.11
   8  -3  -3   83.48    4.33
   8  -3  -3   70.39    4.98
   5  -8   3   64.17    5.31
   3   5   3   65.55    5.43
  -5   9  -3   51.37    4.69
   9  -4  -3   57.14    3.82
  -4  -5  -3   57.19    4.29
   9  -4  -3   64.85    4.99
   5  -9   3   56.33    5.12
   4   5   3   54.77    5.36
  -5  10  -3   21.30    3.76
  10  -5  -3   21.90    3.67
  10  -5  -3   19.77    2.68
  -5  -5  -3   22.33    3.34
   5   5   3   16.50    3.86
  -4  10  -3   15.58    3.03
  -6  -4  -3   17.52    3.21
  10  -6  -3   13.72    3.02
  10  -6  -3   10.05    2.22
   6   4   3    6.54    2.82
   4 -10   3   22.36    4.00
   9  -6  -3    1.66    0.99
   9  -6  -3    2.39    1.45
  -6  -3  -3    2.08    1.48
  -3   9  -3    2.54    1.26
  -9   6   3    1.62    1.48
   6   3   3    2.06    1.82
  -6  -2  -3   28.82    3.24
   8  -6  -3   30.05    2.53
  -6  -2  -3   29.60    3.35
   8  -6  -3   32.88    3.31
  -2   8  -3   26.92    2.99
   6   2   3   20.76    4.19
  -8   6   3   31.69    3.62
   7  -6  -3   43.43    2.87
  -6  -1  -3   43.41    2.99
  -6  -1  -3   47.80    3.98
   7  -6  -3   39.31    3.46
  -1   7  -3   35.39    3.34
  -6  -1  -3   49.12    4.11
   1  -7   3   49.59    3.75
   6   1   3   37.75    5.40
  -7   6   3   41.80    4.00
   0   6  -3   34.79    2.83
  -6   0  -3   26.70    2.24
  -6   0  -3   24.45    2.82
   6  -6  -3   28.07    2.15
   6  -6  -3   27.72    2.73
  -6   0  -3   23.93    2.86
   0  -6   3   33.51    2.92
   6   0   3   24.69    4.27
  -6   6   3   25.79    3.01
   1   5  -3  174.19    7.74
  -6   1  -3  177.45    8.53
  -6   1  -3  175.43    8.49
  -6   1  -3  166.08    7.30
   5  -6  -3  176.20    8.07
   1   5  -3  169.32    6.76
   5  -6  -3  178.67    7.17
  -1  -5   3  172.49    8.18
   6  -1   3  153.18    9.70
  -5   6   3  171.50    8.65
  -6   2  -3   27.86    2.82
   2   4  -3   25.61    1.74
  -6   2  -3   26.95    2.13
   2   4  -3   28.80    2.26
   4  -6  -3   26.90    1.99
   4  -6  -3   25.84    2.48
  -6   2  -3   24.10    2.78
   2   4  -3   30.18    2.54
  -4   6   3   28.38    2.96
   6  -2   3   18.25    3.89
   3   3  -3  268.00   11.00
   3   3  -3  282.69   11.44
   3  -6  -3  279.55   10.52
   3   3  -3  272.99    9.36
   3   3  -3  277.68   10.26
  -6   3  -3  291.61   10.81
   3  -6  -3  284.12   10.19
  -6   3  -3  267.26   11.62
   3  -6  -3  283.46   11.49
  -6   3  -3  277.78   11.98
  -3   6   3  267.53   12.02
  -3  -3   3  269.11   10.14
   4   2  -3   16.54    2.48
  -6   4  -3   16.81    2.57
   2  -6  -3   16.54    1.76
  -6   4  -3   16.78    1.92
   4   2  -3   16.58    1.46
   2  -6  -3   17.21    2.37
   2  -6  -3   17.70    1.61
   2  -6  -3   15.39    1.20
  -6   4  -3   18.67    2.23
   6  -4   3   16.02    3.51
  -4  -2   3   15.65    1.16
  -2   6   3   17.67    2.73
   6  -4   3   17.93    1.96
  -4  -2   3   16.83    1.56
   6  -4   3   17.73    1.54
   5   1  -3  326.66   12.23
   1  -6  -3  318.63   12.22
   1  -6  -3  326.89   13.30
   5   1  -3  319.90   14.45
  -6   5  -3  329.33   13.80
   1  -6  -3  324.44   11.67
   1  -6  -3  331.80   12.42
  -6   5  -3  316.83   12.94
  -6   5  -3  333.03   12.44
  -5  -1   3  321.59   11.83
  -5  -1   3  323.09   12.65
  -1   6   3  315.67   13.74
   6  -5   3  342.33   13.13
   6  -5   3  337.86   12.11
  -6   6  -3    4.48    1.03
   0  -6  -3    3.93    0.92
   0  -6  -3    3.56    0.90
   6   0  -3    4.35    2.01
   0  -6  -3    4.07    0.97
   0  -6  -3    4.54    1.31
  -6   6  -3    5.82    1.61
  -6   6  -3    3.64    1.09
   6  -6   3    3.22    1.08
   0   6   3    3.53    1.33
  -6   7  -3  138.92    6.19
  -6   7  -3  135.30    6.37
  -6   7  -3  144.80    7.82
  -1  -6  -3  139.71    7.35
  -1  -6  -3  136.65    6.29
   1   6   3  153.41    8.10
   8  -2  -3    6.11    3.21
  -2  -6  -3   17.65    2.03
  -6   8  -3   18.01    3.05
  -6   8  -3   17.35    2.07
   2   6   3   18.85    3.39
   6  -8   3   20.62    3.70
  -6   9  -3   19.93    3.40
  -3  -6  -3   23.33    2.65
   9  -3  -3   24.65    2.85
   9  -3  -3    9.97    3.94
   6  -9   3   33.13    4.05
   3   6   3   21.23    3.74
  10  -4  -3   23.04    3.80
  10  -4  -3   20.22    2.73
  -6  10  -3   20.69    3.73
   4   6   3   19.61    4.08
   6 -10   3   26.14    4.67
  10  -7  -3    4.75    1.95
  -7  -3  -3    5.56    2.05
  -3  10  -3   -0.20    1.81
   7   3   3    3.10    2.46
   3 -10   3    2.31    2.51
  -7  -2  -3    0.96    1.33
   9  -7  -3    0.50    1.11
   7   2   3    1.16    1.98
  -9   7   3    0.92    1.44
   8  -7  -3    8.00    1.59
   8  -7  -3    8.82    2.12
  -7  -1  -3   10.02    2.55
  -7  -1  -3    6.68    2.02
  -1   8  -3    8.26    1.96
   7   1   3    7.02    2.69
  -8   7   3    7.61    2.31
  -7   0  -3    9.54    2.24
  -7   0  -3    6.48    1.99
   0   7  -3    4.25    1.63
   7  -7  -3    6.82    1.81
   7  -7  -3    6.25    1.29
   0  -7   3    9.83    1.93
   7   0   3    7.11    2.72
  -7   7   3    7.28    2.16
   1   6  -3   44.16    3.50
  -7   1  -3   52.41    4.25
   6  -7  -3   46.86    3.74
  -7   1  -3   42.36    3.05
   6  -7  -3   46.01    2.99
  -7   1  -3   45.56    4.04
  -6   7   3   42.20    4.01
   7  -1   3   34.56    5.57
  -1  -6   3   49.32    3.64
  -7   2  -3   44.91    4.03
   5  -7  -3   50.77    3.09
   5  -7  -3   47.94    3.74
   2   5  -3   47.79    3.61
  -7   2  -3   52.53    3.28
  -7   2  -3   48.61    4.08
  -5   7   3   48.33    4.22
   7  -2   3   37.65    5.78
   3   4  -3  284.79   12.04
   4  -7  -3  291.41   10.97
  -7   3  -3  282.63   11.23
   4  -7  -3  269.85   11.93
  -7   3  -3  290.34   12.74
  -7   3  -3  283.59   12.40
  -4   7   3  268.52   12.63
   3  -7  -3   65.51    4.25
  -7   4  -3   46.47    4.01
  -7   4  -3   55.85    3.53
   4   3  -3   58.20    4.39
   3  -7  -3   58.80    3.88
  -7   4  -3   62.89    4.66
   3  -7  -3   61.71    3.43
   7  -4   3   63.02    3.45
   7  -4   3   64.13    4.25
   7  -4   3   50.76    5.69
  -3   7   3   59.81    4.54
   2  -7  -3   75.35    4.06
  -7   5  -3   83.90    4.38
   2  -7  -3   76.91    4.85
   5   2  -3   65.42    5.33
  -7   5  -3   81.27    4.90
   2  -7  -3   75.93    4.40
  -7   5  -3   75.40    5.30
   7  -5   3   76.58    3.96
  -2   7   3   81.77    5.41
   7  -5   3   76.52    4.79
  -7   6  -3  142.36    8.03
   1  -7  -3  143.84    6.64
  -7   6  -3  144.15    7.05
   1  -7  -3  141.18    7.40
  -7   6  -3  145.05    6.66
  -1   7   3  144.53    8.06
   7  -6   3  145.40    7.25
  -7   7  -3  233.65    9.76
  -7   7  -3  229.08    9.81
  -7   7  -3  237.20   11.47
   0  -7  -3  233.94    9.66
   0   7   3  234.08   11.45
  -7   8  -3   35.36    3.84
  -7   8  -3   33.28    2.75
   8  -1  -3   16.48    4.56
   1   7   3   34.63    3.85
  -7   9  -3    2.71    1.69
   9  -2  -3    1.52    2.61
   2   7   3    6.04    2.18
   7  -9   3    5.87    2.41
  -7  10  -3   14.51    3.19
  10  -3  -3   15.62    2.49
  10  -3  -3   16.24    3.32
   3   7   3   10.37    3.00
   7 -10   3   21.82    4.29
  -1   9  -3   -2.48    1.18
   9  -8  -3    0.32    1.04
  -8  -1  -3    0.42    1.31
  -9   8   3    2.36    1.68
   8   1   3    2.43    2.44
   1  -9   3    2.68    1.62
   8  -8  -3    4.08    1.63
   0   8  -3    0.07    1.34
  -8   0  -3    3.19    2.27
  -8   0  -3    3.97    1.87
   0  -8   3    0.19    1.32
  -8   8   3    3.84    1.85
   8   0   3    2.44    2.19
   1   7  -3   10.11    2.20
   7  -8  -3    7.98    1.99
  -8   1  -3    7.11    2.17
  -8   1  -3    7.72    2.19
  -7   8   3    6.20    2.06
   8  -1   3    3.46    2.56
  -1  -7   3   10.70    2.15
  -8   2  -3   31.88    3.59
  -8   2  -3   30.61    3.68
   6  -8  -3   27.54    3.04
  -8   2  -3   29.54    2.64
   2   6  -3   33.77    3.31
   8  -2   3   13.02    4.24
  -6   8   3   29.42    3.59
   3   5  -3   18.32    2.84
  -8   3  -3   17.76    2.33
  -8   3  -3   19.10    3.10
   5  -8  -3   18.25    2.74
  -8   3  -3   18.58    3.05
  -5   8   3   22.15    3.55
   8  -3   3    9.49    3.42
  -8   4  -3    7.97    2.20
  -8   4  -3   12.12    1.91
   4  -8  -3   12.60    2.43
  -8   4  -3   15.02    2.68
   4   4  -3    9.27    2.25
   4  -8  -3    9.07    1.98
   8  -4   3   12.59    1.84
  -4   8   3    8.61    2.28
   8  -4   3   10.25    2.13
   3  -8  -3   70.66    4.62
   3  -8  -3   71.42    4.88
  -8   5  -3   72.61    5.01
  -8   5  -3   71.08    5.41
   5   3  -3   73.63    5.58
  -8   5  -3   74.37    4.37
  -3   8   3   71.47    5.41
   8  -5   3   75.38    5.00
   6   2  -3   10.59    2.92
  -8   6  -3   18.81    2.38
  -8   6  -3   25.11    2.65
   2  -8  -3   18.49    2.22
  -8   6  -3   16.89    3.06
  -2   8   3   18.35    3.24
   8  -6   3   17.46    2.71
  -8   7  -3   33.96    3.91
  -8   7  -3   35.77    2.98
   7   1  -3   24.85    4.72
  -8   7  -3   47.29    3.48
  -1   8   3   38.13    4.07
  -8   8  -3    7.00    2.32
   8   0  -3    5.52    2.90
  -8   8  -3    3.09    1.26
   0   8   3    5.63    2.02
  -8   9  -3   18.26    2.47
  -8   9  -3   14.19    3.11
   9  -1  -3    3.75    3.19
   1   8   3   16.18    3.41
   8  -9  -3    1.40    1.25
  -9   1  -3    1.15    1.45
   1   8  -3    0.73    1.48
   9  -1   3    0.99    2.27
  -8   9   3    2.13    1.64
   2   7  -3    2.42    1.58
  -9   2  -3    0.14    1.14
   7  -9  -3    0.07    0.88
   9  -2   3    2.04    2.84
  -7   9   3    0.57    1.44
  -9   3  -3    3.83    1.78
   3   6  -3    4.89    1.78
   6  -9  -3    2.28    1.51
  -9   3  -3    1.34    1.42
  -6   9   3    1.39    1.51
   9  -3   3    4.36    2.90
   4   5  -3   21.08    3.52
  -9   4  -3   16.68    3.18
   5  -9  -3   20.80    3.36
  -9   4  -3   28.88    3.40
  -9   4  -3   22.59    2.79
   9  -4   3   24.03    3.48
  -5   9   3   18.33    3.42
  -9   5  -3   56.76    5.09
   5   4  -3   49.96    4.88
  -9   5  -3   55.38    4.55
  -9   5  -3   55.18    3.85
   4  -9  -3   47.20    4.30
   9  -5   3   58.41    4.63
  -4   9   3   54.30    4.98
   3  -9  -3   32.10    2.92
  -9   6  -3   23.99    2.82
   6   3  -3   21.62    4.34
  -9   6  -3   21.47    3.69
  -9   6  -3   23.53    2.88
  -3   9   3   29.45    4.35
   9  -6   3   21.42    3.36
  -9   7  -3    4.75    1.60
   7   2  -3    1.75    1.88
  -9   7  -3    2.15    1.17
  -9   7  -3    2.70    1.65
  -2   9   3    3.70    1.91
  -9   8  -3   17.19    3.59
  -9   8  -3   16.51    2.52
   8   1  -3    5.61    2.94
  -1   9   3   20.24    3.77
   3   7  -3    4.98    1.99
 -10   3  -3    3.81    2.15
 -10   3  -3    6.85    2.46
  -7  10   3    5.11    2.47
  10  -3   3   -0.23    2.47
   6 -10  -3   13.78    3.44
   4   6  -3    9.98    2.74
 -10   4  -3   11.66    3.03
 -10   4  -3   13.35    2.96
  10  -4   3    1.23    2.79
  -6  10   3   15.28    3.61
  10  -4   3   10.72    2.57
 -10   5  -3   29.24    3.57
   5 -10  -3   19.04    3.61
 -10   5  -3   17.74    3.55
   5   5  -3   13.10    3.22
  10  -5   3   22.78    3.68
  -5  10   3   19.42    3.72
 -10   6  -3   24.29    4.26
 -10   6  -3   29.33    3.32
   6   4  -3   14.38    3.79
  -4  10   3   22.38    4.02
 -10   7  -3   12.97    3.25
   7   3  -3    3.34    2.58
  -3  10   3   14.58    3.35
   0   0  -4    0.06    0.14
   0   0  -4    0.17    0.13
   0   0  -4    0.04    0.15
   0   0  -4    0.03    0.23
   0   0   4    0.18    0.10
   0   0   4   -0.03    0.20
   0   0   4    0.07    0.21
   1  -1  -4  137.55    5.07
  -1   0  -4  138.68    5.49
   1  -1  -4  138.12    5.59
  -1   0  -4  136.84    5.66
   1  -1  -4  142.34    5.37
   1  -1  -4  143.74    5.07
  -1   0  -4  142.01    5.15
  -1   0  -4  143.36    5.83
  -1   1   4  138.31    4.99
   0  -1   4  139.00    5.74
   1   0   4  141.16    5.08
   1   0   4  145.30    5.32
  -1   1   4  148.17    5.53
   1   0   4  133.93    5.68
   0  -1  -4 1965.00   67.12
   0  -1  -4 2025.26   66.93
   0  -1  -4 1960.20   67.96
  -1   1  -4 2052.36   68.05
  -1   1  -4 2014.35   68.49
   0  -1  -4 1941.13   69.01
  -1   1  -4 2022.09   66.55
   1   0  -4 1970.61   65.89
   0  -1  -4 1885.07   68.15
   0  -1  -4 1965.28   66.94
   1   0  -4 1891.99   66.75
   1   0  -4 1986.61   67.13
   1   0  -4 1997.58   67.03
  -1   1  -4 1911.80   69.61
   1   0  -4 2063.57   68.59
   1  -1   4 2155.62   67.97
   1  -1   4 1898.21   66.33
   1  -1   4 1977.27   70.62
   0   1   4 1886.44   66.56
   0   1   4 1966.78   66.77
   1  -1   4 1941.07   65.50
   0   1   4 2034.22   69.35
   1  -1   4 1950.51   65.56
  -1  -1  -4  154.06    5.67
   2  -1  -4  165.06    6.38
  -1   2  -4  160.48    5.66
  -1  -1  -4  164.57    6.51
  -1  -1  -4  160.77    6.57
   2  -1  -4  158.47    6.07
  -1   2  -4  157.69    5.48
   2  -1  -4  163.86    5.74
  -1  -1  -4  161.78    5.99
  -1   2  -4  161.92    5.52
  -1   2  -4  163.23    6.32
  -1   2  -4  162.85    5.74
  -2   1   4  159.82    6.18
   1   1   4  166.70    6.78
   1  -2   4  147.71    6.55
   1   1   4  152.63    5.50
  -2   1   4  163.29    5.79
  -1   3  -4  145.19    5.69
  -1   3  -4  145.43    5.04
   3  -2  -4  143.67    5.91
  -2  -1  -4  149.44    6.35
  -2  -1  -4  142.68    5.11
   3  -2  -4  138.82    5.41
   3  -2  -4  141.37    5.56
  -1   3  -4  143.34    5.07
  -2  -1  -4  144.11    6.27
  -1   3  -4  141.23    5.26
  -2  -1  -4  145.20    5.68
  -1   3  -4  141.77    5.40
  -3   2   4  145.79    6.16
   1  -3   4  135.29    6.31
   2   1   4  139.10    6.62
  -2   0  -4  111.91    4.54
   2  -2  -4  116.53    4.86
  -2   0  -4  112.60    5.05
   2  -2  -4  114.94    4.43
  -2   0  -4  114.64    5.18
   0  -2   4  111.54    5.18
  -2   2   4  117.20    5.10
   2   0   4  124.22    5.59
   1  -2  -4  159.03    6.45
  -2   1  -4  160.45    6.01
  -2   1  -4  158.25    6.45
  -2   1  -4  165.37    6.85
   1  -2  -4  166.61    6.02
  -2   1  -4  168.84    6.74
  -1   2   4  149.59    6.59
   2  -1   4  179.08    7.08
  -1  -1   4  165.30    6.75
   2   0  -4  338.42   11.39
   0  -2  -4  330.81   12.23
  -2   2  -4  324.04   11.97
   2   0  -4  336.14   12.23
   2   0  -4  340.55   11.40
  -2   2  -4  345.16   11.55
  -2   2  -4  324.44   12.19
   0  -2  -4  345.32   12.30
  -2   2  -4  360.34   12.94
   0  -2  -4  328.10   11.73
   2   0  -4  332.08   11.80
   2  -2   4  324.14   11.31
   0   2   4  338.41   11.49
   0   2   4  315.42   12.46
  -2   0   4  341.55   11.32
   2  -2   4  323.30   12.38
  -2   3  -4  489.77   16.69
  -1  -2  -4  517.17   17.94
   3  -1  -4  509.78   16.98
  -1  -2  -4  510.55   17.20
  -2   3  -4  489.49   17.06
   3  -1  -4  475.34   18.69
   3  -1  -4  475.15   17.62
  -2   3  -4  484.33   16.78
  -1  -2  -4  496.40   17.71
  -2   3  -4  492.21   17.33
  -2   3  -4  520.63   17.34
   2  -3   4  495.05   16.46
   1   2   4  482.97   16.67
   1   2   4  494.74   18.19
   2  -3   4  490.68   16.69
  -3   1   4  502.66   17.43
   2  -3   4  473.08   17.98
  -2  -2  -4   60.02    3.60
  -2   4  -4   56.57    2.59
  -2   4  -4   59.64    2.86
   4  -2  -4   59.10    4.53
   4  -2  -4   59.93    2.78
  -2   4  -4   61.85    2.56
  -2  -2  -4   59.46    3.02
  -2   4  -4   58.53    2.90
  -2  -2  -4   61.74    3.52
  -2   4  -4   61.51    3.13
   4  -2  -4   58.94    2.91
   4  -2  -4   57.14    3.23
   2  -4   4   62.85    3.80
   2   2   4   58.06    2.42
   2   2   4   67.46    4.08
  -4   2   4   58.45    3.44
   2  -4   4   56.68    2.41
  -2   5  -4  130.09    5.94
  -3  -2  -4  128.47    6.49
  -2   5  -4  130.38    5.16
   5  -3  -4  133.64    5.70
  -2   5  -4  130.59    5.62
  -3  -2  -4  131.65    6.37
  -2   5  -4  128.11    5.08
   5  -3  -4  123.01    6.07
   5  -3  -4  132.96    5.45
  -2   5  -4  134.21    5.12
  -3  -2  -4  134.59    5.72
   3   2   4  133.16    7.12
   2  -5   4  133.38    6.68
  -5   3   4  137.42    6.54
  -3  -1  -4   36.86    2.20
   4  -3  -4   34.98    2.12
  -1   4  -4   34.87    1.92
   4  -3  -4   34.36    2.42
  -1   4  -4   35.52    1.64
  -1   4  -4   35.58    2.12
  -1   4  -4   33.56    1.91
  -1   4  -4   34.14    1.66
  -3  -1  -4   31.59    1.49
  -3  -1  -4   34.98    2.68
  -3  -1  -4   35.85    2.72
   4  -3  -4   32.97    1.95
  -4   3   4   34.61    2.64
   3   1   4   34.11    3.00
   1  -4   4   35.49    2.71
  -3   0  -4  303.12   10.77
   3  -3  -4  285.97   11.12
  -3   0  -4  286.29   11.46
   0   3  -4  295.63    9.96
   3  -3  -4  298.20   10.70
   0   3  -4  293.82   10.21
   3  -3  -4  294.46   10.53
  -3   0  -4  300.67   11.60
   0   3  -4  301.12   10.33
   0  -3   4  291.06   11.54
  -3   3   4  274.86   11.42
   3   0   4  301.76   12.29
   1   2  -4  137.81    5.02
   2  -3  -4  140.38    5.97
  -3   1  -4  144.12    5.53
   2  -3  -4  139.22    5.43
   1   2  -4  140.06    5.04
  -3   1  -4  143.15    6.16
  -3   1  -4  142.11    6.23
   1   2  -4  141.80    4.82
  -2   3   4  142.10    6.30
  -1  -2   4  134.96    6.20
   3  -1   4  128.52    6.67
   1  -3  -4  489.67   17.78
   2   1  -4  485.18   16.67
   1  -3  -4  499.97   17.57
  -3   2  -4  490.63   17.13
  -3   2  -4  500.28   17.92
   2   1  -4  498.23   17.06
  -3   2  -4  509.53   17.86
   1  -3  -4  491.11   17.16
   2   1  -4  509.82   16.69
   3  -2   4  475.80   18.83
  -1   3   4  506.29   18.15
   0  -3  -4 1308.54   44.71
   3   0  -4 1380.73   45.14
   0  -3  -4 1327.99   45.53
  -3   3  -4 1363.78   47.24
  -3   3  -4 1304.06   44.61
   0  -3  -4 1346.79   44.81
   3   0  -4 1395.02   45.12
  -3   3  -4 1358.06   45.29
   0  -3  -4 1301.18   46.34
  -3   0   4 1321.51   44.24
   3  -3   4 1321.01   45.53
  -3   0   4 1398.92   45.24
   0   3   4 1254.51   45.79
   3  -3   4 1333.87   44.86
  -3   4  -4   39.08    2.41
   4  -1  -4   42.55    2.26
  -1  -3  -4   39.75    2.84
  -3   4  -4   41.95    2.16
  -3   4  -4   43.37    2.46
  -1  -3  -4   42.25    2.67
  -3   4  -4   40.00    2.64
  -1  -3  -4   43.47    2.41
  -3   4  -4   40.35    2.04
   3  -4   4   41.66    3.04
   3  -4   4   41.74    1.91
  -4   1   4   44.37    2.67
   1   3   4   44.75    3.20
  -4   1   4   40.76    2.06
  -3   5  -4   39.09    2.52
  -2  -3  -4   39.81    2.84
   5  -2  -4   40.10    2.40
  -2  -3  -4   44.41    2.55
   5  -2  -4   23.99    3.71
  -2  -3  -4   38.14    2.98
  -3   5  -4   41.03    2.12
  -3   5  -4   36.89    2.71
   5  -2  -4   40.43    2.29
  -3   5  -4   42.14    2.20
  -3   5  -4   41.58    2.27
   3  -5   4   40.17    3.19
   2   3   4   43.43    3.48
   2   3   4   40.19    1.77
   2   3   4   39.29    1.88
   3  -5   4   38.83    1.84
   3  -5   4   39.35    2.16
  -5   2   4   38.72    2.87
   6  -3  -4   10.09    1.32
   6  -3  -4   12.45    1.98
   6  -3  -4    9.86    2.81
   6  -3  -4   12.72    1.89
  -3   6  -4   11.34    1.83
  -3   6  -4    9.86    0.94
  -3  -3  -4   10.45    1.96
  -3  -3  -4   14.78    1.79
  -3   6  -4    9.95    1.23
  -3  -3  -4   11.40    1.95
  -3   6  -4   10.95    1.23
  -6   3   4   10.39    1.40
  -6   3   4   10.31    1.94
   3  -6   4   11.19    2.16
   3   3   4   11.12    2.32
   3  -6   4   10.23    1.46
  -4  -3  -4  107.73    6.42
  -4  -3  -4  113.36    6.34
   7  -4  -4  114.32    5.34
  -3   7  -4  114.73    6.20
   7  -4  -4  113.61    6.27
  -4  -3  -4  111.43    5.48
   4   3   4  114.09    7.36
   3  -7   4  112.98    6.66
  -7   4   4  118.00    6.68
   6  -4  -4   54.00    3.72
  -4  -2  -4   56.01    3.30
  -2   6  -4   55.81    3.62
   6  -4  -4   58.02    3.17
  -4  -2  -4   59.01    4.14
  -2   6  -4   55.81    2.80
  -4  -2  -4   60.52    4.14
   2  -6   4   57.09    4.17
  -6   4   4   55.92    4.08
   4   2   4   60.79    4.78
  -1   5  -4  145.14    6.20
  -1   5  -4  143.99    5.67
  -4  -1  -4  154.81    6.45
  -4  -1  -4  147.19    5.29
   5  -4  -4  145.63    6.90
  -1   5  -4  149.53    5.74
  -4  -1  -4  146.58    7.24
   5  -4  -4  160.13    6.23
  -1   5  -4  148.46    6.51
  -4  -1  -4  155.72    7.35
   4   1   4  144.60    7.95
   1  -5   4  150.54    7.33
  -5   4   4  158.91    7.47
   0   4  -4  128.07    4.86
  -4   0  -4  131.56    6.41
  -4   0  -4  132.59    5.57
  -4   0  -4  129.01    6.40
   4  -4  -4  129.77    6.06
   4  -4  -4  129.91    5.37
   0   4  -4  132.92    5.48
   0   4  -4  123.43    5.21
   0  -4   4  129.82    6.35
  -4   4   4  129.36    6.44
   4   0   4  133.45    7.32
   3  -4  -4   35.46    2.06
   1   3  -4   34.80    1.96
   1   3  -4   34.44    1.88
   3  -4  -4   34.40    2.46
  -4   1  -4   36.31    2.70
  -4   1  -4   32.84    2.64
   1   3  -4   34.17    1.61
  -4   1  -4   36.12    2.18
   4  -1   4   35.35    3.37
  -3   4   4   37.67    2.85
  -1  -3   4   32.62    2.59
   2   2  -4   56.65    2.48
  -4   2  -4   60.82    3.64
   2   2  -4   60.82    2.99
  -4   2  -4   61.57    3.00
  -4   2  -4   60.83    3.62
   2   2  -4   58.44    2.85
   2  -4  -4   60.54    2.93
   2  -4  -4   58.45    3.45
  -2   4   4   57.74    3.68
   4  -2   4   62.09    4.69
   3   1  -4   38.65    2.42
   1  -4  -4   42.10    2.84
  -4   3  -4   39.47    2.84
  -4   3  -4   40.57    2.32
   3   1  -4   46.50    1.81
   3   1  -4   42.09    2.84
  -4   3  -4   41.92    2.83
   1  -4  -4   42.46    2.46
   1  -4  -4   43.08    2.37
   3   1  -4   42.81    2.07
   4  -3   4   43.09    2.15
  -1   4   4   41.66    3.08
   4  -3   4   41.22    2.53
  -3  -1   4   42.55    1.95
  -4   4  -4   10.61    1.26
   4   0  -4    7.13    1.73
  -4   4  -4   10.81    1.37
   0  -4  -4   13.33    1.48
   4   0  -4   12.02    1.41
   0  -4  -4   13.51    1.65
   4   0  -4   13.65    1.15
   0  -4  -4   11.63    0.88
   0  -4  -4   12.83    1.32
  -4   4  -4   11.98    1.76
   4  -4   4   11.36    1.24
  -4   0   4   12.12    0.92
   0   4   4   12.37    2.03
   4  -4   4    9.36    1.05
  -4   5  -4   69.42    4.05
  -4   5  -4   65.01    3.48
  -4   5  -4   66.04    3.27
  -4   5  -4   65.15    3.15
  -1  -4  -4   64.16    4.06
  -1  -4  -4   65.52    3.44
   5  -1  -4   67.48    3.36
  -1  -4  -4   66.28    3.72
   5  -1  -4   61.02    5.27
   1   4   4   71.00    4.54
   4  -5   4   65.41    2.95
  -5   1   4   69.19    3.87
   4  -5   4   67.97    3.43
  -5   1   4   67.96    3.13
   4  -5   4   62.38    4.26
   6  -2  -4   24.89    4.45
  -4   6  -4   21.29    2.29
  -4   6  -4   21.73    1.62
  -4   6  -4   19.60    1.62
  -2  -4  -4   20.64    1.85
  -4   6  -4   22.20    1.72
   6  -2  -4   21.19    1.86
  -2  -4  -4   20.41    2.18
  -2  -4  -4   19.91    2.33
   4  -6   4   19.37    1.67
  -6   2   4   21.73    2.31
   2   4   4   19.68    2.93
   4  -6   4   20.90    1.38
   4  -6   4   28.23    2.78
  -4   7  -4   44.60    2.76
  -3  -4  -4   46.29    3.06
  -3  -4  -4   44.73    3.77
   7  -3  -4   48.71    3.01
   7  -3  -4   49.67    3.76
  -4   7  -4   41.94    3.54
  -3  -4  -4   48.00    3.63
   3   4   4   49.32    4.43
  -7   3   4   43.33    3.73
   4  -7   4   50.81    4.22
  -4  -4  -4   37.79    3.51
   8  -4  -4   40.75    3.65
  -4  -4  -4   38.58    3.71
   8  -4  -4   43.75    2.99
  -4   8  -4   37.83    3.53
  -8   4   4   39.73    6.63
   4  -8   4   29.91    3.68
   4   4   4   37.07    4.29
   9  -5  -4   10.02    2.41
   9  -5  -4   11.20    1.94
  -5  -4  -4   12.38    2.55
  -4   9  -4   13.56    2.67
   5   4   4    7.22    2.53
   4  -9   4   10.26    2.99
  -3   8  -4   25.20    2.83
  -5  -3  -4   17.82    2.97
   8  -5  -4   20.23    3.08
   8  -5  -4   17.29    2.27
  -5  -3  -4   16.54    2.92
   5   3   4   19.21    3.73
  -8   5   4   20.13    3.30
   3  -8   4   21.07    3.47
   7  -5  -4   64.33    4.45
  -5  -2  -4   66.81    3.85
  -5  -2  -4   61.45    4.64
  -2   7  -4   62.97    4.35
  -5  -2  -4   70.37    4.88
   7  -5  -4   62.68    3.62
   5   2   4   61.71    5.52
  -7   5   4   60.57    4.73
   2  -7   4   65.10    4.78
  -5  -1  -4   22.81    2.75
   6  -5  -4   20.27    1.77
  -5  -1  -4   24.49    2.07
   6  -5  -4   20.88    2.29
  -5  -1  -4   20.84    1.00
  -1   6  -4   17.41    2.35
  -5  -1  -4   22.24    2.59
  -1   6  -4   20.49    1.14
  -1   6  -4   20.32    1.49
   1  -6   4   22.98    2.52
  -6   5   4   16.69    2.68
   5   1   4   22.86    3.78
   5  -5  -4   12.14    1.96
  -5   0  -4    8.14    1.33
  -5   0  -4   10.95    2.11
   5  -5  -4    9.94    1.37
   0   5  -4    9.83    1.18
   0   5  -4    9.10    1.03
   0   5  -4    9.63    1.57
  -5   0  -4    8.39    1.72
   5   0   4    6.11    1.99
   0  -5   4   11.33    2.07
  -5   5   4    9.27    1.95
   4  -5  -4  148.01    6.19
   1   4  -4  151.19    6.35
  -5   1  -4  160.76    7.50
  -5   1  -4  156.31    7.45
   1   4  -4  148.34    6.20
  -5   1  -4  148.14    6.38
   1   4  -4  147.75    5.68
   4  -5  -4  143.05    6.91
  -4   5   4  151.49    7.53
  -1  -4   4  152.83    7.28
   5  -1   4  140.19    8.39
   2   3  -4  136.65    5.09
   2   3  -4  131.19    5.57
   3  -5  -4  130.00    6.30
  -5   2  -4  134.77    6.64
  -5   2  -4  126.76    6.49
  -5   2  -4  125.43    5.62
   2   3  -4  132.08    5.75
   3  -5  -4  135.75    5.56
  -3   5   4  125.62    6.68
   5  -2   4  124.52    8.00
   3   2  -4   38.03    2.47
  -5   3  -4   39.19    3.10
   2  -5  -4   39.92    2.38
   3   2  -4   40.04    1.71
   2  -5  -4   40.37    2.95
   3   2  -4   40.85    2.11
   2  -5  -4   39.88    2.38
  -5   3  -4   41.32    2.48
  -5   3  -4   39.94    3.07
   3   2  -4   42.57    2.91
   5  -3   4   38.50    2.23
  -2   5   4   39.39    3.19
   5  -3   4   29.98    4.29
   4   1  -4   65.98    3.18
   1  -5  -4   65.68    3.41
  -5   4  -4   71.01    3.48
   1  -5  -4   64.84    3.33
  -5   4  -4   70.32    4.32
  -5   4  -4   64.47    3.94
   1  -5  -4   65.85    3.23
   4   1  -4   62.46    3.72
   4   1  -4   65.87    4.46
   1  -5  -4   64.73    4.01
   5  -4   4   67.90    3.18
  -4  -1   4   66.73    3.26
   5  -4   4   71.27    3.82
  -1   5   4   62.93    4.27
   0  -5  -4  428.43   15.47
   0  -5  -4  428.01   14.92
   0  -5  -4  418.54   15.45
  -5   5  -4  432.51   16.69
   5   0  -4  398.05   17.62
   5   0  -4  426.56   15.27
  -5   5  -4  423.22   15.40
   0  -5  -4  422.93   16.48
  -5   5  -4  437.73   15.96
  -5   0   4  423.62   15.77
   5  -5   4  423.40   15.79
  -5   0   4  418.11   14.87
   0   5   4  436.08   17.07
  -5   6  -4  156.88    6.68
  -5   6  -4  160.83    7.77
  -1  -5  -4  148.98    6.79
  -1  -5  -4  144.10    6.57
  -5   6  -4  158.09    6.55
   6  -1  -4  144.33    9.59
  -1  -5  -4  154.90    7.61
   5  -6   4  146.83    6.72
  -6   1   4  155.86    7.27
   1   5   4  155.78    8.09
  -2  -5  -4  158.68    8.06
  -2  -5  -4  157.94    7.35
  -5   7  -4  153.78    6.36
  -2  -5  -4  156.50    7.37
  -5   7  -4  163.16    6.80
  -5   7  -4  143.47    7.84
   2   5   4  162.28    8.66
   5  -7   4  154.24    8.38
  -3  -5  -4    8.90    1.95
   8  -3  -4    4.56    2.72
  -3  -5  -4    8.74    2.10
   8  -3  -4   10.27    1.68
  -5   8  -4   10.71    2.29
   8  -3  -4   10.10    2.16
   3   5   4    9.64    2.68
   5  -8   4   11.62    2.72
   9  -4  -4   31.94    2.83
   9  -4  -4   28.94    3.41
  -5   9  -4   34.86    3.65
  -4  -5  -4   30.57    3.24
   5  -9   4   36.53    5.15
   4   5   4   24.38    4.32
  -5  -5  -4    3.27    1.57
  10  -5  -4    1.86    1.46
  10  -5  -4    2.35    1.15
   5   5   4    2.34    2.09
  -4  10  -4   32.42    3.94
  10  -6  -4   27.40    3.20
  10  -6  -4   28.58    4.33
  -6  -4  -4   28.81    3.60
   6   4   4   16.54    4.12
   4 -10   4   40.35    4.11
  -3   9  -4    9.25    2.05
   9  -6  -4    5.46    1.92
   9  -6  -4    8.76    1.74
  -6  -3  -4    8.54    2.29
   6   3   4    7.25    2.82
  -6  -2  -4   10.17    2.42
  -6  -2  -4   10.22    2.48
  -2   8  -4   10.49    2.27
   8  -6  -4    8.45    2.15
   8  -6  -4    9.66    1.74
   6   2   4    8.98    2.99
  -8   6   4    9.51    2.41
   7  -6  -4  253.45   10.59
  -6  -1  -4  270.21   12.36
  -1   7  -4  271.19   11.51
   7  -6  -4  275.13   11.92
  -6  -1  -4  280.36   12.42
  -6  -1  -4  258.86   10.84
   6   1   4  231.67   13.52
   1  -7   4  279.63   12.26
  -7   6   4  282.65   12.68
   6  -6  -4   18.49    2.29
   6  -6  -4   18.57    2.06
   0   6  -4   21.36    2.55
  -6   0  -4   20.09    3.02
   0   6  -4   22.19    2.25
  -6   0  -4   17.01    2.03
  -6   0  -4   23.81    3.40
   6   0   4   20.49    3.97
   0  -6   4   19.83    2.42
  -6   6   4   19.25    3.01
   5  -6  -4   21.69    1.85
   1   5  -4   19.62    1.47
  -6   1  -4   20.88    1.92
  -6   1  -4   21.93    2.64
   5  -6  -4   20.93    2.32
   1   5  -4   14.83    1.85
  -6   1  -4   21.54    3.04
  -5   6   4   22.34    3.11
  -1  -5   4   15.97    2.53
   6  -1   4   23.54    4.23
   2   4  -4   54.73    2.78
  -6   2  -4   59.14    3.38
   2   4  -4   59.48    3.53
   2   4  -4   57.11    3.36
  -6   2  -4   58.11    4.21
   4  -6  -4   59.43    3.25
   4  -6  -4   61.37    4.00
  -6   2  -4   55.86    4.13
  -4   6   4   53.38    4.23
  -2  -4   4   54.74    3.97
   6  -2   4   49.58    5.27
  -6   3  -4    9.47    1.50
  -6   3  -4   12.16    2.13
   3   3  -4    9.99    1.20
   3  -6  -4   11.50    1.52
   3   3  -4   10.45    1.83
   3  -6  -4    9.77    1.20
   3   3  -4   13.35    0.76
   3  -6  -4    9.70    1.79
  -6   3  -4   11.75    2.25
   3   3  -4    9.97    1.60
   6  -3   4   14.44    3.29
  -3   6   4    9.87    2.02
   4   2  -4   26.53    2.70
  -6   4  -4   21.62    2.59
   2  -6  -4   21.44    1.86
   4   2  -4   22.18    1.68
  -6   4  -4   20.35    1.88
   2  -6  -4   23.28    2.39
  -6   4  -4   24.52    2.57
   2  -6  -4   22.30    1.67
   2  -6  -4   21.18    1.91
  -2   6   4   20.11    2.45
   6  -4   4   20.26    2.17
   6  -4   4   20.70    1.70
   6  -4   4   20.37    3.93
   1  -6  -4  152.28    6.72
   1  -6  -4  154.92    7.67
  -6   5  -4  155.14    7.42
   5   1  -4  153.04    8.61
   5   1  -4  155.91    6.54
  -6   5  -4  158.02    8.02
   1  -6  -4  154.59    6.57
   1  -6  -4  157.67    6.46
  -6   5  -4  159.60    6.85
  -1   6   4  158.53    8.21
   6  -5   4  165.68    6.52
   6  -5   4  159.69    7.34
   0  -6  -4    9.35    1.46
   0  -6  -4   10.14    1.58
   0  -6  -4    9.45    1.89
   0  -6  -4    8.74    1.25
  -6   6  -4    9.63    2.07
   6   0  -4    5.21    2.09
  -6   6  -4    8.55    1.67
  -6   6  -4    7.87    1.41
   0   6   4    8.44    2.00
   6  -6   4    7.74    1.56
  -6   7  -4  122.69    5.73
  -6   7  -4  123.07    7.03
   7  -1  -4   94.35    8.51
  -1  -6  -4  119.31    5.78
  -6   7  -4  123.20    5.70
  -1  -6  -4  127.26    6.86
   1   6   4  115.74    7.19
  -6   8  -4    4.84    1.20
  -2  -6  -4    4.39    1.40
  -6   8  -4    4.96    1.80
   8  -2  -4    1.63    2.48
   2   6   4    6.40    2.26
   6  -8   4    2.85    1.95
   9  -3  -4   44.88    3.44
   9  -3  -4   45.14    4.28
  -6   9  -4   34.22    3.97
  -3  -6  -4   38.94    3.44
   6  -9   4   56.01    5.26
  10  -4  -4    3.65    1.81
  -6  10  -4    3.60    1.84
  10  -4  -4    4.26    1.50
   4   6   4    3.63    2.04
  -2   9  -4   44.77    4.13
   9  -7  -4   35.30    3.85
   9  -7  -4   36.04    3.11
  -7  -2  -4   37.67    4.08
  -9   7   4   36.89    4.25
   2  -9   4   54.09    4.26
   7   2   4   22.34    4.94
  -7  -1  -4   37.22    3.92
  -1   8  -4   44.02    3.71
   8  -7  -4   37.51    3.72
   8  -7  -4   32.36    2.81
  -7  -1  -4   40.11    4.15
  -8   7   4   36.73    4.08
   7   1   4   23.35    4.83
   0   7  -4   15.89    2.54
  -7   0  -4   16.50    3.17
   7  -7  -4   12.86    2.39
   7  -7  -4   16.61    2.18
  -7   0  -4   14.86    2.84
   0  -7   4   21.55    2.53
  -7   7   4   15.19    2.97
   7   0   4   12.02    3.55
  -7   1  -4  267.53   11.12
   1   6  -4  272.33   11.50
   6  -7  -4  277.80   12.13
   6  -7  -4  256.66   10.80
  -7   1  -4  275.76   12.69
  -7   1  -4  283.26   12.71
  -1  -6   4  273.76   12.22
  -6   7   4  286.40   12.96
   2   5  -4   64.56    4.12
  -7   2  -4   66.78    4.95
  -7   2  -4   66.77    3.91
   5  -7  -4   62.87    4.43
  -7   2  -4   62.45    4.81
   5  -7  -4   62.87    3.65
   7  -2   4   61.84    6.58
  -5   7   4   62.46    4.87
   3   4  -4  115.62    6.13
   3   4  -4  108.27    4.09
   4  -7  -4  112.48    6.25
  -7   3  -4  119.46    6.83
  -7   3  -4  111.97    5.51
  -7   3  -4  101.83    6.30
   4  -7  -4  116.57    5.34
   7  -3   4   91.13    8.22
  -4   7   4  115.64    6.87
   3  -7  -4   44.09    3.23
   3  -7  -4   47.66    3.69
  -7   4  -4   43.25    3.02
   4   3  -4   39.07    3.58
   3  -7  -4   44.83    2.49
  -7   4  -4   42.43    3.89
  -7   4  -4   43.11    3.73
   3  -7  -4   42.47    2.85
   7  -4   4   45.73    2.84
  -3   7   4   47.09    4.05
   7  -4   4   43.92    3.51
   2  -7  -4  163.97    7.26
   2  -7  -4  157.56    8.04
   5   2  -4  159.30    8.87
  -7   5  -4  154.40    7.18
  -7   5  -4  164.76    8.66
  -7   5  -4  163.13    8.06
   2  -7  -4  164.90    7.11
   7  -5   4  164.91    7.92
  -2   7   4  161.29    8.60
   6   1  -4  109.98    7.94
   1  -7  -4  118.72    5.68
  -7   6  -4  127.76    6.50
   1  -7  -4  121.91    6.81
  -7   6  -4  127.51    6.04
  -7   6  -4  124.18    7.28
   7  -6   4  127.84    6.66
  -1   7   4  125.48    7.45
  -7   7  -4  188.03    8.37
  -7   7  -4  190.23    8.23
  -7   7  -4  181.29    9.70
   0  -7  -4  191.03    9.33
   0   7   4  179.03    9.79
  -7   8  -4   73.29    4.35
  -7   8  -4   73.16    5.59
   1   7   4   69.72    5.75
   9  -2  -4    3.97    3.07
  -7   9  -4    1.89    1.52
  -7   9  -4    2.18    1.12
   2   7   4    3.20    1.96
   7  -9   4    9.77    2.73
   9  -8  -4   12.42    2.75
  -1   9  -4   10.24    2.47
  -8  -1  -4   13.75    3.10
  -9   8   4   10.99    3.00
   1  -9   4   13.62    3.09
   8   1   4    8.60    3.69
   0   8  -4   30.26    3.49
  -8   0  -4   40.85    4.32
   8  -8  -4   38.14    3.84
  -8   0  -4   45.04    4.42
   0  -8   4   38.77    3.76
   8   0   4   28.02    5.69
  -8   8   4   42.70    4.51
  -8   1  -4   39.30    4.13
   7  -8  -4   36.07    3.65
   1   7  -4   40.84    3.50
  -8   1  -4   38.34    4.14
  -7   8   4   36.40    4.11
  -1  -7   4   40.45    3.58
  -8   2  -4    9.42    1.76
   2   6  -4    9.32    2.06
  -8   2  -4   10.82    2.60
  -8   2  -4    8.58    2.38
   6  -8  -4   10.87    2.29
  -6   8   4    8.69    2.35
   8  -2   4    5.97    3.22
   3   5  -4   21.14    3.03
   5  -8  -4   17.06    2.85
  -8   3  -4   21.24    3.28
  -8   3  -4   11.70    1.90
  -8   3  -4   18.59    3.24
  -5   8   4   17.39    3.33
   4   4  -4   37.19    3.69
  -8   4  -4   35.43    4.38
  -8   4  -4   41.41    4.03
  -8   4  -4   36.52    3.00
   4  -8  -4   36.23    3.47
   4  -8  -4   45.01    3.55
   8  -4   4   19.96    4.91
   8  -4   4   39.45    3.55
  -4   8   4   36.91    3.90
   3  -8  -4   10.72    2.27
  -8   5  -4    9.62    2.41
  -8   5  -4   10.17    1.83
  -8   5  -4    9.97    2.26
   3  -8  -4    7.52    1.62
   5   3  -4    9.53    2.36
  -3   8   4    8.50    2.33
   8  -5   4   10.90    2.18
   2  -8  -4    5.77    1.77
   2  -8  -4    4.74    1.65
   6   2  -4    2.28    1.80
  -8   6  -4    4.20    1.76
  -8   6  -4    3.64    1.29
  -8   6  -4    3.59    1.61
  -2   8   4    5.27    1.93
  -8   7  -4   69.00    5.65
  -8   7  -4   75.16    4.51
  -8   7  -4   76.40    4.88
  -1   8   4   76.52    5.89
  -8   8  -4    3.79    1.29
  -8   8  -4    2.27    1.55
   8   0  -4    0.84    1.91
   0   8   4    3.91    1.92
  -8   9  -4   13.50    2.19
   9  -1  -4    6.95    3.45
  -8   9  -4   16.22    3.28
   1   8   4   16.99    3.60
   8  -9   4   13.65    3.91
   8  -9  -4   13.95    2.87
  -9   1  -4   11.91    4.48
   1   8  -4   13.72    2.70
  -9   1  -4   13.93    3.36
  -8   9   4   12.75    3.22
   9  -1   4    5.18    3.13
  -1  -8   4   15.10    3.14
  -9   2  -4   45.87    4.75
   2   7  -4   42.95    3.94
   7  -9  -4   37.79    3.92
  -9   2  -4   34.63    4.14
  -7   9   4   37.09    4.37
  -9   3  -4   10.06    2.59
   6  -9  -4    6.28    1.91
   3   6  -4    8.82    2.20
  -9   3  -4   13.30    2.98
  -6   9   4    6.79    2.46
   9  -3   4    3.42    2.98
  -9   4  -4    9.89    1.91
  -9   4  -4   12.16    2.81
   4   5  -4   11.73    2.66
  -9   4  -4   15.54    2.96
   5  -9  -4   13.15    2.69
   5  -9  -4    9.06    2.21
   9  -4   4    3.04    2.64
   9  -4   4   11.07    2.50
  -5   9   4    9.82    2.52
  -9   5  -4   31.26    3.26
  -9   5  -4   23.17    3.84
   5   4  -4   18.03    3.47
   4  -9  -4   23.05    2.99
  -9   5  -4   25.75    3.29
  -4   9   4   30.59    4.37
   9  -5   4   26.14    3.13
  -9   6  -4   43.12    3.85
  -9   6  -4   40.76    4.37
  -9   6  -4   35.76    3.17
   6   3  -4   29.43    4.94
  -3   9   4   37.72    4.26
  -9   7  -4    3.48    1.28
  -9   7  -4    7.57    1.84
  -9   7  -4    2.87    1.79
   7   2  -4    4.05    2.33
  -2   9   4    1.57    1.44
   8   1  -4    7.92    3.26
  -9   8  -4   15.51    3.34
  -9   8  -4   15.61    2.49
  -1   9   4   15.21    3.31
   6 -10  -4   32.54    4.12
 -10   4  -4   32.29    3.99
   4   6  -4   22.45    3.87
 -10   4  -4   25.76    4.35
  10  -4   4   27.66    4.17
  -6  10   4   29.80    4.69
   5 -10  -4    2.21    1.79
 -10   5  -4    1.17    1.51
 -10   5  -4    3.59    1.70
   5   5  -4   -0.01    1.49
  -5  10   4    2.13    1.82
 -10   6  -4    7.25    2.28
 -10   6  -4    4.13    2.15
   6   4  -4    3.65    1.78
  -4  10   4    5.82    2.30
   0   0  -5    0.13    0.17
   0   0  -5    0.15    0.16
   0   0  -5    0.17    0.30
   0   0  -5    0.23    0.21
   0   0   5    0.20    0.26
   0   0   5    0.03    0.25
   1  -1  -5 1256.39   43.48
   1  -1  -5 1257.86   44.40
  -1   0  -5 1262.08   44.80
  -1   0  -5 1263.14   45.15
   1  -1  -5 1294.26   43.84
  -1   0  -5 1266.83   42.56
  -1   0  -5 1249.73   41.86
   1  -1  -5 1217.73   42.80
   1   0   5 1315.50   45.26
   0  -1   5 1243.34   45.30
   1   0   5 1238.18   43.37
   0  -1  -5  369.74   13.22
   1   0  -5  369.28   12.67
   0  -1  -5  368.86   12.75
   0  -1  -5  376.62   12.69
   0  -1  -5  380.80   13.68
  -1   1  -5  372.85   13.61
   1   0  -5  376.91   12.64
  -1   1  -5  372.24   12.88
   1   0  -5  367.46   12.41
  -1   1  -5  335.02   13.11
  -1   1  -5  375.23   12.55
   1   0  -5  379.89   12.79
   0  -1  -5  367.30   12.84
   0  -1  -5  367.14   13.47
   0   1   5  390.37   13.48
   1  -1   5  368.83   13.39
   1  -1   5  367.15   12.28
   1  -1   5  358.22   12.41
  -1   2  -5 1006.98   34.44
   2  -1  -5 1017.03   34.32
  -1   2  -5 1041.18   35.11
  -1   2  -5 1169.95   34.91
  -1  -1  -5 1036.06   35.22
  -1  -1  -5 1022.02   35.43
   2  -1  -5 1032.68   34.84
   2  -1  -5 1038.92   35.05
  -1  -1  -5 1003.42   34.58
  -1   2  -5 1051.64   35.19
   2  -1  -5 1032.80   35.64
  -1   2  -5  988.00   34.60
  -1   2  -5 1065.51   34.65
  -1  -1  -5  990.24   34.26
   1   1   5  986.12   34.91
   1   1   5 1043.96   35.60
   1  -2   5 1003.51   35.41
  -2  -1  -5   94.46    4.15
  -1   3  -5   93.72    3.64
  -2  -1  -5   97.45    4.78
  -1   3  -5   99.68    3.78
   3  -2  -5   94.93    3.88
   3  -2  -5   93.89    4.00
  -1   3  -5   97.49    3.48
   3  -2  -5   90.05    4.33
  -1   3  -5  100.35    4.39
  -1   3  -5   97.24    3.44
  -2  -1  -5   88.43    3.61
  -2  -1  -5   89.83    4.71
   2   1   5  106.32    5.32
  -3   2   5   91.40    4.51
  -2   0  -5   79.23    4.19
   2  -2  -5   85.98    3.45
  -2   0  -5   86.45    4.12
   2  -2  -5   85.19    3.87
  -2   0  -5   83.53    3.57
   0  -2   5   82.29    4.26
   2   0   5   94.75    4.69
  -2   2   5   79.37    3.95
   2   0   5   75.31    3.52
  -2   1  -5 1025.87   34.56
  -2   1  -5  990.05   36.54
   1  -2  -5 1054.29   36.67
  -2   1  -5 1043.71   35.53
  -2   1  -5 1003.68   35.44
   1  -2  -5 1008.30   34.57
   2  -1   5  987.51   35.08
  -1   2   5 1078.45   35.47
  -1  -1   5 1046.30   35.56
   2  -1   5 1099.02   35.77
   0  -2  -5   81.37    3.22
   0  -2  -5   80.75    4.01
  -2   2  -5   77.58    3.94
  -2   2  -5   79.24    3.61
   2   0  -5   83.26    3.50
   0  -2  -5   79.50    3.91
   2   0  -5   77.89    3.15
   0  -2  -5   78.68    3.45
   0  -2  -5   78.82    2.94
  -2   2  -5   82.62    3.25
   2  -2   5   79.78    3.19
   2  -2   5   81.14    4.06
   2  -2   5   81.60    2.97
   0   2   5   79.27    4.13
   3  -1  -5  217.44    8.18
  -2   3  -5  205.82    7.88
  -2   3  -5  210.17    8.40
  -1  -2  -5  220.54    8.10
   3  -1  -5  210.51    7.80
  -1  -2  -5  195.89    8.56
   3  -1  -5  214.93    8.51
   3  -1  -5  212.12    7.69
  -2   3  -5  218.12    7.63
  -1  -2  -5  208.63    8.74
  -2   3  -5  214.71    7.53
  -2   3  -5  213.68    8.08
  -1  -2  -5  211.16    7.57
  -2   3  -5  254.65    9.26
   1   2   5  218.66    9.15
   2  -3   5  205.11    8.90
   4  -2  -5   67.45    3.66
  -2  -2  -5   72.05    2.87
  -2   4  -5   73.41    3.50
  -2  -2  -5   69.04    4.00
  -2  -2  -5   74.05    4.18
  -2   4  -5   74.34    3.54
  -2   4  -5   70.72    2.91
  -2   4  -5   72.70    2.99
  -2   4  -5   69.92    3.28
   4  -2  -5   70.18    3.34
  -2  -2  -5   70.05    3.49
   4  -2  -5   70.05    3.19
  -4   2   5   72.08    3.88
   2  -4   5   70.79    4.27
   2   2   5   69.21    4.48
   5  -3  -5   55.47    2.92
  -2   5  -5   53.21    2.95
  -3  -2  -5   55.67    3.87
  -2   5  -5   58.42    2.66
  -2   5  -5   54.97    2.57
   5  -3  -5   53.98    3.49
   5  -3  -5   58.02    3.15
  -3  -2  -5   55.13    3.17
  -3  -2  -5   60.11    2.40
  -3  -2  -5   55.23    3.76
  -2   5  -5   57.04    3.25
  -2   5  -5   58.92    2.90
   2  -5   5   61.52    4.08
   3   2   5   60.24    4.49
  -5   3   5   56.62    3.76
   3   2   5   56.04    2.74
   4  -3  -5   57.48    3.37
   4  -3  -5   58.81    2.86
  -1   4  -5   56.67    2.98
  -1   4  -5   57.77    2.67
  -1   4  -5   58.50    2.38
   4  -3  -5   58.50    3.01
  -3  -1  -5   59.58    3.11
  -3  -1  -5   61.12    3.78
  -1   4  -5   57.96    2.42
  -3  -1  -5   57.07    3.72
  -3  -1  -5   54.98    2.38
  -1   4  -5   57.98    2.85
   1  -4   5   56.82    3.75
   3   1   5   62.14    4.25
  -4   3   5   59.13    3.63
  -3   0  -5  502.57   18.09
  -3   0  -5  497.77   18.17
   3  -3  -5  498.88   16.95
   0   3  -5  487.38   16.41
   0   3  -5  478.59   16.15
   3  -3  -5  462.33   17.56
   0   3  -5  479.59   16.33
   0   3  -5  478.85   16.15
   3  -3  -5  512.51   17.12
  -3   0  -5  478.47   17.13
   3   0   5  499.11   18.91
  -3   3   5  483.27   17.97
   0  -3   5  473.06   18.08
   2  -3  -5   91.58    4.62
  -3   1  -5   95.10    4.20
  -3   1  -5   98.72    4.81
   2  -3  -5  105.23    4.19
  -3   1  -5   97.11    4.93
  -1  -2   5   96.85    4.99
  -2   3   5   98.41    4.89
   3  -1   5  109.87    5.67
   1  -3  -5  211.99    8.66
   1  -3  -5  214.96    8.76
   2   1  -5  214.29    7.88
  -3   2  -5  215.90    8.06
   2   1  -5  205.65    7.66
  -3   2  -5  212.82    8.88
  -3   2  -5  214.78    8.71
   1  -3  -5  216.77    8.14
  -3   2  -5  224.28    9.87
   2   1  -5  216.58    7.54
   2   1  -5  252.55    8.27
  -1   3   5  217.73    9.08
   0  -3  -5    0.77    0.47
  -3   3  -5    0.74    0.60
  -3   3  -5    0.80    0.53
   0  -3  -5    1.04    0.59
   3   0  -5    1.09    0.52
   0  -3  -5    0.51    0.57
   3   0  -5    0.81    0.75
   3   0  -5    0.34    0.29
   3   0  -5    1.66    0.36
  -3   3  -5    0.34    0.82
  -3   3  -5    1.54    0.49
   3  -3   5    1.07    0.69
  -3   0   5    1.32    0.38
   0   3   5    1.35    0.84
   3  -3   5    0.99    0.31
   4  -1  -5  220.62    9.00
  -3   4  -5  194.97    9.73
   4  -1  -5  213.32   10.37
  -3   4  -5  222.33    8.65
  -1  -3  -5  218.39    8.94
  -1  -3  -5  223.65    8.44
  -3   4  -5  217.19    8.03
  -3   4  -5  217.95    7.90
  -3   4  -5  219.94    8.76
   4  -1  -5  219.93    8.15
  -1  -3  -5  214.62    9.21
  -3   4  -5  210.71    8.40
   3  -4   5  209.79    9.40
   1   3   5  224.52    9.66
   3  -4   5  218.83    7.58
   3  -4   5  219.12    7.93
  -2  -3  -5   22.66    2.23
   5  -2  -5   13.03    2.83
  -3   5  -5   23.65    1.49
   5  -2  -5   25.08    1.70
   5  -2  -5   23.07    1.76
  -2  -3  -5   23.52    2.36
  -3   5  -5   21.88    1.81
  -3   5  -5   23.51    1.56
  -2  -3  -5   24.09    1.90
  -3   5  -5   23.52    1.79
  -3   5  -5   23.69    2.06
   5  -2  -5   22.73    2.08
   3  -5   5   28.13    2.66
   3  -5   5   21.44    1.53
  -5   2   5   21.91    2.13
   2   3   5   24.04    2.66
  -3  -3  -5  178.80    7.62
   6  -3  -5  176.25    7.93
  -3   6  -5  182.43    7.05
  -3  -3  -5  180.11    8.36
  -3   6  -5  181.99    6.96
  -3   6  -5  181.35    6.97
  -3  -3  -5  168.80    8.53
   6  -3  -5  179.78    8.21
  -3   6  -5  176.76    8.00
   6  -3  -5  178.29    7.29
   3   3   5  182.80    9.36
  -6   3   5  180.75    8.47
   3  -6   5  182.47    8.91
   7  -4  -5   24.78    2.05
  -4  -3  -5   22.98    2.83
  -3   7  -5   19.47    2.32
   7  -4  -5   21.30    2.52
  -4  -3  -5   24.94    2.28
  -4  -3  -5   21.24    2.68
  -7   4   5   22.70    2.72
   3  -7   5   27.47    3.11
   4   3   5   16.95    3.27
  -4  -2  -5    8.89    2.02
  -2   6  -5    8.55    1.09
   6  -4  -5    6.87    1.53
  -2   6  -5    7.82    1.49
   6  -4  -5    7.21    1.24
  -2   6  -5    7.86    0.89
  -4  -2  -5    7.53    1.76
  -4  -2  -5    7.89    1.35
  -6   4   5    6.68    1.67
   4   2   5    7.07    2.07
   2  -6   5    9.70    2.07
  -4  -1  -5   10.81    2.03
  -1   5  -5    8.03    1.30
   5  -4  -5    9.15    1.30
  -1   5  -5    7.75    0.98
   5  -4  -5    6.98    1.45
  -4  -1  -5   11.79    2.09
  -1   5  -5    8.87    0.81
  -4  -1  -5   10.46    1.50
  -4  -1  -5    8.91    0.69
  -1   5  -5    8.67    1.03
   1  -5   5    7.34    1.54
  -5   4   5    9.50    1.83
   4   1   5    3.60    1.60
   0   4  -5    2.37    0.62
  -4   0  -5    1.78    0.89
   4  -4  -5    2.77    0.73
  -4   0  -5    2.29    0.71
   4  -4  -5    1.68    0.82
   0   4  -5    2.65    0.44
   0   4  -5    2.58    0.58
  -4   0  -5    2.97    1.12
  -4   4   5    2.20    0.97
   0  -4   5    2.49    0.94
   4   0   5    1.39    1.17
   3  -4  -5   59.57    2.93
   1   3  -5   55.81    2.58
   1   3  -5   55.18    2.54
  -4   1  -5   55.78    3.70
   3  -4  -5   54.05    3.41
  -4   1  -5   54.51    3.60
   1   3  -5   56.83    2.28
  -4   1  -5   57.13    3.00
   4  -1   5   64.40    4.62
  -3   4   5   60.30    3.82
  -1  -3   5   56.53    3.71
   2   2  -5   69.42    2.77
  -4   2  -5   71.33    4.15
   2   2  -5   71.14    3.27
  -4   2  -5   70.39    4.06
   2   2  -5   70.74    3.12
  -4   2  -5   69.28    3.40
   2  -4  -5   67.65    3.32
   2  -4  -5   70.72    3.96
  -2   4   5   67.50    4.13
   3   1  -5  218.32    7.74
   1  -4  -5  210.99    8.76
   3   1  -5  220.50    7.94
  -4   3  -5  219.28    8.37
   1  -4  -5  236.15    8.54
  -4   3  -5  219.53    9.21
  -4   3  -5  219.18    9.20
   3   1  -5  252.81    9.34
   3   1  -5  214.33    8.48
   1  -4  -5  218.83    9.22
  -1   4   5  228.74    9.67
   4  -3   5  220.74    8.64
   4  -3   5  180.89    9.89
  -4   4  -5  118.33    4.92
   4   0  -5  108.82    5.36
   0  -4  -5  113.20    5.34
   4   0  -5  115.23    4.75
   4   0  -5  127.02    6.55
   0  -4  -5  120.70    5.91
  -4   4  -5  116.51    5.53
  -4   4  -5  117.26    5.69
   0  -4  -5  117.85    5.10
   4  -4   5  116.44    4.55
   0   4   5  110.23    6.07
   4  -4   5  112.59    5.03
  -4   0   5  108.58    4.76
   5  -1  -5   53.03    2.92
  -1  -4  -5   55.16    3.13
  -4   5  -5   50.31    3.48
  -1  -4  -5   57.15    3.50
  -1  -4  -5   58.11    3.87
   5  -1  -5   54.40    4.98
  -4   5  -5   54.44    2.87
  -4   5  -5   54.38    3.24
  -5   1   5   55.98    3.32
   1   4   5   54.74    4.14
   4  -5   5   54.12    2.49
   4  -5   5   58.88    4.08
  -2  -4  -5   32.82    2.85
  -2  -4  -5   35.53    3.18
   6  -2  -5   34.93    2.32
  -4   6  -5   31.98    2.07
  -4   6  -5   35.23    2.21
  -4   6  -5   33.85    2.88
  -4   6  -5   35.35    2.35
  -2  -4  -5   32.69    2.45
   4  -6   5   34.21    3.27
  -6   2   5   35.61    2.91
   2   4   5   32.77    3.46
  -3  -4  -5  100.42    6.08
  -3  -4  -5   99.52    5.07
   7  -3  -5  104.55    4.91
   7  -3  -5   96.90    5.71
  -4   7  -5   97.36    5.71
  -3  -4  -5  100.66    5.76
  -4   7  -5   98.25    4.62
   4  -7   5   95.82    6.32
   3   4   5   94.90    6.64
  -4  -4  -5    7.29    1.99
   8  -4  -5    9.31    2.16
   8  -4  -5    8.83    1.60
  -4  -4  -5    8.63    2.11
  -4   8  -5    7.18    1.86
   4   4   5    6.68    2.26
   4  -8   5    8.50    2.31
  -5  -4  -5    9.58    2.45
   9  -5  -5   12.22    2.04
   9  -5  -5   14.16    2.90
  -4   9  -5    8.30    2.38
   5   4   5    9.50    2.92
   4  -9   5   18.41    3.59
   8  -5  -5    0.11    0.74
   8  -5  -5    0.28    0.92
  -5  -3  -5   -0.04    1.08
  -3   8  -5    2.52    1.13
  -5  -3  -5    0.29    0.95
   5   3   5   -0.48    1.14
  -2   7  -5  116.83    6.36
  -5  -2  -5  133.64    7.39
   7  -5  -5  123.44    6.82
  -5  -2  -5  121.96    6.03
   7  -5  -5  130.74    5.91
  -5  -2  -5  125.96    7.15
  -7   5   5  127.17    7.27
   5   2   5  121.95    8.21
   2  -7   5  130.62    7.37
  -1   6  -5   52.74    3.51
  -5  -1  -5   56.68    4.31
  -5  -1  -5   50.48    4.11
  -5  -1  -5   54.65    3.37
  -1   6  -5   55.26    2.73
   6  -5  -5   56.30    3.92
   6  -5  -5   57.56    3.22
  -5  -1  -5   53.88    2.25
  -1   6  -5   55.85    2.70
   5   1   5   50.99    5.01
   1  -6   5   63.57    4.42
  -6   5   5   55.38    4.27
   0   5  -5    4.21    1.01
   0   5  -5    2.23    0.70
  -5   0  -5    2.33    1.11
   5  -5  -5    2.64    1.09
  -5   0  -5    2.16    1.25
   5  -5  -5    3.84    0.94
   0   5  -5    3.38    0.63
  -5   0  -5    3.02    0.92
  -5   5   5    0.63    0.96
   5   0   5    5.53    2.14
   0  -5   5    3.07    1.16
   4  -5  -5    9.20    1.34
  -5   1  -5    9.07    1.37
  -5   1  -5    6.99    1.63
   1   4  -5    8.54    0.78
   1   4  -5    9.29    1.29
   1   4  -5    8.16    1.00
   4  -5  -5    9.85    1.77
  -5   1  -5    8.71    1.82
  -1  -4   5   12.34    2.11
  -4   5   5    7.79    1.81
   5  -1   5    4.19    1.77
   2   3  -5   57.09    2.91
  -5   2  -5   54.48    3.82
   2   3  -5   56.79    3.06
  -5   2  -5   56.18    3.92
   3  -5  -5   55.29    3.01
   2   3  -5   57.91    2.52
   3  -5  -5   54.07    3.64
  -5   2  -5   55.44    3.10
  -2  -3   5   56.81    3.89
   5  -2   5   45.72    4.75
  -3   5   5   58.57    4.04
   2  -5  -5   23.92    1.80
   3   2  -5   22.37    1.78
   3   2  -5   22.57    1.43
  -5   3  -5   22.20    2.31
  -5   3  -5   22.40    1.81
   2  -5  -5   22.17    1.86
   3   2  -5   22.19    1.22
   3   2  -5   25.98    2.17
  -5   3  -5   22.74    2.33
   2  -5  -5   23.29    2.26
  -2   5   5   23.47    2.52
   5  -3   5   22.42    1.63
   5  -3   5   17.76    3.31
   1  -5  -5   53.36    2.68
   1  -5  -5   54.16    3.69
   4   1  -5   55.97    3.32
   1  -5  -5   51.10    3.01
   4   1  -5   56.84    2.75
  -5   4  -5   52.34    2.99
  -5   4  -5   50.80    3.68
   1  -5  -5   53.28    3.14
  -5   4  -5   51.25    3.56
   4   1  -5   57.23    4.07
   5  -4   5   58.88    3.37
  -1   5   5   56.96    4.11
   5   0  -5    6.51    2.02
   0  -5  -5    9.39    1.39
   0  -5  -5   10.18    1.63
  -5   5  -5    9.86    1.94
   0  -5  -5   11.35    2.07
  -5   5  -5    9.93    1.77
  -5   5  -5    9.06    1.33
   5   0  -5    8.27    1.22
   0  -5  -5    9.23    0.82
   5  -5   5    8.95    1.45
   0   5   5    9.11    2.04
  -5   0   5    8.44    1.79
   5  -5   5   11.48    1.26
  -1  -5  -5  148.29    7.63
   6  -1  -5  138.49    9.44
  -5   6  -5  150.38    6.43
  -1  -5  -5  148.96    6.96
  -5   6  -5  151.63    7.56
  -5   6  -5  147.97    6.71
  -1  -5  -5  150.93    6.65
   5  -6   5  153.61    8.12
   1   5   5  157.39    8.24
  -5   7  -5   58.85    4.37
  -2  -5  -5   62.28    3.74
  -5   7  -5   60.89    3.38
  -2  -5  -5   65.21    4.73
  -2  -5  -5   62.22    4.11
  -5   7  -5   59.53    3.45
   2   5   5   60.42    5.05
   5  -7   5   65.24    5.04
   8  -3  -5   32.67    3.34
   8  -3  -5   34.32    2.69
  -3  -5  -5   28.29    3.29
  -5   8  -5   31.41    2.46
  -5   8  -5   30.57    3.28
  -3  -5  -5   32.91    3.21
   3   5   5   27.37    4.13
   5  -8   5   35.04    4.08
   9  -4  -5   31.92    2.86
  -5   9  -5   30.58    3.54
  -4  -5  -5   28.45    3.31
   9  -4  -5   31.41    3.53
   5  -9   5   27.81    4.59
   4   5   5   28.44    4.81
  -5  10  -5    2.55    1.81
   5   5   5    4.44    2.33
  -6  -3  -5   10.61    2.58
   9  -6  -5    8.69    1.73
  -3   9  -5    8.64    2.39
   9  -6  -5    7.55    2.14
   3  -9   5   18.39    3.50
   6   3   5    8.93    3.08
  -6  -2  -5    7.16    2.21
  -2   8  -5    4.58    1.56
  -6  -2  -5    4.20    1.74
   8  -6  -5    4.53    1.24
   8  -6  -5    5.39    1.70
   6   2   5    2.89    2.17
   2  -8   5    3.87    2.22
  -8   6   5    4.31    1.88
   7  -6  -5   52.51    4.12
  -6  -1  -5   52.42    3.53
  -1   7  -5   42.23    3.55
  -6  -1  -5   51.94    4.45
   7  -6  -5   53.17    3.32
  -6  -1  -5   53.39    4.45
   6   1   5   53.61    5.71
  -7   6   5   50.47    4.45
   1  -7   5   54.86    4.40
  -6   0  -5    6.53    1.34
  -6   0  -5    7.11    1.90
   0   6  -5    5.48    1.34
  -6   0  -5    6.41    1.99
   6  -6  -5    5.57    1.56
   6  -6  -5    7.11    1.30
  -6   0  -5    6.11    0.68
   0  -6   5    8.66    2.01
  -6   6   5    8.00    2.06
   6   0   5    4.67    2.25
  -6   1  -5   52.41    4.12
  -6   1  -5   55.90    3.39
   1   5  -5   55.83    2.67
   5  -6  -5   54.20    3.19
   5  -6  -5   51.57    3.84
   1   5  -5   51.40    3.28
  -6   1  -5   52.31    4.19
  -5   6   5   57.94    4.43
  -1  -5   5   54.57    4.14
   6  -1   5   44.89    5.04
  -6   2  -5    6.72    1.72
   2   4  -5    7.80    1.49
  -6   2  -5    7.92    1.42
  -6   2  -5   10.61    2.15
   4  -6  -5    7.80    1.32
   2   4  -5    8.85    1.08
   4  -6  -5    7.01    1.71
   6  -2   5    5.73    2.37
  -4   6   5    8.23    2.10
  -2  -4   5    6.98    1.75
   3  -6  -5  183.16    7.50
  -6   3  -5  171.69    7.57
   3   3  -5  181.96    7.98
   3   3  -5  176.00    6.90
  -6   3  -5  187.21    8.76
   3  -6  -5  169.67    8.33
   3  -6  -5  177.27    7.57
  -6   3  -5  176.08    8.74
   3   3  -5  184.07    6.45
  -3   6   5  187.91    8.97
   2  -6  -5   36.25    2.42
   2  -6  -5   34.13    2.50
  -6   4  -5   36.68    3.30
  -6   4  -5   32.15    2.45
   2  -6  -5   32.95    2.35
   4   2  -5   35.16    1.59
   2  -6  -5   37.88    3.17
  -6   4  -5   38.12    3.24
   4   2  -5   32.94    3.11
   4   2  -5   32.31    2.10
   6  -4   5   34.85    2.27
  -2   6   5   36.65    3.45
   6  -4   5   36.88    2.85
  -6   5  -5  150.06    7.40
   1  -6  -5  149.96    7.67
  -6   5  -5  149.79    6.69
   1  -6  -5  150.38    6.21
   1  -6  -5  147.08    6.67
  -6   5  -5  159.66    7.96
   1  -6  -5  156.06    6.62
   5   1  -5  147.35    8.42
   6  -5   5  158.74    7.21
  -1   6   5  153.63    8.17
   0  -6  -5   10.38    2.20
  -6   6  -5    8.79    1.76
   0  -6  -5   10.96    1.61
   0  -6  -5   10.50    1.65
  -6   6  -5   12.29    1.74
  -6   6  -5   10.66    2.17
   6   0  -5   19.28    3.68
   0   6   5    8.28    2.07
   7  -1  -5   34.74    5.87
  -1  -6  -5   47.90    4.03
  -1  -6  -5   48.78    3.40
  -6   7  -5   50.51    3.32
  -6   7  -5   49.39    4.16
  -6   7  -5   47.28    3.10
   1   6   5   47.84    4.49
   6  -7   5   53.52    4.65
   8  -2  -5    9.27    3.56
  -6   8  -5   19.03    2.31
  -2  -6  -5   15.36    2.37
  -2  -6  -5   19.32    3.10
  -6   8  -5   14.57    2.76
   2   6   5   13.90    3.09
   6  -8   5   17.28    3.23
  -6   9  -5   19.62    3.26
   9  -3  -5   21.05    2.67
  -3  -6  -5   18.58    2.86
   9  -3  -5   22.01    3.63
   6  -9   5   27.97    4.63
   3   6   5   22.47    4.29
  -2   9  -5   36.29    3.57
  -7  -2  -5   30.21    4.45
   9  -7  -5   28.20    3.49
   9  -7  -5   25.54    2.99
   7   2   5   16.21    4.34
   8  -7  -5   76.24    5.52
  -1   8  -5   77.76    5.11
   8  -7  -5   80.80    4.56
  -7  -1  -5   76.57    5.82
  -7  -1  -5   73.43    5.81
  -8   7   5   79.88    6.05
   7   1   5   54.10    6.56
   7  -7  -5  161.82    8.69
  -7   0  -5  165.10    7.83
   7  -7  -5  162.81    7.55
   0   7  -5  172.85    8.19
  -7   0  -5  172.67    9.42
  -7   0  -5  176.88    9.45
   0  -7   5  184.80    9.25
  -7   7   5  170.94    9.45
  -7   1  -5   53.29    4.50
   1   6  -5   51.03    3.61
   6  -7  -5   51.40    3.34
   6  -7  -5   54.69    4.25
  -7   1  -5   49.11    3.47
  -7   1  -5   52.97    4.53
  -6   7   5   52.91    4.64
  -1  -6   5   54.12    4.33
   7  -1   5   41.52    6.40
   5  -7  -5  129.51    6.97
   5  -7  -5  125.67    5.88
   2   5  -5  123.72    6.26
  -7   2  -5  129.14    7.39
  -7   2  -5  134.70    7.49
  -7   2  -5  118.37    6.02
  -5   7   5  130.70    7.59
   7  -2   5   92.57    8.58
  -7   3  -5   21.08    2.69
  -7   3  -5   18.81    2.26
   4  -7  -5   22.86    2.61
   3   4  -5   22.87    1.24
  -7   3  -5   19.00    3.00
   3   4  -5   21.34    2.39
   4  -7  -5   22.61    2.45
  -4   7   5   22.21    3.40
  -7   4  -5   97.78    6.28
  -7   4  -5  104.63    5.22
   3  -7  -5   96.70    5.22
   3  -7  -5   92.56    4.90
   4   3  -5   99.74    5.89
   3  -7  -5  100.64    4.74
   4   3  -5   97.80    3.74
   3  -7  -5  101.42    5.94
  -7   4  -5   98.57    6.08
  -3   7   5  102.60    6.39
   7  -4   5  102.62    5.78
   2  -7  -5   67.42    4.02
  -7   5  -5   59.51    4.44
   2  -7  -5   58.98    3.51
   2  -7  -5   55.39    4.30
  -7   5  -5   61.82    4.76
  -7   5  -5   56.07    3.64
   2  -7  -5   60.68    3.64
   7  -5   5   58.72    4.10
  -2   7   5   62.17    4.87
  -7   6  -5   55.09    4.00
   1  -7  -5   49.22    4.07
  -7   6  -5   48.64    4.25
  -7   6  -5   47.66    3.27
   6   1  -5   46.54    5.03
  -1   7   5   41.99    4.18
   0  -7  -5   27.92    3.16
  -7   7  -5   31.88    2.87
  -7   7  -5   29.48    3.41
  -7   7  -5   22.76    2.58
   0   7   5   31.88    3.69
  -7   8  -5    7.95    2.13
  -7   8  -5    8.52    1.67
   8  -1  -5    2.43    2.39
   1   7   5    7.67    2.40
   7  -8   5    5.12    2.54
  -7   9  -5    0.71    1.33
   9  -2  -5    0.05    2.07
  -7   9  -5    2.89    1.13
   7  -9   5   -0.60    1.61
   2   7   5   -0.14    1.28
   9  -8  -5   14.90    3.06
  -1   9  -5   14.78    2.66
  -8  -1  -5   13.87    3.14
   1  -9   5    6.75    2.69
   8   1   5    6.06    3.25
  -8   0  -5    7.63    2.47
   8  -8  -5    6.07    1.92
  -8   0  -5    5.81    2.14
   0   8  -5    2.93    1.51
   8   0   5    2.54    2.30
  -8   8   5    4.91    2.15
  -8   1  -5   77.50    6.08
   1   7  -5   88.47    5.33
  -8   1  -5   73.59    5.92
   7  -8  -5   76.02    5.53
  -1  -7   5   91.24    5.70
  -7   8   5   69.31    5.90
  -8   2  -5    6.46    2.29
  -8   2  -5    3.58    1.17
  -8   2  -5    4.14    1.84
   6  -8  -5    3.62    1.39
   2   6  -5    3.57    1.51
   6  -8  -5    5.09    1.74
   8  -2   5    1.99    2.37
  -6   8   5    3.36    1.82
  -8   3  -5    3.09    1.49
   5  -8  -5    0.91    1.05
   3   5  -5   -0.08    0.84
  -8   3  -5   -0.22    0.58
  -8   3  -5    0.14    0.87
  -5   8   5   -0.27    0.96
   8  -3   5    0.70    2.07
   4  -8  -5    6.06    1.82
   4   4  -5    9.75    2.12
  -8   4  -5    8.89    1.68
  -8   4  -5    6.19    2.05
  -8   4  -5   17.10    3.06
  -4   8   5    6.58    2.12
   8  -4   5    4.31    2.75
   8  -4   5    7.37    1.87
   5   3  -5   26.85    3.99
  -8   5  -5   30.81    3.41
   3  -8  -5   32.49    3.31
  -8   5  -5   30.71    2.74
  -8   5  -5   25.30    3.74
   3  -8  -5   29.81    2.68
  -3   8   5   32.00    3.68
  -8   6  -5   18.33    3.01
   2  -8  -5   14.87    2.67
  -8   6  -5   18.42    2.41
   6   2  -5   13.41    3.14
  -8   6  -5   16.55    3.12
  -2   8   5   17.74    3.33
  -8   7  -5    8.88    1.73
  -8   7  -5    7.54    1.81
  -8   7  -5    8.22    2.45
   7   1  -5    5.88    2.73
  -1   8   5    8.33    2.54
   8   0  -5   -0.88    1.73
  -8   8  -5    0.46    0.84
  -8   8  -5    0.15    1.20
   0   8   5   -0.60    1.14
   9  -1  -5    1.65    2.74
  -8   9  -5    9.88    2.70
  -8   9  -5    8.21    1.78
   1   8   5   12.23    3.22
  -9   1  -5   14.12    3.29
   8  -9  -5   12.38    2.76
  -9   1  -5   15.65    3.38
   1   8  -5   15.23    2.80
   9  -1   5    3.07    3.23
  -1  -8   5   18.22    3.67
  -8   9   5   13.68    3.34
  -9   2  -5   34.91    4.21
   2   7  -5   31.58    3.41
  -9   2  -5   27.96    4.31
   7  -9  -5   23.24    3.66
  -7   9   5   26.43    4.53
  -9   3  -5    7.11    2.43
   3   6  -5    7.50    2.08
  -9   3  -5    8.66    2.50
   6  -9  -5    7.93    2.14
  -6   9   5    8.54    2.66
   9  -3   5    3.33    3.18
   5  -9  -5   12.53    2.71
  -9   4  -5   12.36    2.82
   4   5  -5   11.42    2.50
  -9   4  -5   12.28    2.16
  -9   4  -5   10.99    3.11
   9  -4   5   12.63    2.62
   9  -4   5    2.55    2.60
  -5   9   5   12.58    3.04
   4  -9  -5   30.05    4.45
  -9   5  -5   40.36    4.08
   5   4  -5   21.33    3.82
  -9   5  -5   28.07    3.17
  -9   5  -5   34.09    4.06
  -4   9   5   31.78    4.57
  -9   6  -5   17.84    2.49
  -9   6  -5   15.99    3.26
   6   3  -5   15.62    3.67
  -9   6  -5   16.34    3.03
  -3   9   5   18.21    3.47
  -9   7  -5    1.27    0.91
  -9   7  -5    1.00    1.49
   7   2  -5    0.54    1.87
  -9   7  -5    0.81    1.15
  -2   9   5    0.54    1.33
  -9   8  -5   11.15    2.12
   8   1  -5    1.21    2.58
  -9   8  -5    7.90    2.54
  -1   9   5    6.57    2.34
   5   5  -5   -0.15    1.60
 -10   5  -5    5.25    2.23
  -5  10   5    0.84    1.53
   0   0  -6   83.92    3.19
   0   0  -6   84.47    3.51
   0   0  -6   77.69    3.32
   0   0  -6   84.32    3.69
   0   0   6   84.39    3.86
   0   1  -6   49.61    2.00
   0   1  -6   50.18    1.86
  -1   0  -6   49.10    2.67
   1  -1  -6   51.19    2.23
   1  -1  -6   50.66    2.27
   1  -1  -6   50.63    2.77
  -1   0  -6   48.17    2.82
  -1   0  -6   52.66    2.32
   0   1  -6   48.10    2.15
  -1   0  -6   49.82    3.07
   1  -1  -6   52.01    2.58
   0  -1   6   51.53    2.98
   1   0   6   48.46    2.55
   1   0   6   54.49    3.01
   0  -1  -6  108.49    5.14
   1   0  -6  116.46    4.60
   0  -1  -6  113.30    4.44
  -1   1  -6  110.83    4.85
  -1   1  -6  117.34    4.66
  -1   1  -6  121.80    4.33
   0  -1  -6  113.77    5.40
   0  -1  -6  117.38    4.53
   1   0  -6  120.63    4.46
   0  -1  -6  121.83    5.02
  -1   1  -6  115.95    5.39
   1   0  -6  116.94    4.45
   1   0  -6  117.73    4.19
   1  -1   6  115.87    5.17
   0   1   6  114.03    5.13
  -1   2  -6  261.43    8.87
  -1  -1  -6  259.65   10.11
  -1   2  -6  257.04   10.16
  -1  -1  -6  271.36    9.49
   2  -1  -6  262.61    9.23
  -1  -1  -6  251.49    9.16
  -1   2  -6  259.92    9.12
   2  -1  -6  261.56    9.91
   2  -1  -6  258.85    9.57
  -1  -1  -6  256.53   10.37
   2  -1  -6  261.25    9.14
   1   1   6  246.72    9.11
  -2   1   6  265.66    9.45
   1  -2   6  255.64   10.32
   1   1   6  279.44   10.54
   3  -2  -6  316.45   11.46
  -2  -1  -6  306.53   11.21
  -2  -1  -6  323.05   11.80
   3  -2  -6  331.76   12.11
  -2  -1  -6  326.83   12.75
  -1   3  -6  327.15   10.89
  -1   3  -6  333.35   11.23
  -1   3  -6  329.38   12.26
  -2  -1  -6  312.84   12.54
  -1   3  -6  315.84   11.10
  -1   3  -6  336.66   10.95
   1  -3   6  317.65   12.80
  -3   2   6  325.62   12.15
   2   1   6  315.67   11.22
   2   1   6  337.02   13.15
   2  -2  -6   22.21    1.38
   2  -2  -6   21.18    1.67
  -2   0  -6   23.97    1.90
  -2   0  -6   23.52    1.53
  -2   0  -6   21.42    1.96
   2   0   6   21.75    2.22
  -2   2   6   23.91    1.84
   2   0   6   21.36    1.51
   0  -2   6   21.33    1.97
   1  -2  -6  248.43    9.09
  -2   1  -6  254.38   10.25
  -2   1  -6  251.81    9.19
   1   1  -6  251.48    9.06
  -2   1  -6  260.97    9.77
  -2   1  -6  258.34   10.08
   1  -2  -6  259.02    9.84
   1  -2  -6  261.68    9.25
  -1  -1   6  252.37   10.20
   2  -1   6  257.80    9.84
  -1   2   6  260.12   10.03
  -2   2  -6    4.94    1.07
  -2   2  -6    8.94    1.42
  -2   2  -6    6.40    0.76
   2   0  -6    5.16    0.69
   0  -2  -6    5.14    0.71
  -2   2  -6    6.21    0.95
   2   0  -6    5.39    0.56
   0  -2  -6    5.10    0.52
   2   0  -6    5.62    0.86
   0  -2  -6    6.44    1.19
   0  -2  -6    5.24    0.81
   0  -2  -6    5.87    1.20
   2  -2   6    5.17    0.52
   0   2   6    5.90    1.25
   2  -2   6    5.84    0.41
   2  -2   6    4.21    1.01
  -1  -2  -6  208.47    7.25
   3  -1  -6  189.90    8.04
   3  -1  -6  193.29    7.34
   3  -1  -6  198.31    7.25
  -1  -2  -6  191.32    7.65
  -1  -2  -6  206.19    8.52
  -2   3  -6  199.24    7.18
  -2   3  -6  203.47    7.66
  -2   3  -6  196.03    8.18
  -1  -2  -6  207.35    8.49
   3  -1  -6  197.11    7.73
  -3   1   6  197.54    7.50
   1   2   6  203.64    8.83
   2  -3   6  204.29    8.69
  -2  -2  -6  166.64    6.82
   4  -2  -6  162.48    6.57
  -2   4  -6  166.80    7.01
  -2   4  -6  169.51    6.68
  -2   4  -6  163.42    6.12
   4  -2  -6  163.73    6.40
  -2  -2  -6  164.97    7.64
  -2   4  -6  165.05    6.45
  -2  -2  -6  170.47    7.63
   4  -2  -6  170.18    7.10
  -2  -2  -6  170.67    6.12
  -2   4  -6  163.31    6.03
   2  -4   6  168.25    7.87
  -4   2   6  166.70    7.13
   2   2   6  161.16    8.05
  -3  -2  -6  120.37    5.55
  -2   5  -6  118.86    5.44
  -3  -2  -6  122.02    4.61
   5  -3  -6  113.10    5.35
  -3  -2  -6  123.58    6.41
   5  -3  -6  122.17    5.22
  -2   5  -6  123.12    5.21
  -2   5  -6  125.27    5.44
  -2   5  -6  122.71    4.73
  -3  -2  -6  131.42    6.63
   5  -3  -6  121.93    5.97
  -2   5  -6  125.50    4.80
   2  -5   6  122.94    6.62
  -5   3   6  118.12    6.09
   3   2   6  114.42    4.52
   3   2   6  126.92    7.18
  -1   4  -6  241.22    8.86
  -1   4  -6  246.40    9.51
  -3  -1  -6  228.35    8.52
   4  -3  -6  240.01    9.25
  -3  -1  -6  243.12    9.39
  -1   4  -6  250.78    8.38
   4  -3  -6  247.09    9.06
  -1   4  -6  234.03    8.40
  -3  -1  -6  241.53   10.37
  -3  -1  -6  250.04   10.39
   4  -3  -6  235.49    9.77
  -1   4  -6  238.14    8.67
   1  -4   6  242.94   10.51
  -4   3   6  244.46   10.09
   3   1   6  247.05   10.99
  -3   0  -6  250.99   10.01
  -3   0  -6  233.60   10.06
   3  -3  -6  232.20    9.53
  -3   0  -6  227.79    9.05
   3  -3  -6  244.45    8.90
   3   0   6  264.52   11.00
  -3   3   6  233.08    9.75
   0  -3   6  231.85   10.08
   2  -3  -6  325.12   11.77
   2  -3  -6  318.95   12.43
  -3   1  -6  326.81   11.84
  -3   1  -6  319.74   12.59
  -3   1  -6  326.14   12.88
   3  -1   6  372.25   13.80
  -2   3   6  330.44   12.73
  -1  -2   6  313.98   12.84
   3  -1   6  319.17   12.26
  -3   2  -6  159.00    8.27
   1  -3  -6  204.16    7.53
  -3   2  -6  206.65    8.47
  -3   2  -6  199.50    8.09
   2   1  -6  197.61    7.08
   2   1  -6  204.18    6.82
  -3   2  -6  205.07    7.43
   1  -3  -6  192.03    8.17
   2   1  -6  171.78    7.39
   1  -3  -6  202.40    8.28
   2   1  -6  204.02    7.20
  -1   3   6  206.55    8.54
   3  -2   6  193.20    8.20
  -3   3  -6  199.48    8.26
  -3   3  -6  171.47    6.55
   3   0  -6  168.09    6.96
   0  -3  -6  175.10    6.87
   3   0  -6  172.51    6.36
   0  -3  -6  165.24    7.51
  -3   3  -6  177.74    7.24
  -3   3  -6  166.73    7.44
   0  -3  -6  171.78    7.47
   3   0  -6  172.06    6.31
   0   3   6  164.51    7.78
   3  -3   6  174.59    7.79
   3  -3   6  168.14    6.13
   3  -3   6  168.14    6.48
  -1  -3  -6   20.45    2.12
   4  -1  -6   19.90    1.92
  -3   4  -6   20.83    1.86
   4  -1  -6   19.45    1.45
  -1  -3  -6   22.57    2.08
  -3   4  -6   16.97    1.30
   4  -1  -6   21.13    1.40
  -1  -3  -6   19.76    1.65
  -3   4  -6   20.03    1.79
  -4   1   6   18.41    1.55
   3  -4   6   19.45    2.16
   1   3   6   20.48    2.38
   5  -2  -6  139.54    5.55
  -3   5  -6  121.84    5.69
   5  -2  -6  134.39    6.23
  -3   5  -6  138.89    5.36
  -3   5  -6  126.97    5.19
  -2  -3  -6  132.52    6.60
  -3   5  -6  131.52    5.88
  -3   5  -6  136.84    6.13
  -2  -3  -6  131.30    6.79
   5  -2  -6  135.41    5.72
  -2  -3  -6  132.38    5.91
   2   3   6  130.11    7.26
  -5   2   6  130.44    6.21
   3  -5   6  136.91    7.08
  -3   6  -6   74.29    3.48
  -3  -3  -6   73.53    4.79
  -3  -3  -6   79.13    5.10
   6  -3  -6   77.96    4.63
  -3  -3  -6   77.67    4.19
  -3   6  -6   74.50    3.77
   6  -3  -6   76.30    3.85
  -3   6  -6   76.92    3.57
  -3   6  -6   73.55    4.31
   3  -6   6   83.80    5.43
   3   3   6   73.41    5.54
  -6   3   6   77.64    4.75
  -4  -3  -6   41.87    3.72
  -4  -3  -6   43.08    3.92
  -4  -3  -6   38.87    2.97
   7  -4  -6   43.23    3.56
   7  -4  -6   43.53    2.86
  -3   7  -6   40.32    3.26
   3  -7   6   32.89    3.82
   4   3   6   42.68    4.51
  -4  -2  -6   75.05    5.01
  -2   6  -6   73.70    3.27
  -4  -2  -6   71.87    4.85
  -4  -2  -6   66.71    3.96
   6  -4  -6   69.04    3.73
  -2   6  -6   69.34    4.06
  -2   6  -6   71.84    3.50
   6  -4  -6   74.22    4.55
  -6   4   6   74.33    4.81
   2  -6   6   72.34    5.01
   4   2   6   70.11    5.53
  -4  -1  -6  165.50    6.83
   5  -4  -6  149.91    7.18
   5  -4  -6  146.72    6.99
  -4  -1  -6  148.20    5.63
  -1   5  -6  156.06    6.45
  -4  -1  -6  153.65    7.73
  -1   5  -6  152.12    5.71
   5  -4  -6  158.15    6.42
  -1   5  -6  152.46    6.47
  -4  -1  -6  157.49    7.80
  -1   5  -6  148.98    6.15
   4   1   6  149.67    8.52
   1  -5   6  152.21    7.79
  -5   4   6  164.06    7.73
   4  -4  -6   34.38    2.29
   4  -4  -6   35.19    2.17
  -4   0  -6   32.40    2.96
  -4   0  -6   33.54    2.32
   0   4  -6   32.73    1.52
  -4   0  -6   34.71    2.93
   0   4  -6   32.82    1.88
   0   4  -6   32.81    1.76
   4  -4  -6   32.60    2.62
   0  -4   6   37.51    3.07
  -4   4   6   36.35    2.98
   4   0   6   31.99    3.51
  -4   1  -6  256.23    9.46
  -4   1  -6  246.07   10.50
   1   3  -6  237.52    8.59
  -4   1  -6  240.07   10.30
   3  -4  -6  237.30    9.23
   3  -4  -6  253.41   10.14
   1   3  -6  248.12    8.34
   1   3  -6  239.10    8.57
  -3   4   6  239.10   10.30
  -1  -3   6  243.25   10.51
   4  -1   6  249.67   11.50
   2   2  -6  160.31    6.19
   2   2  -6  177.12    6.42
   2  -4  -6  167.82    6.65
  -4   2  -6  171.18    6.71
   2  -4  -6  163.76    7.41
   2   2  -6  164.88    5.85
  -4   2  -6  164.39    7.64
  -4   2  -6  164.03    7.52
   2   2  -6  160.77    6.10
   4  -2   6  158.88    8.71
  -2   4   6  160.92    7.64
  -4   3  -6   19.70    1.98
   3   1  -6   18.69    1.20
   3   1  -6   18.72    1.53
   1  -4  -6   19.29    2.02
   3   1  -6   20.23    1.19
   1  -4  -6   20.19    1.88
  -4   3  -6   20.90    2.12
  -4   3  -6   20.22    1.54
   3   1  -6   13.18    1.91
   1  -4  -6   20.19    1.63
   4  -3   6   19.23    1.30
   4  -3   6   19.58    1.63
  -1   4   6   21.44    2.31
   0  -4  -6    7.47    1.50
   0  -4  -6    6.95    1.18
  -4   4  -6    7.13    1.04
   4   0  -6    9.47    2.17
   0  -4  -6    8.33    1.53
   4   0  -6    8.04    1.02
  -4   4  -6    8.03    1.51
  -4   4  -6    6.55    1.35
   4   0  -6    7.93    1.40
   4  -4   6    8.34    0.89
   0   4   6    8.83    1.89
   4  -4   6    7.26    1.57
  -4   5  -6   39.58    2.39
  -1  -4  -6   42.17    3.12
   5  -1  -6   63.15    5.26
  -4   5  -6   40.50    3.03
   5  -1  -6   44.64    2.54
  -1  -4  -6   39.78    2.68
  -4   5  -6   41.58    2.92
  -1  -4  -6   42.28    3.38
  -5   1   6   42.34    2.69
   4  -5   6   39.85    2.41
   1   4   6   43.55    3.75
   4  -5   6   42.65    3.58
  -4   6  -6    3.44    0.83
  -2  -4  -6    3.24    1.00
   6  -2  -6    4.17    0.98
   6  -2  -6    2.53    1.08
  -2  -4  -6    3.42    1.29
  -2  -4  -6    3.02    1.25
  -4   6  -6    3.10    1.14
   6  -2  -6    5.98    2.44
  -4   6  -6    3.07    1.00
   4  -6   6    2.31    1.20
   2   4   6    3.20    1.55
  -4   7  -6   20.98    1.81
   7  -3  -6   22.16    2.01
  -3  -4  -6   21.27    2.42
  -4   7  -6   20.79    2.42
  -3  -4  -6   22.39    3.39
   7  -3  -6   20.30    2.47
  -3  -4  -6   20.72    2.59
   3   4   6   24.35    3.83
   4  -7   6   19.60    3.21
   8  -4  -6    0.21    0.92
  -4  -4  -6    0.75    1.15
  -4   8  -6    1.17    0.83
  -4  -4  -6   -0.20    0.82
   8  -4  -6   -0.67    0.56
   4   4   6   -0.06    1.27
   9  -5  -6    5.76    1.55
   9  -5  -6    4.88    1.95
  -5  -4  -6    5.84    2.10
  -4   9  -6    5.03    1.76
   5   4   6    7.46    2.79
   8  -5  -6    2.48    1.03
  -3   8  -6    2.61    1.25
  -5  -3  -6    2.95    1.57
   8  -5  -6    2.81    1.28
  -5  -3  -6    2.73    1.56
   5   3   6    0.55    1.70
   3  -8   6    5.30    1.92
  -2   7  -6   98.58    5.39
  -5  -2  -6   97.43    5.17
  -5  -2  -6  100.20    6.27
  -5  -2  -6   93.79    6.20
   7  -5  -6  100.72    4.95
   7  -5  -6   96.76    5.83
   5   2   6   77.11    6.73
  -7   5   6   99.21    6.19
   2  -7   6   89.18    6.25
  -5  -1  -6   30.21    3.28
  -1   6  -6   30.58    1.81
  -5  -1  -6   30.00    3.15
  -5  -1  -6   28.85    1.51
  -1   6  -6   29.78    2.50
  -1   6  -6   29.80    2.06
   6  -5  -6   31.84    2.93
   6  -5  -6   29.55    2.29
  -5  -1  -6   33.13    2.55
  -6   5   6   28.47    3.13
   1  -6   6   31.54    3.20
   5   1   6   35.83    5.15
  -5   0  -6   30.35    3.02
   5  -5  -6   30.01    2.21
   0   5  -6   31.33    2.03
  -5   0  -6   31.52    2.40
   0   5  -6   31.30    2.26
   5  -5  -6   32.42    2.84
  -5   0  -6   36.01    3.37
   0   5  -6   31.22    1.68
   0  -5   6   28.86    3.00
  -5   5   6   32.30    3.16
   1   4  -6  151.02    5.57
   4  -5  -6  140.76    7.15
  -5   1  -6  146.69    7.60
  -5   1  -6  154.73    7.72
   4  -5  -6  155.25    6.45
   1   4  -6  152.41    6.10
  -5   1  -6  151.61    6.60
   1   4  -6  150.87    5.99
  -1  -4   6  151.77    7.66
   5  -1   6  144.98    8.76
  -4   5   6  161.74    7.84
   3  -5  -6  125.33    6.26
  -5   2  -6  120.99    6.42
   3  -5  -6  122.47    5.39
   2   3  -6  123.59    5.06
  -5   2  -6  123.76    5.49
   2   3  -6  122.32    4.62
  -5   2  -6  125.35    6.56
   2   3  -6  120.02    5.17
   5  -2   6  101.19    7.60
  -3   5   6  118.21    6.44
   3   2  -6  137.35    5.17
  -5   3  -6  137.62    5.86
   3   2  -6  133.51    5.03
  -5   3  -6  132.38    6.77
   2  -5  -6  138.44    6.74
   2  -5  -6  131.38    6.16
  -5   3  -6  138.18    6.85
   2  -5  -6  121.50    5.71
   3   2  -6  131.69    5.69
   3   2  -6  132.21    6.11
  -2   5   6  129.88    6.95
   5  -3   6  134.59    5.49
   4   1  -6   41.35    2.26
   4   1  -6   56.89    3.99
  -5   4  -6   40.28    3.26
   1  -5  -6   39.32    2.09
  -5   4  -6   43.62    2.65
   1  -5  -6   42.74    2.73
  -5   4  -6   40.21    3.22
   1  -5  -6   44.17    3.37
   1  -5  -6   39.76    2.84
   4   1  -6   40.11    2.75
   4   1  -6   39.93    1.95
  -1   5   6   37.87    3.40
   5  -4   6   42.14    2.30
   5  -4   6   43.38    2.82
   0  -5  -6  631.56   22.67
  -5   5  -6  622.74   22.84
   0  -5  -6  623.52   22.25
   0  -5  -6  593.41   23.40
   5   0  -6  626.80   21.86
  -5   5  -6  589.11   21.95
  -5   5  -6  637.10   23.34
   0   5   6  655.96   24.13
   5  -5   6  643.82   24.00
  -1  -5  -6   46.39    3.75
  -1  -5  -6   42.13    2.91
  -5   6  -6   40.75    3.00
  -5   6  -6   40.93    3.42
  -1  -5  -6   39.25    3.12
   6  -1  -6   35.44    5.30
  -5   6  -6   43.03    2.69
   5  -6   6   42.45    3.79
   1   5   6   40.95    3.95
  -2  -5  -6   90.87    5.37
  -2  -5  -6   86.45    4.86
   7  -2  -6   98.05    4.75
  -5   7  -6   93.31    4.71
  -5   7  -6   90.97    4.55
  -2  -5  -6   94.40    6.00
   7  -2  -6   92.02    5.57
  -5   7  -6   94.88    5.72
   5  -7   6   92.34    6.33
   2   5   6   90.89    6.48
  -3  -5  -6   35.98    3.45
   8  -3  -6   36.56    3.59
  -5   8  -6   34.92    2.56
   8  -3  -6   35.84    2.78
  -5   8  -6   30.21    3.28
  -3  -5  -6   34.20    3.63
   3   5   6   27.38    4.31
   5  -8   6   37.79    4.11
   9  -4  -6   51.28    4.55
  -5   9  -6   38.89    4.00
   9  -4  -6   49.02    3.53
  -4  -5  -6   45.27    4.18
   4   5   6   43.21    5.21
   9  -6  -6    1.74    1.36
  -6  -3  -6    2.97    2.60
   9  -6  -6    0.60    0.95
  -6  -3  -6    0.23    1.30
   6   3   6    1.20    1.92
   3  -9   6    1.52    1.54
  -6  -2  -6   60.61    5.23
  -6  -2  -6   62.04    5.17
  -2   8  -6   63.98    4.65
   8  -6  -6   62.62    4.89
   8  -6  -6   65.07    3.99
   6   2   6   47.54    5.90
   2  -8   6   85.87    5.97
  -6  -1  -6   52.45    4.63
  -1   7  -6   62.10    3.93
   7  -6  -6   49.70    4.12
   7  -6  -6   54.25    3.46
  -6  -1  -6   48.66    3.53
  -6  -1  -6   52.58    4.59
   6   1   6   54.18    5.86
   1  -7   6   41.11    4.28
  -7   6   6   52.10    4.60
   6  -6  -6   13.75    1.79
  -6   0  -6   13.36    2.60
  -6   0  -6   10.94    1.79
  -6   0  -6   12.56    0.93
  -6   0  -6   13.19    2.70
   6  -6  -6   10.76    2.07
   0   6  -6   13.14    1.89
   6   0   6   10.46    3.02
   0  -6   6   13.34    2.49
  -6   6   6   10.56    2.29
   5  -6  -6   31.80    2.36
  -6   1  -6   33.39    2.57
   1   5  -6   23.77    2.24
   1   5  -6   30.42    1.77
  -6   1  -6   29.74    3.19
  -6   1  -6   29.95    3.32
   5  -6  -6   30.28    2.96
  -1  -5   6   33.94    3.30
  -5   6   6   30.79    3.29
   6  -1   6   29.61    4.81
   4  -6  -6   74.75    3.88
   4  -6  -6   70.83    4.66
  -6   2  -6   72.78    4.96
  -6   2  -6   70.97    4.97
   2   4  -6   72.23    3.17
  -6   2  -6   67.60    3.94
   2   4  -6   72.39    3.88
  -4   6   6   75.43    5.10
  -2  -4   6   74.52    5.02
   6  -2   6   48.09    5.67
   3   3  -6   75.04    3.12
   3  -6  -6   77.14    4.85
  -6   3  -6   76.07    4.10
   3  -6  -6   74.98    4.23
   3   3  -6   79.22    4.40
  -6   3  -6   77.87    5.07
   3  -6  -6   71.88    3.96
   3   3  -6   76.36    3.41
  -6   3  -6   75.06    4.98
  -3   6   6   75.73    5.11
   6  -3   6   66.60    6.29
  -6   4  -6    4.29    1.46
   4   2  -6    5.44    1.59
   2  -6  -6    3.30    1.27
   2  -6  -6    3.61    1.06
   4   2  -6    2.62    0.71
  -6   4  -6    4.62    1.60
   4   2  -6    5.20    0.61
   2  -6  -6    3.34    0.89
   2  -6  -6    3.59    1.11
  -6   4  -6    4.62    1.15
  -2   6   6    2.25    1.30
   6  -4   6    3.89    1.15
  -6   5  -6   42.92    2.86
   1  -6  -6   43.28    3.67
   5   1  -6   47.99    4.52
  -6   5  -6   43.02    3.68
   1  -6  -6   46.17    3.05
  -6   5  -6   42.10    3.57
   1  -6  -6   42.76    2.96
  -1   6   6   40.92    3.87
   6   0  -6    3.68    1.94
   0  -6  -6    0.57    0.77
  -6   6  -6   -0.21    0.79
   0  -6  -6    0.52    0.66
   0  -6  -6    0.02    0.78
  -6   6  -6    0.79    0.92
  -6   6  -6    2.70    0.94
   0   6   6   -0.09    1.00
   6  -6   6    0.66    0.96
  -1  -6  -6   47.11    3.47
  -1  -6  -6   50.99    4.20
  -6   7  -6   45.87    3.07
  -6   7  -6   42.14    3.89
  -6   7  -6   48.31    3.40
   7  -1  -6   25.62    5.16
   1   6   6   48.65    4.51
   6  -7   6   48.69    4.52
  -2  -6  -6    8.75    1.98
  -6   8  -6    8.60    1.57
  -6   8  -6    7.67    2.08
   8  -2  -6    8.12    1.63
  -2  -6  -6    6.80    2.03
   8  -2  -6    3.87    2.70
   2   6   6    7.88    2.43
   6  -8   6    6.95    2.51
   9  -3  -6   11.26    2.54
  -6   9  -6   13.95    2.81
  -6   9  -6   11.27    1.86
  -3  -6  -6   11.07    2.39
   9  -3  -6    3.76    3.07
   9  -3  -6   13.19    2.12
   3   6   6   10.55    3.06
   6  -9   6   17.27    3.71
  -2   9  -6   34.11    3.62
  -7  -2  -6   30.56    4.51
   9  -7  -6   31.20    3.70
   9  -7  -6   27.91    3.08
   7   2   6   19.94    4.88
   8  -7  -6   25.55    3.76
  -7  -1  -6   27.17    4.15
   8  -7  -6   24.74    2.83
  -1   8  -6   35.00    3.18
  -7  -1  -6   27.05    4.24
   7   1   6   17.08    4.54
  -7   0  -6  301.10   13.85
   7  -7  -6  290.65   11.77
  -7   0  -6  312.11   12.23
   0   7  -6  290.52   12.09
  -7   0  -6  290.09   13.77
   7  -7  -6  292.82   13.14
   0  -7   6  295.69   13.61
  -7   7   6  293.53   13.89
   7   0   6  251.88   15.46
  -7   1  -6   54.81    4.71
  -7   1  -6   49.76    4.63
   6  -7  -6   51.16    3.41
  -7   1  -6   53.74    3.66
   6  -7  -6   51.48    4.21
   1   6  -6   51.57    3.56
  -6   7   6   51.59    4.67
  -1  -6   6   58.63    4.61
   7  -1   6   49.09    5.90
  -7   2  -6   95.88    6.34
   5  -7  -6   97.55    6.03
   5  -7  -6   93.92    4.96
   2   5  -6  101.28    5.28
  -7   2  -6   99.16    5.23
  -7   2  -6   96.05    6.36
  -5   7   6  101.30    6.56
   4  -7  -6   46.06    3.78
  -7   3  -6   40.26    3.78
   3   4  -6   38.11    1.94
  -7   3  -6   40.96    3.89
   3   4  -6   42.60    3.26
  -7   3  -6   40.62    3.01
   4  -7  -6   42.28    2.93
   7  -3   6   24.40    5.06
  -4   7   6   39.14    3.86
   3  -7  -6   17.80    2.15
  -7   4  -6   25.78    3.14
  -7   4  -6   25.93    2.77
   3  -7  -6   24.59    2.82
   3  -7  -6   21.22    2.06
   4   3  -6   24.57    1.26
  -7   4  -6   23.63    3.48
   4   3  -6   24.41    2.79
   7  -4   6   21.06    2.45
  -3   7   6   18.79    3.18
   7  -4   6   16.46    4.03
   5   2  -6   76.62    5.91
  -7   5  -6   89.71    4.76
   2  -7  -6   85.60    4.70
  -7   5  -6   88.35    5.66
   2  -7  -6   91.48    5.74
   2  -7  -6   85.10    4.50
  -7   5  -6   88.77    5.91
  -2   7   6   87.79    6.06
  -7   6  -6   46.66    4.20
  -7   6  -6   50.23    3.35
  -7   6  -6   47.11    3.82
   1  -7  -6   46.97    4.10
   6   1  -6   38.59    4.75
  -1   7   6   49.01    4.52
  -7   7  -6   48.50    4.43
  -7   7  -6   45.51    3.33
  -7   7  -6   56.51    3.95
   0  -7  -6   47.40    4.27
   0   7   6   51.21    4.77
   7  -7   6   53.98    4.98
   8  -1  -6    1.74    2.39
  -7   8  -6    3.41    1.70
  -7   8  -6    6.22    1.44
   1   7   6    5.08    2.09
   7  -8   6    7.57    2.58
   9  -2  -6    0.79    2.23
  -7   9  -6    6.38    1.53
   9  -2  -6    4.12    1.46
  -7   9  -6    3.85    1.79
   7  -9   6    1.54    2.71
   2   7   6    2.05    1.95
  -8   0  -6    2.52    1.62
   8  -8  -6    3.82    1.80
  -8   0  -6    3.00    2.02
   0   8  -6    0.03    1.25
   0  -8   6    0.39    0.92
   8   0   6    1.48    2.32
   7  -8  -6   28.48    2.64
   1   7  -6   24.18    3.23
  -8   1  -6   23.50    3.77
   7  -8  -6   28.02    3.35
  -8   1  -6   31.20    4.40
   8  -1   6   17.30    4.54
  -7   8   6   27.20    4.26
   6  -8  -6   60.14    4.84
   2   6  -6   56.70    4.20
  -8   2  -6   63.30    5.31
  -8   2  -6   54.07    3.96
   6  -8  -6   61.81    3.91
  -8   2  -6   62.27    5.40
  -6   8   6   64.87    5.42
  -8   3  -6    2.01    1.36
  -8   3  -6    1.92    1.01
  -8   3  -6    3.95    1.99
   5  -8  -6    2.35    1.01
   5  -8  -6    2.31    1.27
   3   5  -6    3.09    1.18
   8  -3   6    2.02    2.37
  -5   8   6    1.99    1.52
   4   4  -6    1.08    0.95
  -8   4  -6   -0.12    0.66
  -8   4  -6    4.04    1.65
   4  -8  -6    0.10    0.78
  -8   4  -6    0.26    1.08
   8  -4   6    0.52    2.22
  -4   8   6   -0.38    0.99
  -8   5  -6   37.55    3.89
   3  -8  -6   36.89    3.66
  -8   5  -6   32.72    3.77
  -8   5  -6   34.76    2.98
   5   3  -6   33.42    4.58
  -3   8   6   34.68    3.95
  -8   6  -6   12.45    2.61
   6   2  -6   10.95    2.90
  -8   6  -6    8.05    1.69
  -8   6  -6    6.70    2.08
   2  -8  -6    6.85    2.02
  -2   8   6    7.95    2.38
  -8   7  -6   11.29    2.20
   7   1  -6    1.52    1.94
   1  -8  -6    7.19    2.29
  -8   7  -6    5.49    1.41
  -8   7  -6    7.44    2.26
  -1   8   6    5.61    2.05
  -8   8  -6    0.45    1.25
   8   0  -6   -0.92    1.72
  -8   8  -6    0.53    0.82
   0   8   6   -0.05    1.26
   8  -8   6    0.24    1.47
   2   7  -6   24.59    3.58
  -9   2  -6   36.16    4.32
   7  -9  -6   27.89    4.04
  -9   2  -6   28.95    4.60
   9  -2   6   10.37    4.51
  -7   9   6   30.64    4.80
   3   6  -6    2.99    1.38
  -9   3  -6    6.11    2.32
  -9   3  -6    1.60    1.41
   6  -9  -6    2.10    1.38
  -9   3  -6    1.56    1.11
  -6   9   6    1.32    1.49
   9  -3   6    0.00    2.95
  -9   4  -6    6.55    1.77
  -9   4  -6    6.51    2.34
   4   5  -6    6.55    2.08
  -9   4  -6    4.02    2.16
   5  -9  -6    5.26    1.89
  -5   9   6    7.06    2.41
  -9   5  -6   45.37    4.72
   4  -9  -6   46.72    4.41
   5   4  -6   42.98    4.51
  -9   5  -6   47.14    4.78
  -9   5  -6   44.50    3.59
  -4   9   6   48.23    4.88
  -9   6  -6   12.43    3.06
   6   3  -6    6.29    2.42
  -9   6  -6   12.79    2.24
  -9   6  -6   10.10    2.69
  -3   9   6   11.86    3.05
   7   2  -6    2.25    2.02
  -9   7  -6    4.68    1.45
  -9   7  -6    2.25    1.64
  -9   7  -6    2.84    1.62
  -2   9   6    4.78    2.25
   0   0  -7    0.03    0.27
   0   0  -7    0.58    0.36
   0   0  -7    0.57    0.45
   0   0  -7    0.42    0.51
   0   0  -7    0.11    0.22
   0   0   7    0.53    0.42
   0   0   7   -0.02    0.30
  -1   0  -7  631.84   21.43
  -1   0  -7  615.85   22.24
  -1   0  -7  640.88   22.84
  -1   0  -7  617.26   21.38
  -1   0  -7  638.61   22.05
   1  -1  -7  609.22   22.09
   1  -1  -7  644.53   21.86
   1  -1  -7  642.53   21.34
   0   1  -7  639.58   21.18
   1  -1  -7  611.27   21.35
   0   1  -7  624.20   21.37
   0   1  -7  640.58   20.92
   1   0   7  621.66   21.87
   0  -1   7  632.81   22.47
   1   0  -7  293.39   10.05
   1   0  -7  297.88   10.39
   0  -1  -7  278.55   11.23
  -1   1  -7  300.73   11.66
  -1   1  -7  305.95   10.97
   0  -1  -7  289.77   10.99
   0  -1  -7  287.09   10.35
   1   0  -7  288.70   10.35
  -1   1  -7  299.29   10.63
  -1   1  -7  289.55   10.18
   0  -1  -7  294.48   11.65
   0  -1  -7  301.27   10.45
   1   0  -7  287.28   10.57
   0   1   7  290.00   11.14
   1  -1   7  285.81   11.21
   2  -1  -7   11.95    0.91
   2  -1  -7   12.53    1.17
  -1  -1  -7   11.18    1.82
  -1   2  -7   12.19    0.93
  -1  -1  -7   11.86    1.39
  -1   2  -7   11.90    1.20
  -1   2  -7   11.79    0.75
  -1  -1  -7   13.16    1.00
   2  -1  -7   11.73    0.97
  -1  -1  -7   10.65    1.17
  -1   2  -7   12.08    1.48
   2  -1  -7   12.95    1.38
   1   1   7   12.76    1.87
   1  -2   7   13.71    1.59
   1   1   7   10.90    0.93
  -2  -1  -7   87.90    4.74
  -1   3  -7   90.59    3.53
  -2  -1  -7   91.35    4.98
  -1   3  -7   91.12    3.28
  -1   3  -7   87.73    4.60
   3  -2  -7   92.43    3.82
  -1   3  -7   88.08    3.22
   3  -2  -7   88.36    4.32
  -2  -1  -7   86.71    4.09
  -1   3  -7   87.14    3.43
  -2  -1  -7   87.11    3.63
   2   1   7   89.01    3.62
   1  -3   7   97.36    5.13
  -3   2   7   90.61    4.31
   2   1   7   82.96    5.06
  -2   0  -7    7.70    1.36
  -2   0  -7    8.09    1.02
   2  -2  -7    8.53    0.98
   2  -2  -7    9.48    1.14
  -2   0  -7    8.23    1.60
   0  -2   7    8.67    1.57
   2   0   7   10.65    1.86
   2   0   7    7.78    0.95
  -2   2   7   10.11    1.43
  -2   1  -7   12.11    1.74
  -2   1  -7   10.54    1.67
   1   1  -7   11.25    0.94
  -2   1  -7   12.78    1.34
   1   1  -7   11.50    0.77
   1  -2  -7   12.98    1.38
   1   1  -7    8.93    0.93
   1  -2  -7   13.24    1.02
  -2   1  -7   11.05    1.00
   1  -2  -7   12.72    1.06
  -1  -1   7   11.60    1.49
  -1   2   7   12.24    1.43
   2  -1   7   12.53    1.35
   2   0  -7   73.05    2.89
   0  -2  -7   72.98    3.09
   0  -2  -7   75.69    3.44
   0  -2  -7   74.06    4.22
  -2   2  -7   72.49    3.12
  -2   2  -7   75.53    3.58
  -2   2  -7   70.90    4.08
   2   0  -7   74.26    3.44
   2   0  -7   76.44    3.23
   0  -2  -7   74.91    3.18
  -2   2  -7   67.57    3.88
   0  -2  -7   78.03    4.02
   2   0  -7   76.46    3.18
   0   2   7   70.82    4.14
   2  -2   7   76.76    4.15
   3  -1  -7  201.23    7.48
   3  -1  -7  203.79    8.40
   3  -1  -7  212.56    7.58
  -1  -2  -7  210.33    7.52
  -2   3  -7  207.48    7.40
  -1  -2  -7  206.15    8.80
  -2   3  -7  207.04    7.91
  -1  -2  -7  204.41    8.91
   3  -1  -7  199.48    8.00
  -2   3  -7  206.80    8.68
   3  -1  -7  203.61    7.59
  -1  -2  -7  196.70    7.95
  -3   1   7  208.26    7.55
   1   2   7  209.98    9.20
   2  -3   7  204.99    9.02
  -2  -2  -7  124.49    6.33
   4  -2  -7  126.92    5.28
   4  -2  -7  129.40    5.14
  -2   4  -7  125.01    4.68
  -2   4  -7  119.83    5.06
  -2  -2  -7  122.14    6.32
  -2  -2  -7  123.43    4.82
  -2   4  -7  122.76    4.76
  -2   4  -7  125.65    5.31
   4  -2  -7  122.16    5.72
  -2  -2  -7  126.45    5.55
  -2   4  -7  127.55    5.89
   2  -4   7  130.41    6.63
   2   2   7  126.47    6.87
  -2   5  -7  202.35    7.93
  -2   5  -7  203.28    8.46
  -3  -2  -7  199.74    9.37
  -3  -2  -7  213.73    8.52
  -2   5  -7  208.26    7.52
  -3  -2  -7  199.91    7.42
  -2   5  -7  205.59    7.43
  -2   5  -7  204.26    8.18
   5  -3  -7  203.40    8.88
  -3  -2  -7  206.17    9.57
   5  -3  -7  200.32    8.01
   5  -3  -7  199.84    8.24
   2  -5   7  202.01    9.69
  -5   3   7  208.73    9.03
   3   2   7  211.83   10.31
  -1   4  -7   17.32    1.15
   4  -3  -7   17.95    1.45
   4  -3  -7   17.01    1.79
  -3  -1  -7   18.06    1.65
  -3  -1  -7   18.37    2.17
  -1   4  -7   17.62    0.95
  -3  -1  -7   18.01    1.18
  -1   4  -7   18.14    1.26
   4  -3  -7   15.87    1.49
  -1   4  -7   17.89    1.80
  -1   4  -7   17.63    0.99
  -3  -1  -7   17.12    2.10
   3   1   7   16.61    1.24
  -4   3   7   16.70    1.88
   3   1   7   22.15    3.22
   1  -4   7   18.05    2.21
  -3   0  -7   44.55    3.28
  -3   0  -7   43.38    3.13
  -3   0  -7   42.01    2.51
   3  -3  -7   40.24    2.80
   3  -3  -7   43.30    2.35
  -3   3   7   41.35    2.93
   3   0   7   41.81    3.63
   3   0   7   43.46    2.48
   0  -3   7   41.49    3.19
  -3   1  -7   88.99    4.96
  -3   1  -7   85.49    3.98
   2  -3  -7   92.03    4.62
  -3   1  -7   92.76    4.73
   2  -3  -7   91.39    3.97
   3  -1   7   94.81    4.48
  -1  -2   7   87.44    4.94
   3  -1   7   71.55    4.97
  -2   3   7   89.53    4.76
  -3   2  -7  204.44    8.86
   1  -3  -7  205.55    7.84
  -3   2  -7  205.00    8.42
   1  -3  -7  202.42    8.74
   2   1  -7  202.79    7.44
  -3   2  -7  208.28    7.73
   2   1  -7  202.72    7.42
  -3   2  -7  168.97    8.62
   1  -3  -7  205.56    8.61
   3  -2   7  209.39    7.33
  -1   3   7  212.86    8.93
   3  -2   7  205.22    8.62
   0  -3  -7   80.53    3.72
   0  -3  -7   74.48    4.28
  -3   3  -7   67.70    4.42
  -3   3  -7   76.98    3.96
   3   0  -7   80.02    3.22
   0  -3  -7   75.00    4.31
   3   0  -7   60.26    4.31
   3   0  -7   71.75    3.13
  -3   3  -7   76.40    3.37
   3   0  -7   74.93    3.72
  -3   3  -7   76.95    4.30
   3  -3   7   75.30    4.40
   0   3   7   76.88    4.61
   3  -3   7   73.06    3.10
  -1  -3  -7   45.73    3.32
  -3   4  -7   50.79    3.24
   4  -1  -7   50.09    2.57
   4  -1  -7   44.56    3.11
  -3   4  -7   48.81    2.97
  -3   4  -7   49.99    2.45
   4  -1  -7   46.21    2.40
   4  -1  -7   49.49    2.93
  -1  -3  -7   49.00    3.52
  -1  -3  -7   49.52    2.87
   3  -4   7   46.96    3.60
  -4   1   7   46.93    2.42
   1   3   7   50.71    3.87
  -2  -3  -7  185.30    8.44
   5  -2  -7  181.06    7.09
  -3   5  -7  171.41    6.81
  -3   5  -7  172.22    6.71
  -2  -3  -7  181.48    7.58
  -3   5  -7  180.25    7.73
  -3   5  -7  179.06    7.63
   5  -2  -7  191.35    7.98
  -2  -3  -7  175.35    8.53
  -3   5  -7  169.98    7.51
   5  -2  -7  175.70    7.25
   2   3   7  175.89    9.08
   3  -5   7  177.66    8.80
  -3  -3  -7   20.85    2.35
  -3  -3  -7   19.35    2.89
   6  -3  -7   18.95    2.19
  -3   6  -7   20.75    1.50
  -3   6  -7   21.53    1.53
   6  -3  -7   20.15    1.80
  -3   6  -7   21.62    1.93
  -3  -3  -7   22.46    2.66
  -3   6  -7   22.85    2.21
   3  -6   7   17.40    2.87
   3   3   7   22.41    3.69
  -4  -3  -7   43.05    3.95
  -4  -3  -7   42.72    4.02
  -3   7  -7   43.98    3.38
   7  -4  -7   47.11    3.81
  -4  -3  -7   39.68    3.12
   7  -4  -7   47.63    3.07
  -3   7  -7   44.90    2.58
   4   3   7   43.85    4.62
   3  -7   7   49.15    4.31
  -2   6  -7    1.68    0.52
  -4  -2  -7    1.68    1.06
  -4  -2  -7    2.03    0.51
  -2   6  -7    2.34    0.93
   6  -4  -7    1.53    0.78
  -2   6  -7    2.01    0.78
  -4  -2  -7    2.15    0.91
   6  -4  -7    1.79    0.99
  -4  -2  -7    0.75    1.13
  -2   6  -7    3.42    0.62
   2  -6   7    2.29    1.24
  -6   4   7    2.18    1.15
   4   2   7    3.51    1.72
  -1   5  -7    1.29    0.53
   5  -4  -7    1.85    0.93
  -4  -1  -7    2.84    1.27
  -4  -1  -7    1.36    1.05
  -1   5  -7    2.16    0.51
   5  -4  -7    1.75    0.72
  -1   5  -7    2.36    0.75
  -1   5  -7    2.11    0.87
  -1   5  -7    1.88    0.45
  -4  -1  -7    2.85    0.98
  -4  -1  -7    1.59    0.45
   4   1   7    1.17    1.43
  -5   4   7    3.44    1.32
   1  -5   7    1.39    0.97
   4  -4  -7  221.04    9.36
  -4   0  -7  216.37    8.73
   4  -4  -7  222.35    8.47
  -4   0  -7  216.52    9.87
  -4   0  -7  218.88    9.81
   0   4  -7  223.85    7.45
   4  -4  -7  215.29    8.66
   0   4  -7  215.53    7.70
   0   4  -7  221.58    7.86
  -4   4   7  219.34    9.60
   0  -4   7  208.11    9.84
   4   0   7  178.54   10.31
   3  -4  -7   16.79    1.51
   3  -4  -7   17.22    1.95
  -4   1  -7   16.89    2.04
  -4   1  -7   17.68    2.18
  -4   1  -7   20.22    1.69
  -1  -3   7   16.98    2.16
  -3   4   7   18.94    2.17
   4  -1   7   15.16    2.85
   2  -4  -7  118.80    5.31
   2   2  -7  124.70    4.80
   2  -4  -7  125.49    6.15
  -4   2  -7  129.61    5.40
  -4   2  -7  132.62    6.53
   2   2  -7  123.26    4.86
   2   2  -7  121.21    4.97
   2   2  -7  129.67    4.48
  -4   2  -7  119.62    6.13
   4  -2   7  125.43    6.09
  -2   4   7  130.07    6.49
   4  -2   7  100.84    6.92
   3   1  -7   48.70    2.71
   3   1  -7   51.99    2.35
   1  -4  -7   49.73    2.89
  -4   3  -7   48.14    3.47
  -4   3  -7   50.35    2.73
   1  -4  -7   51.45    3.50
  -4   3  -7   50.48    3.35
   1  -4  -7   48.82    3.32
   3   1  -7   48.53    2.26
   4  -3   7   46.60    2.33
   4  -3   7   48.20    2.77
  -1   4   7   47.77    3.65
   4  -3   7   51.71    3.56
   0  -4  -7   21.29    2.29
  -4   4  -7   23.16    2.16
   4   0  -7   23.19    1.55
   4   0  -7   15.51    2.84
   4   0  -7   23.48    2.03
  -4   4  -7   22.04    2.23
   0  -4  -7   22.16    1.92
  -4   4  -7   21.11    1.64
   0  -4  -7   23.93    2.30
   4  -4   7   20.82    2.41
   0   4   7   22.50    3.07
   4  -4   7   21.02    1.53
  -1  -4  -7  346.86   13.68
  -4   5  -7  336.07   12.35
  -4   5  -7  340.22   13.33
  -4   5  -7  339.52   13.42
   5  -1  -7  324.02   12.43
  -1  -4  -7  321.96   13.96
  -1  -4  -7  334.78   12.88
   5  -1  -7  347.88   12.36
   4  -5   7  338.65   14.33
   1   4   7  349.06   14.62
  -4   6  -7   49.63    2.78
  -2  -4  -7   45.61    3.18
  -4   6  -7   50.87    3.52
  -2  -4  -7   49.80    4.02
   6  -2  -7   52.21    2.95
   6  -2  -7   43.36    5.05
  -2  -4  -7   46.01    3.66
   6  -2  -7   55.48    3.69
  -4   6  -7   46.78    3.19
   4  -6   7   49.19    4.21
   2   4   7   50.71    4.51
  -3  -4  -7   10.16    2.21
  -4   7  -7    9.54    1.91
  -3  -4  -7   10.08    1.70
   7  -3  -7   12.47    2.27
  -3  -4  -7   10.41    2.36
  -4   7  -7   12.00    1.47
   7  -3  -7   10.53    1.62
   3   4   7   14.22    3.08
   4  -7   7   13.55    2.80
  -4  -4  -7   12.65    2.64
  -4  -4  -7   10.65    2.48
   8  -4  -7   11.18    1.81
   8  -4  -7   13.72    2.61
  -4   8  -7   10.62    2.14
   4   4   7   10.94    2.99
  -4   9  -7   13.92    2.66
  -5  -4  -7    9.27    2.47
  -5  -4  -7    8.75    2.46
   9  -5  -7    8.24    2.32
   9  -5  -7   12.11    2.07
   5   4   7    7.42    2.84
   4  -9   7   19.31    3.74
  -5  -3  -7    0.75    1.11
  -3   8  -7   -0.54    0.96
   8  -5  -7    0.25    0.87
   8  -5  -7    2.65    1.07
  -5  -3  -7    0.76    1.32
   5   3   7   -0.24    1.37
   3  -8   7    0.14    1.33
   7  -5  -7   12.45    1.82
  -5  -2  -7    9.94    2.34
  -5  -2  -7   13.33    2.03
  -5  -2  -7   12.48    2.67
  -2   7  -7   12.63    2.04
   7  -5  -7   11.53    2.25
   2  -7   7   12.69    2.82
   5   2   7    8.98    2.82
  -5  -1  -7   18.53    2.96
   6  -5  -7   16.27    2.48
  -5  -1  -7   17.37    2.98
  -1   6  -7   16.56    1.67
  -5  -1  -7   16.61    1.13
  -1   6  -7   15.23    1.22
  -5  -1  -7   18.34    2.25
   6  -5  -7   15.27    1.92
  -1   6  -7   15.62    1.76
  -6   5   7   20.41    3.13
   1  -6   7   18.72    3.00
   5   1   7   12.15    3.18
  -5   0  -7  133.62    5.41
   0   5  -7  138.90    6.08
  -5   0  -7  148.50    7.76
   0   5  -7  149.26    6.04
   5  -5  -7  150.98    6.33
   0   5  -7  141.77    5.35
  -5   0  -7  141.27    6.51
   5  -5  -7  138.25    7.15
  -5   0  -7  145.01    7.78
   5   0   7  134.92    8.76
   0  -5   7  147.55    7.76
  -5   5   7  145.02    7.61
  -5   1  -7    4.44    1.43
  -5   1  -7    1.65    0.74
   1   4  -7    2.17    0.44
   4  -5  -7    2.15    0.79
   1   4  -7    1.59    0.53
   1   4  -7    1.84    0.60
  -5   1  -7    1.55    1.03
   4  -5  -7    1.36    0.85
  -1  -4   7   -0.03    0.73
   5  -1   7    0.38    1.35
  -4   5   7    2.36    1.18
  -5   2  -7  208.43    8.31
   2   3  -7  210.83    7.82
  -5   2  -7  192.30    9.26
   3  -5  -7  199.28    9.12
   3  -5  -7  204.82    8.17
   2   3  -7  200.19    7.16
  -5   2  -7  204.50    9.50
   2   3  -7  202.95    7.58
  -3   5   7  192.08    9.31
   5  -2   7  187.21   10.94
  -5   3  -7  186.49    8.61
   2  -5  -7  180.48    8.11
   3   2  -7  169.82    7.78
   3   2  -7  172.64    7.23
   3   2  -7  177.39    6.69
  -5   3  -7  184.70    7.53
   2  -5  -7  178.22    7.51
  -5   3  -7  184.83    8.69
   3   2  -7  186.75    6.77
   2  -5  -7  190.97    8.64
   5  -3   7  185.22    7.89
  -2   5   7  188.09    8.93
   1  -5  -7  332.61   13.73
  -5   4  -7  330.22   13.61
  -5   4  -7  324.40   13.54
   1  -5  -7  328.80   11.44
   4   1  -7  319.38   11.88
   1  -5  -7  340.29   12.68
  -5   4  -7  349.56   12.53
   1  -5  -7  339.38   13.20
   4   1  -7  340.49   11.62
   4   1  -7  287.14   13.58
   5  -4   7  332.10   13.94
   5  -4   7  340.39   12.73
  -1   5   7  342.17   14.22
   5   0  -7  121.47    5.88
   0  -5  -7  130.18    6.41
   0  -5  -7  133.95    5.98
   5   0  -7  100.10    7.58
  -5   5  -7  126.57    5.67
  -5   5  -7  131.57    6.57
  -5   5  -7  140.43    6.86
   0  -5  -7  125.73    6.94
   5  -5   7  123.62    7.06
   0   5   7  130.47    7.35
  -5   6  -7   36.60    2.95
  -5   6  -7   35.77    3.16
  -1  -5  -7   34.95    3.42
  -1  -5  -7   35.12    3.10
  -1  -5  -7   37.61    2.78
  -5   6  -7   38.05    2.50
   6  -1  -7   25.97    4.48
   1   5   7   35.81    3.77
   5  -6   7   39.68    3.81
  -2  -5  -7   46.12    4.17
  -2  -5  -7   42.32    3.23
   7  -2  -7   44.07    3.74
   7  -2  -7   53.81    3.20
  -5   7  -7   46.29    3.23
  -5   7  -7   46.14    2.91
  -5   7  -7   44.59    3.76
  -2  -5  -7   46.58    3.81
   2   5   7   41.78    4.48
   5  -7   7   50.04    4.58
  -3  -5  -7   15.13    2.98
  -5   8  -7   18.54    2.92
  -5   8  -7   17.81    2.10
  -3  -5  -7   14.90    2.71
   8  -3  -7   20.50    3.20
   8  -3  -7   18.94    2.31
   5  -8   7   23.81    4.01
   3   5   7   15.90    3.51
   9  -4  -7   15.13    2.27
  -4  -5  -7   14.47    2.87
   9  -4  -7   13.40    2.87
  -5   9  -7   13.21    2.59
   4   5   7    8.40    3.03
   5  -9   7   20.90    3.94
  -6  -3  -7    8.17    2.51
   9  -6  -7    6.56    1.66
  -6  -3  -7    7.56    2.33
   9  -6  -7    7.79    2.24
   3  -9   7   13.61    3.64
   6   3   7    4.71    2.64
  -6  -2  -7    4.82    1.95
   8  -6  -7    4.09    1.74
   8  -6  -7    4.92    1.39
  -6  -2  -7    3.48    1.71
   6   2   7    0.44    1.74
   2  -8   7    9.68    2.14
  -6  -1  -7   29.01    4.13
   7  -6  -7   18.72    2.30
   7  -6  -7   16.92    2.78
  -1   7  -7   18.90    2.53
  -6  -1  -7   18.46    3.19
  -6  -1  -7   21.87    2.69
   6   1   7   11.17    3.59
   1  -7   7   28.24    4.11
  -6   0  -7   35.99    3.72
  -6   0  -7   33.20    2.80
   6  -6  -7   35.88    3.35
  -6   0  -7   35.63    3.72
   0   6  -7   35.14    2.62
  -6   0  -7   32.80    1.78
   6  -6  -7   34.44    2.63
  -6   6   7   36.00    3.66
   0  -6   7   41.09    3.97
   6   0   7   18.79    4.18
   1   5  -7   18.37    1.73
   5  -6  -7   16.26    2.02
  -6   1  -7   17.74    2.18
  -6   1  -7   17.52    2.88
   5  -6  -7   16.74    2.60
   1   5  -7   16.19    1.22
  -6   1  -7   27.71    3.18
  -5   6   7   19.51    3.10
  -1  -5   7   17.24    2.98
   6  -1   7    7.76    2.78
  -6   2  -7    2.63    1.20
  -6   2  -7   -0.53    1.11
   2   4  -7   -0.72    0.64
   4  -6  -7    1.93    0.85
   2   4  -7    1.97    0.52
  -6   2  -7    0.76    0.69
   4  -6  -7    1.46    0.99
  -2  -4   7    1.59    1.08
  -4   6   7    2.83    1.39
   6  -2   7    3.23    2.15
  -6   3  -7   21.46    2.63
   3  -6  -7   20.26    2.18
   3   3  -7   16.98    2.00
  -6   3  -7   21.51    2.38
   3   3  -7   22.26    1.39
   3  -6  -7   22.63    2.59
   3  -6  -7   21.01    2.28
  -6   3  -7   29.94    3.06
   3   3  -7   21.09    1.46
  -3   6   7   24.10    3.38
  -6   4  -7   49.78    4.00
  -6   4  -7   51.93    3.24
   2  -6  -7   53.22    3.49
   2  -6  -7   52.13    3.97
   4   2  -7   48.71    2.62
   4   2  -7   45.43    2.27
   2  -6  -7   46.02    2.73
  -6   4  -7   63.20    4.34
   2  -6  -7   50.35    3.24
   4   2  -7   57.19    4.13
  -2   6   7   44.35    4.08
  -6   5  -7   36.00    3.44
   1  -6  -7   40.80    2.88
   1  -6  -7   36.47    3.44
  -6   5  -7   42.02    3.59
   1  -6  -7   35.07    2.87
   5   1  -7   37.70    4.00
  -6   5  -7   35.58    2.64
  -1   6   7   36.20    3.71
   6  -5   7   36.75    3.63
  -6   6  -7    0.82    0.68
   0  -6  -7    0.44    0.70
   0  -6  -7    1.13    0.90
   0  -6  -7    0.43    0.92
  -6   6  -7   -0.01    0.93
   6   0  -7   -0.23    1.31
  -6   6  -7    0.75    1.01
   0   6   7   -0.05    1.09
   6  -6   7    0.18    0.96
  -6   7  -7    4.28    1.16
  -1  -6  -7    5.96    1.83
  -6   7  -7    5.13    1.72
   7  -1  -7    3.54    2.55
  -1  -6  -7    3.35    1.37
  -6   7  -7    4.25    1.45
   6  -7   7    4.21    1.74
   1   6   7    5.96    2.20
  -6   8  -7   39.23    2.96
   8  -2  -7   42.77    3.99
  -6   8  -7   38.28    3.82
   8  -2  -7   45.79    3.23
  -2  -6  -7   38.23    4.06
  -2  -6  -7   37.79    3.52
   2   6   7   39.44    4.64
   6  -8   7   48.52    4.85
   9  -3  -7    1.60    1.43
   9  -3  -7    2.84    1.25
  -3  -6  -7    3.41    1.64
  -6   9  -7    1.76    0.90
  -6   9  -7    2.81    1.50
   6  -9   7    0.98    1.89
   3   6   7    2.90    2.14
   9  -7  -7   64.21    5.54
  -2   9  -7   79.59    5.36
  -7  -2  -7   67.91    5.95
   9  -7  -7   74.54    4.69
  -7  -2  -7   65.96    5.92
   2  -9   7   70.79    6.18
   8  -7  -7    9.13    2.35
  -7  -1  -7    8.79    2.57
  -1   8  -7   10.42    2.15
   8  -7  -7    9.19    1.82
  -7  -1  -7   11.77    2.86
   1  -8   7   18.73    3.61
   7   1   7    3.38    2.49
   0   7  -7   36.76    3.01
   7  -7  -7   36.32    2.90
   7  -7  -7   34.99    3.65
  -7   0  -7   33.12    3.99
  -7   0  -7   36.15    3.96
  -7   0  -7   39.83    3.20
   0  -7   7   36.37    3.82
  -7   7   7   38.02    6.70
   7   0   7   24.25    5.21
   1   6  -7   23.85    2.27
   6  -7  -7   19.17    3.07
  -7   1  -7   21.46    2.65
   6  -7  -7   18.50    2.33
  -7   1  -7   19.43    3.44
  -7   1  -7   17.69    3.25
  -6   7   7   21.14    3.44
  -1  -6   7   21.96    3.59
  -7   2  -7   14.72    2.82
  -7   2  -7   12.73    2.61
   5  -7  -7   13.33    2.60
   2   5  -7    7.67    1.77
  -7   2  -7   12.14    1.93
   5  -7  -7   13.77    1.99
  -5   7   7   12.23    2.59
   7  -2   7   11.15    3.88
  -7   3  -7   45.65    4.10
   4  -7  -7   38.76    3.67
   4  -7  -7   42.48    3.26
   4  -7  -7   43.37    3.05
  -7   3  -7   45.03    3.18
   3   4  -7   42.86    2.13
   3   4  -7   39.59    3.20
  -7   3  -7   37.63    3.90
  -4   7   7   45.42    4.14
   7  -3   7   25.53    5.33
   3  -7  -7   11.27    1.77
  -7   4  -7   14.52    2.78
   4   3  -7   13.10    0.99
  -7   4  -7   11.40    2.50
  -7   4  -7   12.30    1.95
   3  -7  -7   13.85    2.53
   4   3  -7   12.11    2.38
   3  -7  -7   11.07    1.90
  -3   7   7   10.27    2.37
   2  -7  -7   43.48    3.95
   2  -7  -7   42.93    3.20
  -7   5  -7   42.02    3.16
  -7   5  -7   45.49    4.02
  -7   5  -7   43.79    4.09
   2  -7  -7   45.42    3.20
  -2   7   7   46.07    4.32
   1  -7  -7    4.61    1.72
  -7   6  -7    6.32    1.43
   1  -7  -7    4.16    1.86
   6   1  -7    3.17    1.96
  -7   6  -7    4.52    1.74
  -7   6  -7    7.10    1.85
  -1   7   7    5.64    2.06
   7  -6   7    4.94    1.91
   0  -7  -7    9.79    2.38
  -7   7  -7    7.05    1.54
  -7   7  -7    7.00    2.00
   7   0  -7    2.21    2.23
  -7   7  -7    9.24    2.29
   0   7   7   10.40    2.78
   7  -7   7   11.18    2.85
  -1  -7  -7   18.81    3.47
  -7   8  -7   18.78    3.24
  -7   8  -7   17.21    2.38
   7  -8   7   21.17    4.00
   1   7   7   21.30    3.88
   9  -2  -7   11.52    2.80
  -7   9  -7    9.17    2.53
  -7   9  -7    8.47    1.78
   9  -2  -7   13.58    2.23
   9  -2  -7    1.68    2.71
   2   7   7    9.99    3.12
   7  -9   7   16.52    3.38
   8  -8  -7   30.86    3.97
  -8   0  -7   33.84    4.29
   8  -8  -7   33.79    3.88
   0   8  -7   33.59    3.34
  -8   0  -7   26.33    4.37
   0  -8   7   31.34    3.88
   1   7  -7    9.31    1.94
  -8   1  -7   12.16    2.89
   7  -8  -7    9.66    1.79
  -8   1  -7   11.85    2.99
   7  -8  -7    8.66    2.28
   8  -1   7    4.05    2.69
  -7   8   7   10.91    2.87
   6  -8  -7    2.89    1.48
  -8   2  -7    3.33    1.70
  -8   2  -7    2.12    1.00
  -8   2  -7    5.54    2.06
   6  -8  -7    2.86    1.20
   8  -2   7    2.21    2.28
  -6   8   7    2.81    1.67
  -8   3  -7    1.37    1.30
   5  -8  -7    0.37    0.72
   5  -8  -7    0.82    1.06
  -8   3  -7    0.22    0.74
   3   5  -7    0.94    0.97
  -8   3  -7    2.39    1.62
  -5   8   7    0.19    1.24
  -8   4  -7   15.95    3.06
  -8   4  -7   12.87    2.13
   4  -8  -7   12.96    2.58
  -8   4  -7   13.09    2.88
   4   4  -7    9.25    2.19
  -4   8   7   14.67    3.13
   3  -8  -7   18.11    3.10
  -8   5  -7   16.03    3.14
   5   3  -7    8.55    2.38
  -8   5  -7   15.06    2.15
  -3   8   7   14.83    3.08
   2  -8  -7   39.55    4.00
   6   2  -7   26.87    4.58
  -8   6  -7   40.83    3.20
  -8   6  -7   39.20    3.89
  -8   6  -7   36.55    4.06
  -2   8   7   41.91    4.43
  -8   7  -7   27.23    2.99
  -8   7  -7   17.60    2.46
  -8   7  -7   15.71    3.16
   1  -8  -7   17.90    3.28
  -1   8   7   19.13    3.57
   8  -7   7   22.50    4.05
   8   0  -7    2.62    2.83
  -8   8  -7   11.32    2.02
  -8   8  -7    8.13    2.48
   8  -8   7   13.97    3.59
   0   8   7    6.71    2.63
  -9   2  -7   73.20    6.23
  -9   2  -7   64.11    5.94
   7  -9  -7   64.16    5.44
   2   7  -7   63.19    4.68
  -7   9   7   62.87    6.28
  -9   3  -7    7.53    1.75
  -9   3  -7    6.28    2.24
  -9   3  -7    9.92    2.84
   6  -9  -7    9.40    2.44
   3   6  -7    5.95    1.96
  -6   9   7    8.22    2.54
   4   5  -7    7.24    2.12
  -9   4  -7    3.33    2.38
  -9   4  -7   11.30    2.13
  -9   4  -7    7.36    2.43
  -5   9   7    9.66    2.77
   4  -9  -7    8.94    2.36
  -9   5  -7    7.99    1.82
   5   4  -7    7.16    2.35
  -9   5  -7    7.13    2.78
  -9   5  -7   10.88    2.76
  -4   9   7   11.77    2.97
   6   3  -7    0.38    1.60
  -9   6  -7   10.36    2.54
  -9   6  -7    3.52    1.91
  -9   6  -7    1.58    1.07
   3  -9  -7    2.47    1.69
  -3   9   7    1.93    1.69
  -9   7  -7   10.06    2.83
   7   2  -7    4.38    2.70
  -9   7  -7    8.46    1.90
  -2   9   7   10.76    3.02
   0   0  -8    0.43    0.46
   0   0  -8    0.15    0.29
   0   0  -8    0.36    0.52
   0   0  -8    0.37    0.35
   0   0  -8    0.40    0.27
   0   0   8    0.23    0.38
  -1   0  -8   49.74    2.43
  -1   0  -8   48.43    3.40
   0   1  -8   51.51    2.33
   1  -1  -8   50.26    2.35
  -1   0  -8   50.32    2.45
  -1   0  -8   49.39    2.89
   1  -1  -8   49.73    3.00
   0   1  -8   48.58    2.50
   0   1  -8   49.11    2.04
   1  -1  -8   50.95    2.43
  -1   0  -8   48.72    3.09
   1  -1  -8   49.22    2.77
   1   0   8   49.09    2.81
   0  -1   8   48.43    3.18
   1   0  -8    1.48    0.36
   0  -1  -8    1.60    0.66
   1   0  -8    2.64    0.67
  -1   1  -8    2.29    0.88
   0  -1  -8    3.23    0.96
   0  -1  -8    1.92    0.52
   1   0  -8    2.92    0.62
  -1   1  -8    1.84    0.67
   0  -1  -8    1.88    0.48
  -1   1  -8    3.01    0.51
  -1   1  -8    2.03    0.60
   0  -1  -8    1.74    0.82
   1   0  -8    1.76    0.51
   1  -1   8    1.72    0.73
   0   1   8    1.07    0.64
  -1   2  -8  186.36    8.19
  -1  -1  -8  189.41    7.15
  -1  -1  -8  181.92    7.85
   2  -1  -8  186.77    7.29
   2  -1  -8  181.29    6.76
  -1  -1  -8  181.75    8.30
  -1  -1  -8  175.70    6.83
  -1   2  -8  186.30    6.52
  -1   2  -8  185.87    6.88
  -1   2  -8  176.35    7.25
   2  -1  -8  178.68    7.62
   2  -1  -8  179.69    6.86
   1   1   8  177.01    6.94
   1  -2   8  179.56    8.10
   1   1   8  198.63    8.28
  -2  -1  -8   60.39    4.04
  -2  -1  -8   62.87    3.91
   3  -2  -8   61.17    2.93
  -1   3  -8   65.29    3.89
  -2  -1  -8   64.92    3.28
  -1   3  -8   60.94    2.40
  -2  -1  -8   57.27    2.76
   3  -2  -8   66.21    3.54
  -1   3  -8   61.67    2.68
   2   1   8   60.10    2.77
   1  -3   8   58.32    4.01
   2   1   8   56.93    4.11
  -2   0  -8   35.75    2.60
   2  -2  -8   36.31    2.43
   2  -2  -8   33.09    1.93
   2  -2  -8   36.99    1.98
  -2   0  -8   31.99    2.02
  -2   0  -8   36.80    2.92
  -2   0  -8   34.82    1.90
   2   0   8   34.21    2.18
   0  -2   8   35.39    2.81
   2   0   8   24.51    2.62
  -2   1  -8  178.72    7.89
  -2   1  -8  184.86    8.32
   1   1  -8  183.34    6.90
   1  -2  -8  190.62    7.74
   1   1  -8  182.04    6.65
  -2   1  -8  183.65    6.95
   1  -2  -8  181.11    7.00
  -2   1  -8  186.14    7.62
   1   1  -8  184.43    6.51
   1  -2  -8  184.28    6.88
   1   1  -8  184.33    6.27
   2  -1   8  178.00    7.64
   2  -1   8  167.88    7.96
  -1   2   8  178.97    7.75
  -1  -1   8  179.43    8.09
   0  -2  -8   90.05    3.71
  -2   2  -8   79.27    3.58
   2   0  -8   91.63    3.73
  -2   2  -8   68.78    4.25
   2   0  -8   88.00    3.39
   0  -2  -8   88.63    3.97
   2   0  -8   89.46    3.78
   2   0  -8   89.70    4.01
  -2   2  -8   89.05    4.15
  -2   2  -8   87.34    4.85
   0  -2  -8   84.55    4.53
   0  -2  -8   88.83    4.97
   2  -2   8   86.40    4.70
   0   2   8   88.42    4.84
  -2   3  -8  168.77    7.62
  -1  -2  -8  165.99    6.28
  -2   3  -8  142.58    7.11
  -2   3  -8  167.98    6.66
  -1  -2  -8  173.08    7.70
  -2   3  -8  164.12    6.15
   3  -1  -8  171.51    6.86
   3  -1  -8  169.26    6.26
   3  -1  -8  161.29    7.16
   3  -1  -8  168.51    6.35
  -1  -2  -8  166.00    6.79
  -1  -2  -8  167.12    7.83
   2  -3   8  167.66    7.85
   1   2   8  164.91    7.95
   4  -2  -8    1.79    0.63
   4  -2  -8    2.07    0.81
  -2  -2  -8    2.40    0.56
   4  -2  -8    1.88    0.57
  -2   4  -8    2.66    1.15
  -2   4  -8    1.62    0.88
  -2   4  -8    1.35    0.60
  -2   4  -8    2.54    0.50
  -2  -2  -8    2.63    1.15
  -2  -2  -8    1.64    0.72
  -2  -2  -8    1.64    0.95
   2  -4   8    2.42    1.14
  -4   2   8    2.27    0.78
   2   2   8    3.00    1.47
  -3  -2  -8   70.31    3.11
   5  -3  -8   70.41    3.60
  -3  -2  -8   75.22    4.90
  -3  -2  -8   75.20    4.08
  -2   5  -8   72.74    4.15
  -2   5  -8   67.76    3.04
  -2   5  -8   73.46    3.69
  -2   5  -8   69.20    2.99
  -3  -2  -8   71.96    4.84
   5  -3  -8   72.40    4.30
   3   2   8   54.82    4.89
   2  -5   8   75.80    5.11
  -3  -1  -8  291.46   12.15
   4  -3  -8  283.11   10.62
   4  -3  -8  288.72   11.49
  -1   4  -8  286.92   10.03
  -1   4  -8  298.95   11.64
  -3  -1  -8  272.37   10.16
  -1   4  -8  289.87    9.74
  -3  -1  -8  289.68   11.07
  -1   4  -8  283.65    9.79
  -1   4  -8  288.22   10.18
  -3  -1  -8  287.27   12.25
   4  -3  -8  272.89   10.76
   3   1   8  286.04   12.93
   3   1   8  278.03   10.23
   1  -4   8  272.83   12.24
  -4   3   8  289.03   11.42
  -3   0  -8    4.17    1.20
   3  -3  -8    4.32    0.86
  -3   0  -8    5.33    1.03
  -3   0  -8    2.65    0.59
   3  -3  -8    3.79    1.04
  -3   0  -8    2.97    1.20
   3   0   8    4.00    0.89
   0  -3   8    3.64    1.20
  -3   3   8    3.81    1.10
   3   0   8   11.36    2.25
  -3   1  -8   62.58    3.15
   2  -3  -8   59.63    3.65
   2  -3  -8   59.41    3.05
  -3   1  -8   64.42    3.82
  -3   1  -8   58.94    4.03
   3  -1   8   51.45    4.07
  -2   3   8   59.67    3.76
   3  -1   8   62.46    3.53
  -1  -2   8   64.00    4.13
   1  -3  -8  165.11    7.60
   1  -3  -8  176.32    7.95
  -3   2  -8  169.61    6.69
   2   1  -8  173.89    6.48
   2   1  -8  167.05    6.43
  -3   2  -8  166.52    7.40
   1  -3  -8  176.55    6.87
  -3   2  -8  172.67    7.98
  -3   2  -8  153.22    7.68
   3  -2   8  170.26    6.19
  -1   3   8  175.49    7.87
   3  -2   8  171.99    7.67
   3  -2   8  168.59    6.63
  -3   3  -8   13.05    1.52
   0  -3  -8   14.41    1.67
   3   0  -8   13.03    1.24
   0  -3  -8   11.96    2.02
   3   0  -8   14.83    1.13
   3   0  -8   14.24    1.02
   0  -3  -8   13.96    2.21
   3   0  -8   13.54    1.04
  -3   3  -8   16.24    2.34
  -3   3  -8   12.04    1.12
   3   0  -8   12.29    1.37
   0   3   8   14.60    2.25
   3  -3   8   14.90    1.89
   4  -1  -8    3.40    0.91
  -1  -3  -8    3.05    1.16
   4  -1  -8    3.23    0.76
  -1  -3  -8    2.91    1.11
  -3   4  -8    0.68    0.93
  -3   4  -8    4.59    0.78
   4  -1  -8    3.80    1.11
  -3   4  -8    4.38    1.26
   4  -1  -8    4.28    0.75
  -3   4  -8    3.75    0.97
  -1  -3  -8    3.88    0.93
   1   3   8    3.85    1.48
   3  -4   8    3.95    1.29
  -3   5  -8    8.09    1.06
   5  -2  -8    7.82    1.55
  -2  -3  -8    9.24    1.50
  -2  -3  -8   10.52    2.12
  -2  -3  -8    9.60    2.04
  -3   5  -8    7.85    1.58
   5  -2  -8    8.49    1.18
  -3   5  -8    7.87    1.41
   2   3   8    8.23    2.14
   3  -5   8    6.56    1.79
   6  -3  -8    9.14    1.41
  -3   6  -8    7.76    1.52
  -3   6  -8    5.62    0.92
  -3  -3  -8    6.72    1.77
  -3  -3  -8    5.11    1.25
   6  -3  -8    5.17    1.56
  -3  -3  -8    5.75    1.70
  -3   6  -8    8.45    1.56
   3  -6   8    7.17    1.94
   3   3   8    8.02    2.37
   7  -4  -8   15.89    2.05
   7  -4  -8   16.04    2.61
  -4  -3  -8   14.56    2.92
  -4  -3  -8   15.22    2.25
  -4  -3  -8   15.12    2.85
  -3   7  -8   17.87    2.47
  -3   7  -8   17.29    1.51
   3  -7   8   20.18    3.71
   4   3   8   14.46    3.34
  -4  -2  -8   94.30    5.18
  -2   6  -8  102.93    5.02
   6  -4  -8   99.29    5.71
  -2   6  -8  101.95    4.21
  -4  -2  -8   95.27    4.01
  -4  -2  -8  100.70    6.30
  -2   6  -8  100.79    5.08
  -2   6  -8   98.39    4.11
   6  -4  -8   94.69    4.80
  -4  -2  -8   99.22    6.23
   4   2   8   95.91    7.06
   2  -6   8  101.97    6.43
   5  -4  -8   50.18    3.64
  -4  -1  -8   47.45    4.01
  -4  -1  -8   43.05    3.08
  -1   5  -8   47.29    2.20
   5  -4  -8   50.22    2.96
  -4  -1  -8   49.09    2.38
  -1   5  -8   47.57    2.47
  -4  -1  -8   47.28    3.98
  -1   5  -8   48.93    2.15
  -1   5  -8   52.37    2.74
  -1   5  -8   49.37    3.30
  -5   4   8   50.91    3.72
   1  -5   8   51.74    4.10
   4   1   8   38.43    4.39
   4   1   8   48.73    2.62
  -4   0  -8    6.17    1.69
  -4   0  -8    5.99    1.23
   4  -4  -8    6.59    1.12
  -4   0  -8    7.13    1.75
   0   4  -8    6.72    0.70
   4  -4  -8    4.96    1.29
   0   4  -8    6.78    0.62
  -4   0  -8    7.00    0.90
   4   0   8    8.33    2.33
  -4   4   8    7.06    1.60
   4   0   8    7.04    1.22
   0  -4   8    7.12    1.78
   3  -4  -8  287.51   10.74
   3  -4  -8  282.64   11.68
  -4   1  -8  290.87   12.26
  -4   1  -8  278.35   10.87
  -4   1  -8  288.69   11.96
  -1  -3   8  278.00   12.20
   4  -1   8  289.83   11.25
  -3   4   8  288.47   11.88
   4  -1   8  252.42   12.76
  -4   2  -8    1.00    0.79
  -4   2  -8    2.08    0.74
   2   2  -8    2.25    0.52
   2   2  -8    2.31    0.37
  -4   2  -8    0.49    0.84
   2  -4  -8    3.38    0.91
   2   2  -8    2.09    0.68
   2  -4  -8    2.20    0.95
   2   2  -8    2.36    0.59
   2  -4  -8    2.35    1.08
   4  -2   8    3.71    1.69
  -2   4   8    2.62    1.10
   4  -2   8    2.04    0.92
  -4   3  -8    3.14    0.77
  -4   3  -8    6.33    1.51
   1  -4  -8    3.78    1.26
   1  -4  -8    3.02    0.68
   1  -4  -8    2.85    1.07
   3   1  -8    1.00    0.93
   3   1  -8    2.96    0.79
  -4   3  -8    2.90    1.05
   1  -4  -8    2.68    0.83
   3   1  -8    3.70    0.62
   3   1  -8    4.05    0.70
   4  -3   8    3.73    0.62
  -1   4   8    3.73    1.33
   4  -3   8    2.40    1.05
  -4   4  -8   44.99    2.56
   0  -4  -8   46.98    3.45
  -4   4  -8   46.41    3.43
   4   0  -8   29.10    3.56
  -4   4  -8   44.58    3.18
   0  -4  -8   45.29    3.56
   4   0  -8   44.41    2.37
   0  -4  -8   46.14    2.89
   4   0  -8   44.15    2.24
   0   4   8   42.03    3.72
   4  -4   8   40.29    3.47
  -1  -4  -8   59.30    4.21
  -4   5  -8   60.21    4.01
  -4   5  -8   67.56    3.27
  -1  -4  -8   62.39    3.67
  -1  -4  -8   61.33    4.48
   5  -1  -8   66.39    3.24
  -4   5  -8   60.90    3.93
   5  -1  -8   65.27    3.87
   4  -5   8   60.91    4.66
   1   4   8   63.57    4.89
  -4   6  -8    7.93    1.63
  -4   6  -8    7.47    1.60
  -2  -4  -8    8.30    2.06
   6  -2  -8    8.99    1.79
  -2  -4  -8    9.74    2.10
   6  -2  -8   10.69    1.49
  -2  -4  -8    9.34    1.64
  -4   6  -8   11.40    1.34
   4  -6   8    5.09    1.63
   2   4   8    8.38    2.33
   7  -3  -8    7.62    1.47
  -3  -4  -8    9.63    2.40
   7  -3  -8    6.19    1.73
  -4   7  -8    8.28    1.30
  -4   7  -8    9.06    1.87
  -3  -4  -8   10.10    1.77
  -3  -4  -8    8.55    2.13
   4  -7   8    7.48    2.21
   3   4   8    7.98    2.50
  -4  -4  -8   34.62    3.91
  -4  -4  -8   33.62    3.98
   8  -4  -8   35.05    3.64
  -4   8  -8   45.99    2.76
   8  -4  -8   39.54    3.09
  -4   8  -8   42.89    3.67
   4   4   8   34.44    5.25
   9  -5  -8    2.51    1.51
  -5  -4  -8    0.29    1.26
  -5  -4  -8    0.93    1.48
  -4   9  -8    1.31    1.40
   9  -5  -8    0.89    1.01
   5   4   8   -0.12    1.76
  -5  -3  -8   13.03    2.93
  -5  -3  -8    9.69    2.61
  -3   8  -8   10.48    2.15
   8  -5  -8   12.99    2.04
   8  -5  -8   10.79    2.46
   5   3   8    8.02    2.91
   3  -8   8   16.61    3.66
  -5  -2  -8   26.72    3.88
  -5  -2  -8   21.74    3.45
  -2   7  -8   24.41    2.45
   7  -5  -8   25.76    2.93
  -5  -2  -8   20.79    2.65
   7  -5  -8   23.78    2.55
   2  -7   8   33.63    3.83
   5   2   8   24.00    4.60
   6  -5  -8   90.71    4.55
  -5  -1  -8   76.49    3.45
  -5  -1  -8   90.32    4.84
  -5  -1  -8   85.27    5.81
  -1   6  -8   83.17    4.53
   6  -5  -8   79.76    5.22
  -1   6  -8   79.91    3.50
  -1   6  -8   81.09    4.29
  -5  -1  -8   82.89    5.78
   5   1   8   82.08    6.94
   1  -6   8   88.70    5.98
   5  -5  -8   -0.62    0.65
  -5   0  -8    1.19    0.81
   0   5  -8    0.10    0.27
  -5   0  -8    0.39    0.80
  -5   0  -8    0.21    1.09
   0   5  -8    0.67    0.59
  -5   0  -8    0.75    0.41
   5  -5  -8   -0.05    0.59
  -5   5   8    0.66    1.01
   0  -5   8    1.38    1.24
   5   0   8   -0.02    1.35
   4  -5  -8   50.36    3.74
  -5   1  -8   46.97    3.10
  -5   1  -8   51.50    4.14
   1   4  -8   48.42    2.01
  -5   1  -8   48.23    3.91
   1   4  -8   48.20    2.29
   4  -5  -8   42.62    2.90
   1   4  -8   46.83    2.34
   5  -1   8   30.83    4.73
  -4   5   8   48.67    3.84
  -1  -4   8   52.55    4.14
   2   3  -8   71.38    2.88
   2   3  -8   71.86    3.31
   3  -5  -8   70.85    3.84
   2   3  -8   70.19    3.21
   2   3  -8   72.45    3.42
  -5   2  -8   75.20    5.02
  -5   2  -8   72.21    3.93
  -5   2  -8   73.60    4.84
   3  -5  -8   74.40    4.71
  -3   5   8   74.54    4.91
   5  -2   8   72.89    4.50
  -5   3  -8    7.42    1.73
   2  -5  -8   10.28    1.49
   3   2  -8    8.77    1.07
  -5   3  -8    9.19    1.98
   2  -5  -8   10.53    2.05
   3   2  -8    8.58    1.24
   3   2  -8    8.64    0.93
   3   2  -8    6.89    1.45
   2  -5  -8    8.69    1.77
  -5   3  -8    8.55    1.37
  -2   5   8    9.02    1.98
   5  -3   8    6.12    2.15
   5  -3   8    8.52    1.79
   5  -3   8    9.74    2.49
  -5   4  -8   61.57    3.41
   1  -5  -8   65.04    4.46
  -5   4  -8   59.54    4.17
   4   1  -8   56.45    4.42
  -5   4  -8   56.49    4.25
   1  -5  -8   63.08    4.12
   4   1  -8   61.16    2.96
   4   1  -8   59.92    2.81
   1  -5  -8   60.58    3.60
   5  -4   8   63.68    4.52
  -1   5   8   62.51    4.64
  -5   5  -8   10.22    2.03
   0  -5  -8    9.54    1.64
  -5   5  -8    5.99    1.57
   0  -5  -8    8.13    1.96
  -5   5  -8    6.39    1.21
   0  -5  -8    8.29    1.82
   0   5   8    8.80    2.23
   5  -5   8    7.69    1.96
  -1  -5  -8  129.63    6.36
  -5   6  -8  133.06    5.89
  -1  -5  -8  123.27    7.39
  -1  -5  -8  132.54    6.99
  -5   6  -8  135.05    6.79
   6  -1  -8  146.29    5.94
  -5   6  -8  116.71    6.75
   6  -1  -8  149.55    6.92
   5  -6   8  129.95    7.70
   1   5   8  117.85    7.64
   7  -2  -8   16.27    2.04
  -2  -5  -8   15.64    2.20
   7  -2  -8    6.74    2.99
  -5   7  -8   17.82    2.43
  -2  -5  -8   18.21    2.94
  -5   7  -8   16.92    2.74
   7  -2  -8   26.62    2.78
  -2  -5  -8   15.54    2.94
  -5   7  -8   18.79    2.07
   2   5   8   20.03    3.62
   5  -7   8   15.45    3.03
   8  -3  -8   50.61    3.40
  -3  -5  -8   42.55    4.06
  -5   8  -8   41.70    2.97
  -5   8  -8   44.40    3.89
   8  -3  -8   48.75    4.20
  -3  -5  -8   46.26    4.54
   3   5   8   42.12    4.93
   9  -4  -8   11.65    2.03
  -5   9  -8    7.36    2.07
  -4  -5  -8    8.47    2.53
  -4  -5  -8    7.54    2.35
   9  -4  -8    8.01    2.35
   4   5   8    6.73    2.79
   5  -9   8   -1.91    2.70
  -3   9  -8    2.06    1.45
  -6  -3  -8    0.99    1.63
   9  -6  -8    1.81    1.17
   9  -6  -8    1.03    1.30
  -6  -3  -8    0.62    1.25
   6   3   8    1.53    2.22
  -6  -2  -8    7.31    2.41
   8  -6  -8    9.19    2.29
   8  -6  -8    5.28    1.42
  -6  -2  -8   11.16    2.78
   2  -8   8    6.80    2.70
   6   2   8    4.36    2.70
  -6  -1  -8   20.92    3.59
  -6  -1  -8   15.29    3.10
   7  -6  -8   17.22    2.90
  -1   7  -8   15.58    2.36
   7  -6  -8   20.09    2.40
  -6  -1  -8   12.90    2.11
   1  -7   8   19.66    3.71
   6   1   8   10.61    3.43
   6  -6  -8    1.27    0.84
  -6   0  -8    2.25    1.02
  -6   0  -8    1.65    1.55
   0   6  -8    4.02    1.02
  -6   0  -8    2.85    0.63
   6  -6  -8    3.10    1.34
  -6   0  -8    2.31    1.40
   0   6  -8    3.51    1.17
   0  -6   8    1.46    1.46
   6   0   8   -0.36    1.52
   5  -6  -8   83.36    5.41
  -6   1  -8   84.23    5.90
   1   5  -8   83.56    3.47
   1   5  -8   83.01    4.04
  -6   1  -8   88.02    5.89
  -6   1  -8   83.79    4.72
   5  -6  -8   83.87    4.51
  -1  -5   8   81.04    5.76
  -5   6   8   81.53    5.60
   6  -1   8   70.12    6.73
   4  -6  -8   96.66    5.88
  -6   2  -8   96.26    5.03
   4  -6  -8   99.13    4.92
  -6   2  -8  102.25    6.26
   2   4  -8   97.90    4.58
  -6   2  -8   99.88    6.31
   2   4  -8   95.43    3.88
   6  -2   8   72.93    7.25
  -4   6   8   92.95    6.02
  -6   3  -8    5.75    1.72
   3   3  -8    7.51    0.94
  -6   3  -8    4.63    1.82
   3  -6  -8    4.59    1.10
   3   3  -8    6.70    1.51
   3  -6  -8    8.44    1.85
   3   3  -8    8.07    0.98
  -6   3  -8    7.00    1.39
   3  -6  -8    7.10    1.76
  -3   6   8    7.04    1.98
   2  -6  -8   10.42    1.94
   2  -6  -8    7.97    1.55
   4   2  -8    7.87    1.10
  -6   4  -8    5.88    1.97
  -6   4  -8    8.43    1.47
  -6   4  -8    7.21    1.82
   2  -6  -8   11.86    2.37
   4   2  -8    7.78    0.93
   4   2  -8    7.86    1.90
  -2   6   8    8.83    2.13
   6  -4   8   11.62    2.42
   1  -6  -8  134.72    6.70
  -6   5  -8  132.82    7.14
  -6   5  -8  128.48    7.20
   1  -6  -8  125.94    7.31
   1  -6  -8  123.88    6.19
  -6   5  -8  124.89    6.00
  -1   6   8  132.06    7.69
   6  -5   8  128.81    7.52
   6   0  -8   24.90    4.71
   0  -6  -8   45.67    3.56
  -6   6  -8   40.22    3.69
  -6   6  -8   39.64    3.60
  -6   6  -8   42.85    2.93
   0  -6  -8   41.21    3.95
   0  -6  -8   47.50    3.28
   6  -6   8   46.90    4.37
   0   6   8   36.16    4.09
  -6   7  -8   17.25    2.12
  -6   7  -8   15.03    2.73
   7  -1  -8   20.39    2.28
  -6   7  -8   15.31    2.48
  -1  -6  -8   16.19    2.93
  -1  -6  -8   16.78    2.68
   6  -7   8   19.98    3.65
   1   6   8   15.64    3.38
   8  -2  -8    2.38    2.56
   8  -2  -8   11.37    2.58
  -2  -6  -8   10.75    2.33
  -6   8  -8   10.45    1.77
  -6   8  -8   11.09    2.47
  -2  -6  -8    9.63    2.52
   8  -2  -8   11.45    1.89
   2   6   8    8.20    2.75
   6  -8   8   14.04    3.34
  -6   9  -8    2.11    1.39
   9  -3  -8   -0.07    0.88
  -6   9  -8    1.57    0.98
  -3  -6  -8    0.47    1.39
   9  -3  -8    2.20    1.58
   3   6   8    0.76    1.66
  -7  -1  -8   48.91    4.98
   8  -7  -8   46.40    4.42
  -7  -1  -8   48.11    4.91
  -1   8  -8   32.14    3.28
   8  -7  -8   50.36    3.60
   1  -8   8   59.72    5.13
   7   1   8   30.35    5.79
   7  -7  -8    3.60    1.24
  -7   0  -8    2.15    1.61
  -7   0  -8    3.63    1.87
   0   7  -8    2.25    0.97
  -7   0  -8    4.49    1.41
   7  -7  -8    3.70    1.61
   7   0   8    4.22    2.68
   0  -7   8    7.30    2.32
   1   6  -8   16.20    2.17
  -7   1  -8   16.68    3.13
   6  -7  -8   16.11    2.82
  -7   1  -8   19.54    3.53
  -7   1  -8   18.42    2.49
   6  -7  -8   16.52    2.27
  -6   7   8   21.86    5.27
   7  -1   8   10.91    3.60
  -1  -6   8   14.96    3.20
  -7   2  -8   21.50    3.41
   5  -7  -8   26.10    3.11
  -7   2  -8   20.27    2.54
  -7   2  -8   25.06    3.80
   2   5  -8   29.99    2.34
   5  -7  -8   26.67    2.87
  -5   7   8   23.36    3.61
   3   4  -8   17.59    1.32
   3   4  -8   13.81    2.16
  -7   3  -8   18.06    3.17
   4  -7  -8   15.60    2.43
  -7   3  -8   19.60    2.43
   4  -7  -8   14.02    1.99
   4  -7  -8   14.46    2.67
  -7   3  -8   17.12    3.14
  -4   7   8   18.97    3.30
  -7   4  -8    9.53    2.33
   3  -7  -8    8.01    1.60
  -7   4  -8    6.96    1.48
   3  -7  -8    8.63    1.87
  -7   4  -8   10.91    2.50
   4   3  -8    8.35    0.98
   3  -7  -8   10.83    2.43
   4   3  -8    8.07    2.03
  -3   7   8   10.78    2.58
  -7   5  -8   15.59    2.18
  -7   5  -8   15.92    2.86
  -7   5  -8   16.77    3.16
   2  -7  -8   17.38    2.16
   5   2  -8   14.78    2.98
   2  -7  -8   20.06    3.27
   2  -7  -8   15.17    2.16
   7  -5   8   12.02    2.62
  -2   7   8   16.64    3.14
  -7   6  -8   16.31    3.00
  -7   6  -8   17.75    2.30
   1  -7  -8   18.38    2.29
   1  -7  -8   20.31    3.35
  -7   6  -8   16.35    2.96
   7  -6   8   20.55    3.55
  -1   7   8   19.42    3.48
  -7   7  -8   33.60    3.72
  -7   7  -8   37.02    2.93
   0  -7  -8   40.19    4.11
  -7   7  -8   39.63    3.71
   0   7   8   35.73    4.34
   7  -7   8   38.35    4.38
  -7   8  -8    3.37    1.20
  -7   8  -8    5.22    1.89
   8  -1  -8    5.12    1.43
  -1  -7  -8    2.67    1.49
   8  -1  -8   -0.10    2.16
   1   7   8    3.43    1.96
   7  -8   8    4.72    2.30
  -8   1  -8   48.56    4.98
  -8   1  -8   39.44    4.80
   1   7  -8   48.39    3.58
  -8   1  -8   48.04    4.94
   7  -8  -8   48.15    3.65
   7  -8  -8   47.49    4.54
  -8   2  -8    8.43    2.66
  -8   2  -8    8.28    1.79
  -8   2  -8    7.40    2.30
   6  -8  -8    7.88    2.23
   6  -8  -8    6.58    1.53
  -6   8   8    9.28    3.03
  -8   3  -8   11.93    2.95
   5  -8  -8    7.03    2.15
   3   5  -8   10.36    1.99
   5  -8  -8   10.58    1.91
  -8   3  -8    8.18    1.69
  -8   3  -8    9.99    2.58
  -5   8   8    8.02    2.40
   4   4  -8   27.97    3.81
  -8   4  -8   35.97    3.14
  -8   4  -8   40.77    4.31
  -8   4  -8   48.38    4.73
   4  -8  -8   38.09    3.93
  -4   8   8   39.57    4.26
  -8   5  -8   34.66    3.15
   3  -8  -8   43.96    4.24
  -8   5  -8   39.43    4.24
  -8   5  -8   33.97    4.32
  -3   8   8   47.58    4.69
   2  -8  -8   12.02    2.68
   6   2  -8    5.20    2.33
  -8   6  -8    8.42    1.72
  -8   6  -8    3.91    1.95
  -8   6  -8   10.46    2.65
   8  -6   8   10.73    2.69
  -2   8   8   13.11    3.19
  -8   7  -8    2.08    1.09
   1  -8  -8    3.80    1.77
  -8   7  -8    3.41    1.73
   7   1  -8    0.67    2.22
   8  -7   8    2.52    1.65
  -1   8   8    3.37    1.81
   0   8   8   22.82    4.26
  -9   3  -8    0.43    1.87
  -9   3  -8    0.68    1.00
  -9   3  -8   -0.30    1.34
   3   6  -8    1.53    1.25
   6  -9  -8    1.45    1.42
  -9   4  -8    7.17    2.24
  -9   4  -8    2.12    1.62
  -9   4  -8   -0.10    0.84
   5  -9  -8    1.36    1.37
   4   5  -8    0.45    1.08
  -5   9   8    0.84    1.33
  -9   5  -8    8.26    1.86
   4  -9  -8    9.48    2.53
  -9   5  -8    7.98    2.66
   5   4  -8    9.95    2.71
  -9   5  -8   12.37    3.33
  -4   9   8    9.87    2.85
  -9   6  -8    3.26    1.33
  -9   6  -8    0.72    1.27
   3  -9  -8    1.46    1.36
   6   3  -8    3.26    1.96
  -3   9   8    1.38    1.65
   0   0  -9   18.51    2.12
   0   0  -9   21.17    1.44
   0   0  -9   19.34    1.28
   0   0  -9   19.03    1.57
   0   0  -9   20.53    1.81
   0   0   9   18.56    1.82
   1  -1  -9  119.71    4.93
  -1   0  -9  124.85    5.00
   0   1  -9  121.46    5.14
   1  -1  -9  126.01    5.50
   0   1  -9  122.02    4.93
  -1   0  -9  119.34    5.60
   0   1  -9  122.38    4.55
   0   1  -9  127.63    5.07
  -1   0  -9  122.23    6.41
  -1   0  -9  125.31    5.00
  -1   0  -9  120.82    5.88
   0   1  -9  123.71    6.45
   1  -1  -9  122.15    5.74
   1  -1  -9  117.25    4.85
   1   0   9  121.56    5.52
   0  -1   9  113.97    5.93
   1   0  -9    6.20    0.75
  -1   1  -9    9.24    0.83
   0  -1  -9    6.67    1.27
   1   0  -9    7.82    1.03
  -1   1  -9    5.63    1.14
   0  -1  -9    8.03    1.72
   0  -1  -9    5.32    0.86
   0  -1  -9    6.71    0.93
  -1   1  -9    6.62    1.09
   0  -1  -9    8.01    1.67
   1   0  -9    6.48    0.97
   1   0  -9    8.97    1.29
  -1   1  -9    6.54    1.51
   1  -1   9    5.87    1.25
   2  -1  -9   95.85    4.10
  -1   2  -9   98.18    4.47
  -1  -1  -9   98.44    4.34
  -1  -1  -9  100.37    5.57
  -1   2  -9   94.70    5.35
  -1   2  -9   98.15    3.77
   2  -1  -9   93.21    4.80
  -1  -1  -9   94.12    4.09
   2  -1  -9   96.84    3.99
   2  -1  -9   95.99    4.49
  -1   2  -9   98.88    4.17
  -1  -1  -9   92.11    4.99
   1   1   9   96.52    5.25
   1  -2   9   99.15    5.32
   1   1   9   91.81    4.22
  -2  -1  -9   20.18    1.41
  -1   3  -9   18.55    1.06
   3  -2  -9   20.41    1.87
  -2  -1  -9   20.50    1.73
  -1   3  -9   18.44    2.12
   3  -2  -9   20.90    1.51
  -2  -1  -9   18.38    2.10
  -2  -1  -9   19.48    2.29
  -1   3  -9   19.51    1.30
   2   1   9   19.89    1.40
   1  -3   9   21.10    2.38
   2   1   9   11.80    2.26
   2  -2  -9   29.52    1.83
   0   2  -9   25.47    1.55
  -2   0  -9   28.44    1.77
   2  -2  -9   29.54    1.84
   0   2  -9   31.49    1.26
  -2   0  -9   27.27    2.66
   2  -2  -9   31.03    2.29
  -2   0  -9   29.89    1.98
  -2   0  -9   26.95    2.37
   0   2  -9   28.33    1.42
   2   0   9   30.38    2.11
   0  -2   9   27.91    2.64
  -2   1  -9   99.31    4.84
  -2   1  -9  100.53    5.55
   1  -2  -9  100.74    4.95
  -2   1  -9   97.00    4.21
   1  -2  -9   96.23    5.57
   1   1  -9   92.82    4.13
   1  -2  -9   97.01    4.28
   1   1  -9   96.91    3.58
  -2   1  -9   93.26    5.08
   1  -2  -9   93.12    4.11
   1   1  -9   98.55    3.87
   1   1  -9   94.53    4.03
  -1  -1   9   93.92    5.31
   2  -1   9  101.83    5.19
  -1   2   9   90.79    4.87
   2  -1   9   97.56    4.93
   2   0  -9    1.97    0.49
   0  -2  -9    4.32    1.33
  -2   2  -9    3.52    0.92
   0  -2  -9    3.67    1.08
  -2   2  -9    5.41    0.79
   0  -2  -9    2.74    0.64
   2   0  -9    4.57    0.96
   0  -2  -9    2.81    0.75
   2   0  -9    4.69    0.83
   2   0  -9    3.95    0.73
  -2   2  -9    4.65    1.37
  -2   2  -9    3.79    1.09
   0   2   9    3.38    1.17
   2  -2   9    2.83    1.00
   3  -1  -9  122.38    5.42
  -1  -2  -9  120.47    5.38
  -2   3  -9  122.96    4.76
  -1  -2  -9  116.73    4.85
   3  -1  -9  111.51    5.68
  -2   3  -9  125.62    5.30
  -1  -2  -9  122.70    6.51
   3  -1  -9  127.24    4.99
   3  -1  -9  122.46    4.85
  -1  -2  -9  121.52    6.21
  -2   3  -9  121.01    6.28
   1   2   9  105.25    6.29
   2  -3   9  123.57    6.46
  -2  -2  -9  131.14    7.09
  -2  -2  -9  135.46    5.36
  -2   4  -9  136.46    5.17
  -2  -2  -9  142.68    6.17
  -2   4  -9  134.81    6.76
  -2  -2  -9  132.89    7.02
  -2   4  -9  138.18    5.74
   4  -2  -9  135.48    5.73
   4  -2  -9  134.85    6.31
   4  -2  -9  135.36    5.59
   2   2   9  132.93    7.51
   2  -4   9  131.83    7.22
  -3  -2  -9   60.60    2.90
  -2   5  -9   57.38    2.67
   5  -3  -9   68.65    4.16
  -2   5  -9   61.13    4.01
  -2   5  -9   60.09    2.78
  -3  -2  -9   60.79    4.58
  -3  -2  -9   65.58    4.74
  -3  -2  -9   64.80    3.82
   5  -3  -9   64.00    3.37
  -2   5  -9   64.79    3.36
   2  -5   9   62.67    4.78
   3   2   9   53.97    4.89
  -1   4  -9    0.63    0.25
   4  -3  -9    0.99    0.72
  -1   4  -9    1.00    0.84
  -1   4  -9    1.11    0.39
  -1   4  -9    0.62    0.40
  -3  -1  -9    1.13    0.69
  -3  -1  -9    1.14    0.97
  -3  -1  -9    1.29    1.03
   4  -3  -9    0.76    0.56
  -1   4  -9    2.14    0.38
  -3  -1  -9    0.91    0.47
   3   1   9    0.96    0.45
   1  -4   9    0.51    0.85
   3   1   9    0.42    1.07
  -3   0  -9   -0.04    0.29
  -3   0  -9   -0.03    0.47
  -3   0  -9    0.04    0.61
  -3   0  -9   -0.34    0.56
   3  -3  -9    0.31    0.44
   3  -3  -9    0.56    0.50
   3   0   9   -0.06    0.93
   3   0   9   -0.24    0.36
   0  -3   9   -0.27    0.55
  -3   3   9    0.10    0.61
  -3   1  -9   20.70    1.67
  -3   1  -9   22.87    2.52
   2  -3  -9   18.14    1.57
   2  -3  -9   18.22    2.02
  -3   1  -9   18.99    2.11
   1   2  -9   20.52    1.51
  -1  -2   9   19.21    2.31
   3  -1   9   20.75    1.97
  -2   3   9   20.38    2.12
   2   1  -9  122.50    4.77
   2   1  -9  128.24    5.04
   2   1  -9  115.27    4.91
   1  -3  -9  112.28    5.24
   1  -3  -9  122.96    6.47
  -3   2  -9  118.57    5.13
  -3   2  -9  128.31    5.98
  -3   2  -9  125.01    6.52
   2   1  -9  122.59    4.44
   1  -3  -9  118.61    6.09
  -1   3   9  123.70    6.30
   3  -2   9  122.75    6.13
   3  -2   9  117.52    4.92
   3   0  -9    3.24    0.63
  -3   3  -9    3.44    0.71
   0  -3  -9    2.27    1.04
   0  -3  -9    3.39    0.87
  -3   3  -9    3.13    1.19
   3   0  -9    1.60    0.64
   0  -3  -9    2.06    0.96
   3   0  -9    2.32    0.80
   3   0  -9    2.05    0.54
  -3   3  -9    2.32    0.85
   3   0  -9    3.04    0.70
  -3   3  -9    3.23    1.15
   3  -3   9    2.88    1.10
   0   3   9    2.53    1.19
  -1  -3  -9   87.10    5.33
   4  -1  -9   89.46    3.89
   4  -1  -9   84.82    3.96
  -3   4  -9   86.39    4.49
  -1  -3  -9   84.79    5.29
  -1  -3  -9   87.54    4.46
  -3   4  -9   88.09    3.86
  -3   4  -9   91.05    5.14
   4  -1  -9   89.22    4.50
   3  -4   9   90.29    5.53
   1   3   9   81.18    5.55
   5  -2  -9    9.58    1.31
   5  -2  -9    9.61    1.76
  -3   5  -9   11.53    1.72
  -2  -3  -9   11.08    1.66
  -2  -3  -9   12.11    2.34
  -3   5  -9   12.27    1.13
  -3   5  -9   13.32    2.20
  -2  -3  -9   13.15    2.36
   3  -5   9   10.26    2.29
   2   3   9   11.27    2.56
  -3   6  -9   15.20    2.08
   6  -3  -9   13.89    1.77
  -3   6  -9   16.17    1.38
  -3   6  -9   15.55    1.95
  -3  -3  -9   15.47    2.23
  -3  -3  -9   13.94    2.67
   6  -3  -9   13.39    2.28
  -3  -3  -9   14.11    2.74
   3  -6   9   16.33    3.00
   3   3   9   12.08    2.88
  -4  -3  -9   10.65    1.92
  -4  -3  -9    8.26    2.26
  -3   7  -9    8.43    1.19
   7  -4  -9    7.86    2.00
  -3   7  -9    8.19    1.76
  -4  -3  -9    9.61    2.59
   7  -4  -9    6.98    1.48
   3  -7   9   14.54    3.15
   4   3   9    4.84    2.27
   6  -4  -9   10.80    2.12
  -4  -2  -9    9.02    2.25
  -2   6  -9   11.78    1.23
  -4  -2  -9   10.11    1.71
  -2   6  -9   12.46    1.71
   6  -4  -9    6.60    1.40
  -2   6  -9   13.83    2.22
  -2   6  -9   10.05    1.63
  -4  -2  -9   12.79    1.28
  -4  -2  -9   11.48    2.44
   4   2   9    5.78    2.26
   2  -6   9    9.37    2.36
  -4  -1  -9  195.07    8.55
  -1   5  -9  207.91    7.72
  -1   5  -9  203.98    8.97
   5  -4  -9  200.77    8.16
  -4  -1  -9  201.83    9.91
  -1   5  -9  195.79    7.04
  -1   5  -9  205.24    7.12
  -4  -1  -9  202.62    9.87
   5  -4  -9  202.09    9.17
  -4  -1  -9  190.86    7.43
   4   1   9  162.43   10.40
   1  -5   9  199.57   10.01
   4  -4  -9   26.54    2.11
  -4   0  -9   26.68    1.73
  -4   0  -9   26.89    2.90
  -4   0  -9   27.54    2.28
   4  -4  -9   26.09    2.58
  -4   0  -9   27.49    3.03
   0  -4   9   29.48    3.10
   4   0   9   26.79    2.11
  -4   4   9   29.29    2.77
  -4   1  -9   -1.32    0.78
  -4   1  -9    2.02    1.05
   3  -4  -9    1.16    0.64
  -4   1  -9    1.15    0.71
   3  -4  -9    0.82    0.76
   4  -1   9    1.54    0.80
  -3   4   9    1.50    0.94
  -1  -3   9    1.11    1.04
   4  -1   9    0.41    1.19
  -4   2  -9  128.31    5.90
   2  -4  -9  139.85    6.94
  -4   2  -9  138.24    7.27
   2   2  -9  137.04    5.25
   2  -4  -9  137.93    6.04
   2   2  -9  135.64    4.87
   2  -4  -9  137.42    7.20
   2   2  -9  133.21    5.50
  -4   2  -9  144.57    6.96
   4  -2   9  138.11    6.75
  -2   4   9  132.87    6.98
  -4   3  -9   89.17    4.23
   1  -4  -9   85.03    5.28
   3   1  -9   89.40    3.64
   1  -4  -9   95.23    4.57
  -4   3  -9   87.96    5.04
   3   1  -9   91.27    4.24
  -4   3  -9   86.42    5.37
   3   1  -9   89.44    3.88
   1  -4  -9   85.23    5.22
  -1   4   9   87.34    5.45
   4  -3   9   90.13    5.35
  -4   4  -9  131.39    6.78
   4   0  -9  133.81    5.83
   4   0  -9  133.58    5.18
   4   0  -9  129.05    5.19
   0  -4  -9  125.66    6.76
   0  -4  -9  123.47    5.89
   4   0  -9  126.63    5.24
   0  -4  -9  131.39    6.99
  -4   4  -9  118.31    5.41
  -4   4  -9  129.19    6.40
   0   4   9  122.27    7.08
   4  -4   9  119.05    6.91
  -4   5  -9   95.30    5.55
  -4   5  -9   95.94    5.31
  -4   5  -9   93.24    4.46
  -1  -4  -9   97.07    6.08
  -1  -4  -9   97.40    5.83
   5  -1  -9  104.43    4.51
  -1  -4  -9  103.62    5.16
   5  -1  -9  103.82    5.25
   1   4   9   97.99    6.45
   4  -5   9  101.14    6.32
  -4   6  -9   67.84    4.26
  -4   6  -9   58.63    3.25
  -2  -4  -9   58.45    4.77
  -2  -4  -9   64.95    4.71
  -2  -4  -9   64.17    4.00
   6  -2  -9   69.68    4.39
   6  -2  -9   65.87    3.53
  -4   6  -9   62.42    4.12
   2   4   9   60.80    5.29
   4  -6   9   63.27    5.12
  -3  -4  -9    5.80    1.89
  -3  -4  -9    7.44    2.20
  -4   7  -9    9.61    1.95
  -4   7  -9    8.05    1.18
   7  -3  -9    5.74    1.29
   7  -3  -9    7.48    1.93
  -3  -4  -9    7.10    1.68
   3   4   9    8.16    2.64
   4  -7   9    8.78    2.59
  -4  -4  -9   21.16    3.75
  -4   8  -9   26.90    1.98
  -4   8  -9   19.21    2.92
   8  -4  -9   18.35    2.48
  -4  -4  -9   21.85    3.58
   8  -4  -9   19.96    3.19
   4  -8   9   24.55    4.52
   8  -5  -9   10.43    2.41
  -3   8  -9   10.18    2.21
  -5  -3  -9    9.87    2.63
  -5  -3  -9    9.48    2.61
   8  -5  -9   10.32    1.91
   5   3   9    9.16    3.18
   3  -8   9   17.87    3.82
  -5  -2  -9   45.51    3.62
  -5  -2  -9   51.51    4.72
   7  -5  -9   46.40    3.29
  -5  -2  -9   43.68    4.42
   7  -5  -9   49.09    4.14
  -2   7  -9   43.46    3.31
   5   2   9   33.78    5.54
   2  -7   9   58.55    5.11
  -1   6  -9   26.96    2.11
   6  -5  -9   26.50    2.34
  -5  -1  -9   26.96    3.43
   6  -5  -9   22.64    2.77
  -1   6  -9   24.71    1.50
  -5  -1  -9   22.12    3.40
  -1   6  -9   25.87    2.49
  -5  -1  -9   25.83    2.80
  -5  -1  -9   22.57    1.56
   1  -6   9   26.24    3.86
   5   1   9   29.41    4.95
   5  -5  -9  187.59    7.92
  -5   0  -9  185.60    8.21
  -5   0  -9  185.96    9.50
   0   5  -9  181.39    7.10
  -5   0  -9  181.45    9.57
   5  -5  -9  187.80    9.00
  -5   0  -9  171.64    6.99
   0   5  -9  187.24    6.56
   0  -5   9  186.16    9.70
   5   0   9  191.13    7.93
   1   4  -9  200.99    7.33
  -5   1  -9  193.53    9.74
   1   4  -9  200.80    7.27
  -5   1  -9  212.99   10.22
  -5   1  -9  203.15    8.62
   4  -5  -9  206.82    8.46
   4  -5  -9  200.95    9.51
   5  -1   9  204.31    8.88
  -1  -4   9  197.59   10.08
  -4   5   9  206.27    9.69
   3  -5  -9   62.74    3.60
   3  -5  -9   64.39    4.42
  -5   2  -9   60.43    4.43
  -5   2  -9   61.83    4.70
   2   3  -9   62.93    2.49
   2   3  -9   66.05    3.10
   2   3  -9   58.77    2.77
  -5   2  -9   61.54    3.60
   2   3  -9   60.11    3.04
   5  -2   9   61.82    4.15
  -3   5   9   61.15    4.51
   2  -5  -9   10.14    2.00
   2  -5  -9   13.75    1.82
  -5   3  -9    9.62    1.93
  -5   3  -9   11.24    1.61
   3   2  -9   11.19    0.95
   2  -5  -9   10.37    2.05
   3   2  -9    9.90    1.19
  -5   3  -9   11.55    2.37
   3   2  -9   19.40    2.14
  -2   5   9   10.46    2.23
   5  -3   9    9.20    1.97
   1  -5  -9   90.79    4.96
  -5   4  -9   97.95    4.82
   1  -5  -9   99.69    6.03
   4   1  -9  101.06    4.25
   1  -5  -9   98.39    5.76
  -5   4  -9  110.61    6.19
   4   1  -9   94.61    4.25
  -5   4  -9   98.15    5.76
  -1   5   9  100.62    6.28
   5  -4   9  109.58    6.30
   0  -5  -9   20.27    2.33
   5   0  -9   18.49    3.53
  -5   5  -9   26.04    2.85
   0  -5  -9   23.80    2.66
  -5   5  -9   19.53    2.83
   0  -5  -9   23.65    2.86
  -5   5  -9   20.17    1.89
   0   5   9   21.72    3.40
   5  -5   9   23.52    3.00
  -1  -5  -9   30.49    2.72
   6  -1  -9   37.81    2.49
  -5   6  -9   34.22    2.45
   6  -1  -9   35.15    3.03
  -5   6  -9   30.26    3.15
  -1  -5  -9   32.84    3.48
  -1  -5  -9   34.06    3.35
  -5   6  -9   38.24    3.31
   1   5   9   33.70    3.94
   5  -6   9   34.38    3.77
  -5   7  -9    5.38    1.79
  -2  -5  -9    4.22    1.67
  -2  -5  -9    7.04    2.03
  -5   7  -9    8.71    1.93
  -2  -5  -9    5.48    1.39
   7  -2  -9    6.48    1.39
  -5   7  -9    6.76    1.28
   7  -2  -9    5.63    1.70
   2   5   9    6.82    2.43
   5  -7   9    4.10    1.77
   8  -3  -9   11.13    1.88
  -5   8  -9    7.31    1.97
  -5   8  -9   14.41    1.81
  -3  -5  -9    9.68    2.49
  -3  -5  -9   10.62    2.58
   8  -3  -9   10.06    2.34
   5  -8   9   10.49    2.92
   3   5   9   10.45    2.97
  -6  -2  -9   25.98    4.21
  -2   8  -9   28.17    2.89
  -6  -2  -9   26.77    4.35
   8  -6  -9   27.82    3.98
   8  -6  -9   26.26    3.00
   2  -8   9   31.99    5.42
   6   2   9   14.36    4.20
   7  -6  -9   18.94    3.03
  -1   7  -9   22.30    2.26
  -6  -1  -9   23.81    2.94
  -6  -1  -9   19.33    3.48
   7  -6  -9   23.26    2.64
  -6  -1  -9   23.58    3.89
   6  -6  -9    8.00    2.10
   6  -6  -9    8.40    1.66
  -6   0  -9    7.14    2.13
  -6   0  -9    9.44    2.56
  -6   0  -9    7.33    1.61
   0   6  -9    9.70    2.09
  -6   0  -9    6.92    0.96
   0  -6   9   14.83    2.79
   6   0   9    2.91    2.23
   1   5  -9   23.83    1.87
   5  -6  -9   27.32    2.45
  -6   1  -9   27.98    3.51
   1   5  -9   27.72    1.51
  -6   1  -9   22.40    3.41
   5  -6  -9   24.65    2.95
  -6   1  -9   23.05    2.65
  -1  -5   9   24.41    3.70
   6  -1   9   26.52    2.64
   4  -6  -9   14.33    1.96
  -6   2  -9   10.96    2.39
   2   4  -9   11.82    0.95
  -6   2  -9   10.54    2.54
   2   4  -9   12.38    1.39
   2   4  -9   10.98    1.37
   4  -6  -9   10.64    2.26
  -6   2  -9   10.86    1.78
  -4   6   9   14.08    2.66
   6  -2   9   12.72    2.25
   3  -6  -9   12.50    1.91
  -6   3  -9   13.49    1.89
   3   3  -9    8.68    1.80
   3   3  -9   14.98    1.28
   3   3  -9   14.04    1.13
   3  -6  -9   14.55    2.42
   3  -6  -9   15.40    2.66
  -6   3  -9   16.61    2.75
  -6   3  -9   14.20    2.59
   6  -3   9   15.85    2.62
  -3   6   9   16.72    2.91
  -6   4  -9   65.68    3.83
  -6   4  -9   66.26    4.82
   2  -6  -9   63.98    4.80
   2  -6  -9   63.64    3.94
   4   2  -9   63.09    2.99
  -6   4  -9   60.37    4.79
   2  -6  -9   65.40    4.46
   6  -4   9   65.75    4.86
  -2   6   9   64.59    5.05
  -6   5  -9   34.72    2.64
  -6   5  -9   34.94    3.60
   1  -6  -9   32.81    3.12
  -6   5  -9   31.73    3.26
   1  -6  -9   31.59    3.42
   5   1  -9   27.55    4.43
   1  -6  -9   31.36    2.73
  -1   6   9   30.81    3.59
   6  -5   9   33.25    3.61
   0  -6  -9    8.30    1.96
   0  -6  -9    7.21    1.57
   6   0  -9    2.09    2.13
  -6   6  -9    8.95    2.10
   0  -6  -9   11.13    2.52
  -6   6  -9    8.70    1.56
  -6   6  -9    8.83    2.21
   6  -6   9    9.28    2.41
   0   6   9    7.51    2.34
  -6   7  -9   25.22    2.71
  -6   7  -9   14.01    1.95
  -1  -6  -9   16.33    3.14
   7  -1  -9   15.26    2.00
  -6   7  -9   16.14    2.84
  -1  -6  -9   13.04    2.50
   7  -1  -9   17.50    2.85
   6  -7   9   13.74    3.02
   1   6   9   13.03    3.13
   8  -2  -9    9.82    1.77
  -6   8  -9    8.77    1.68
  -6   8  -9    9.19    2.28
   8  -2  -9    9.06    2.31
  -2  -6  -9    9.12    2.68
  -2  -6  -9    8.65    2.29
   6  -8   9   11.77    3.15
   2   6   9    7.24    2.64
   8  -7  -9   10.76    2.64
  -7  -1  -9    7.78    2.68
  -7  -1  -9    8.35    2.56
   8  -7  -9   10.18    1.86
  -1   8  -9    4.50    1.70
   1  -8   9    3.03    2.66
   0   7  -9    1.80    0.97
   7  -7  -9    1.43    0.96
   7  -7  -9    0.10    0.99
  -7   0  -9    0.91    1.53
  -7   0  -9    0.51    1.29
  -7   0  -9    1.10    1.03
   0  -7   9    3.07    1.74
  -7   1  -9   20.54    1.61
   1   6  -9   19.26    2.19
   6  -7  -9   25.47    3.77
  -7   1  -9   19.20    3.38
   6  -7  -9   18.95    2.56
  -7   1  -9   20.32    2.69
  -7   1  -9   21.94    3.86
  -1  -6   9   19.12    3.62
  -7   2  -9   48.73    4.56
  -7   2  -9   46.00    3.50
   2   5  -9   44.27    3.03
   5  -7  -9   41.10    3.24
   5  -7  -9   42.99    4.09
  -7   2  -9   42.63    4.48
   4  -7  -9    9.19    2.01
  -7   3  -9    6.97    1.56
  -7   3  -9   10.01    2.44
   3   4  -9    9.41    1.18
  -7   3  -9    5.82    1.88
   4  -7  -9    7.17    2.07
   4  -7  -9    9.48    1.76
  -4   7   9   10.22    2.57
   3  -7  -9    6.31    1.70
   3  -7  -9    7.15    1.55
  -7   4  -9    9.07    2.41
   3  -7  -9    6.21    2.01
  -7   4  -9    8.60    1.63
  -7   4  -9    7.75    2.20
   4   3  -9    7.46    1.00
   4   3  -9    2.73    1.42
  -3   7   9    7.51    2.22
   7  -4   9    8.21    2.18
   2  -7  -9    4.08    1.29
   2  -7  -9    5.02    1.82
   5   2  -9    2.73    1.64
   2  -7  -9    5.19    1.53
  -7   5  -9    5.50    1.83
  -7   5  -9   17.24    2.96
  -7   5  -9    6.44    1.44
   7  -5   9    7.84    2.25
  -2   7   9    7.16    2.17
  -7   6  -9   12.99    2.05
  -7   6  -9   15.18    2.79
   6   1  -9    5.19    2.59
   1  -7  -9   14.83    2.47
  -7   6  -9   13.21    2.72
   1  -7  -9   13.86    2.85
   7  -6   9   14.86    3.17
  -1   7   9   13.39    2.97
  -7   7  -9    9.83    2.18
  -7   7  -9    6.69    2.06
   0  -7  -9    6.40    2.17
  -7   7  -9    7.08    1.61
   7   0  -9    3.79    2.51
   0   7   9    4.48    2.08
   7  -7   9    6.82    2.41
   8  -1  -9   11.11    2.51
   8  -1  -9   14.14    2.16
  -1  -7  -9   12.36    2.96
  -7   8  -9   10.89    2.61
  -7   8  -9   13.10    2.09
   7  -8   9   16.53    3.92
   1   7   9   10.40    3.09
   7  -8  -9   10.76    2.73
  -8   1  -9   11.47    3.03
  -8   1  -9    9.60    2.75
  -8   1  -9    8.92    1.96
   1   7  -9   10.39    2.10
   7  -8  -9   10.34    2.02
  -1  -7   9   10.10    3.05
  -8   2  -9   35.35    4.37
   2   6  -9   21.61    2.56
   6  -8  -9   27.58    4.02
  -8   2  -9   24.32    3.04
   6  -8  -9   23.50    2.94
  -8   2  -9   25.18    4.09
   3   5  -9   10.28    2.00
   5  -8  -9   11.35    2.74
  -8   3  -9    9.73    2.00
   5  -8  -9    9.53    1.90
  -8   3  -9   13.90    2.90
  -8   3  -9   16.96    3.38
  -8   4  -9   15.83    3.27
  -8   4  -9   13.93    2.24
  -8   4  -9   23.89    3.93
   4  -8  -9   18.56    3.31
   4   4  -9    8.74    2.46
   4  -8  -9   15.28    2.78
  -4   8   9   20.44    3.60
  -8   5  -9    7.39    1.70
   5   3  -9    8.30    2.49
  -8   5  -9   14.19    3.06
  -8   5  -9    7.48    2.27
   3  -8  -9   10.34    2.58
  -3   8   9    8.52    2.46
   8  -5   9   11.50    2.75
  -8   6  -9    8.08    2.35
  -8   6  -9    8.35    1.83
   2  -8  -9    6.54    2.17
   6   2  -9    2.02    1.97
  -8   6  -9    9.04    2.42
  -2   8   9    8.19    2.47
   8  -6   9    9.47    2.67
   7   1  -9    3.93    2.61
  -8   7  -9   11.50    2.89
  -8   7  -9   10.61    2.05
   1  -8  -9    9.79    2.68
  -8   7  -9   12.36    2.65
   8  -7   9   11.70    3.17
  -1   8   9   13.45    3.40
   0   0 -10   -0.17    0.49
   0   0 -10    1.53    0.79
   0   0 -10    0.48    0.46
   0   0 -10    0.24    0.39
   0   0 -10    0.31    0.37
   0   0  10    0.23    0.49
   0   1 -10  137.53    7.26
   1  -1 -10  134.03    5.59
  -1   0 -10  141.59    5.68
  -1   0 -10  146.27    7.37
   0   1 -10  136.59    5.89
   1  -1 -10  129.07    6.40
  -1   0 -10  135.83    6.34
   0   1 -10  145.48    5.26
  -1   0 -10  135.24    6.60
   0   1 -10  146.86    5.78
   1  -1 -10  135.52    5.53
   0   1 -10  144.79    5.72
  -1   0 -10  140.63    5.67
   1  -1 -10  141.73    6.21
   0  -1  10  135.23    6.77
   1   0  10  141.41    6.31
   1   0  10  129.24    6.16
   1   0 -10   27.90    1.83
  -1   1 -10   30.12    1.71
   0  -1 -10   27.12    2.80
   0  -1 -10   27.19    1.80
   1   0 -10   28.31    1.59
   0  -1 -10   26.04    1.82
   1   0 -10   27.96    1.94
  -1   1 -10   24.83    2.22
  -1   1 -10   27.31    2.08
  -1   1 -10   28.86    1.90
  -1   1 -10   30.02    2.87
   0  -1 -10   26.97    2.27
   1   0 -10   28.22    2.12
   1  -1  10   27.74    2.44
  -1  -1 -10  169.20    6.74
  -1  -1 -10  169.38    8.47
  -1   2 -10  175.45    8.42
   2  -1 -10  181.54    6.80
  -1   2 -10  170.09    6.38
  -1  -1 -10  173.15    7.88
  -1  -1 -10  180.39    7.06
  -1   2 -10  160.26    7.13
  -1   2 -10  168.44    6.86
   2  -1 -10  163.27    7.60
   2  -1 -10  182.11    6.66
   2  -1 -10  175.24    7.27
   1  -2  10  175.70    8.18
   3  -2 -10    8.51    1.50
  -1   3 -10    7.58    1.01
  -2  -1 -10    6.26    1.17
   3  -2 -10    6.37    1.01
  -2  -1 -10    6.75    1.00
  -1   3 -10    7.41    1.73
  -1   3 -10    7.67    0.69
  -2  -1 -10    9.33    2.05
  -2  -1 -10    6.10    1.52
   1  -3  10    6.06    1.61
   2   1  10    7.47    0.96
   2   1  10    3.85    1.58
   0   2 -10   12.27    2.23
   2  -2 -10    7.59    1.11
   0   2 -10    6.60    0.95
  -2   0 -10    7.42    1.63
   2  -2 -10    6.51    1.01
  -2   0 -10    7.02    1.53
  -2   0 -10    5.27    0.98
   0   2 -10    6.79    0.76
   0   2 -10    7.88    0.62
  -2   0 -10    5.92    0.96
   2  -2 -10    5.78    1.24
   0  -2  10    8.04    1.79
   2   0  10    7.33    1.80
   2   0  10    7.66    1.32
   1   1 -10  172.23    6.48
   1  -2 -10  173.54    7.66
  -2   1 -10  171.27    8.40
  -2   1 -10  177.15    7.57
  -2   1 -10  167.21    6.75
   1  -2 -10  175.54    6.73
  -2   1 -10  130.03    9.31
   1   1 -10  170.38    6.10
   1   1 -10  173.96    6.75
   1  -2 -10  174.31    8.55
   1  -2 -10  167.25    6.82
   1   1 -10  173.06    6.69
   2  -1  10  168.55    7.60
   0  -2 -10  227.34    8.70
   2   0 -10  237.62    8.90
   0  -2 -10  226.05   10.57
  -2   2 -10  234.70   10.55
   2   0 -10  239.49    8.79
   0  -2 -10  241.22    9.13
  -2   2 -10  210.34    9.61
  -2   2 -10  232.42    8.66
   2   0 -10  229.31    9.21
  -2   2 -10  241.56    9.40
   0  -2 -10  233.08    9.98
   2   0 -10  232.63    8.37
   2  -2  10  234.93   10.14
  -2   3 -10  145.16    5.71
  -2   3 -10  152.46    6.36
  -1  -2 -10  151.82    7.80
  -1  -2 -10  157.60    7.49
  -1  -2 -10  145.03    5.87
  -1  -2 -10  151.22    6.46
  -2   3 -10  152.31    7.61
   3  -1 -10  150.53    5.98
   3  -1 -10  149.07    6.46
   3  -1 -10  153.35    5.86
  -2   3 -10  122.92    6.72
   2  -3  10  147.62    7.57
   1   2  10  143.00    7.64
  -2   4 -10   67.29    3.06
   4  -2 -10   73.85    3.52
  -2  -2 -10   73.53    4.86
   4  -2 -10   70.58    4.13
  -2   4 -10   67.84    3.56
  -2   4 -10   70.45    4.63
  -2  -2 -10   70.98    3.96
  -2  -2 -10   75.88    3.35
  -2  -2 -10   70.92    4.94
   2   2  10   60.91    4.93
   2  -4  10   74.02    5.06
  -2   5 -10  182.00    7.54
  -3  -2 -10  187.23    9.49
   5  -3 -10  183.43    8.56
  -3  -2 -10  182.79    7.09
   5  -3 -10  187.92    7.63
  -3  -2 -10  187.87    9.51
  -2   5 -10  188.24    6.91
  -3  -2 -10  187.46    8.21
  -2   5 -10  191.81    8.80
   2  -5  10  187.63    9.68
   3   2  10  162.42    9.81
  -3  -1 -10   10.29    1.24
   4  -3 -10   13.74    2.07
  -3  -1 -10   11.22    1.66
   4  -3 -10   12.56    1.52
  -1   4 -10    8.73    0.76
  -3  -1 -10   10.70    2.36
  -1   4 -10   10.06    1.57
  -1   4 -10   10.51    1.00
  -1   4 -10    9.20    2.03
  -3  -1 -10    9.67    2.09
   1  -4  10   10.11    2.21
   3   1  10   10.81    2.63
  -3   0 -10   27.54    2.70
   3  -3 -10   26.16    1.94
   3  -3 -10   25.24    2.37
  -3   0 -10   23.92    2.04
  -3   0 -10   24.15    2.81
  -3   0 -10   24.85    1.74
   3   0  10   26.14    2.03
   3   0  10   22.15    3.35
   0  -3  10   24.88    2.81
  -3   1 -10    6.43    1.17
   1   2 -10    6.89    0.62
   2  -3 -10    7.49    1.59
   1   2 -10    8.34    1.17
   1   2 -10    7.49    0.74
  -3   1 -10    8.36    1.91
   2  -3 -10    7.47    1.18
  -3   1 -10    6.97    1.57
  -1  -2  10    5.96    1.65
   3  -1  10    7.89    1.49
  -2   3  10    7.89    1.59
   2   1 -10  151.68    5.85
   1  -3 -10  151.06    7.34
   2   1 -10  154.07    5.47
   2   1 -10  155.18    6.11
   2   1 -10  146.73    6.03
   1  -3 -10  144.91    7.65
  -3   2 -10  147.71    6.20
  -3   2 -10  148.37    7.05
  -3   2 -10  157.88    7.86
   1  -3 -10  155.48    6.48
   3  -2  10  144.21    7.20
  -1   3  10  140.85    7.30
   0  -3 -10    1.36    1.02
   3   0 -10    0.54    0.40
  -3   3 -10    0.68    0.84
   0  -3 -10    0.42    0.71
   3   0 -10    0.42    0.43
   3   0 -10    0.72    0.39
  -3   3 -10    0.81    0.48
  -3   3 -10    0.80    0.64
   3   0 -10    0.28    0.55
   0  -3 -10    0.22    0.52
   3  -3  10    0.41    0.73
   0   3  10    0.35    0.90
  -3   4 -10    1.91    1.01
  -1  -3 -10    1.74    1.05
  -1  -3 -10    1.39    0.78
  -3   4 -10    1.33    0.75
  -3   4 -10    1.62    0.57
  -1  -3 -10    1.70    1.06
   4  -1 -10    0.40    0.54
   1   3  10    1.75    1.30
   3  -4  10    2.37    1.22
   5  -2 -10   18.02    2.11
  -2  -3 -10   17.09    2.20
   5  -2 -10   16.28    1.78
  -3   5 -10   17.55    1.89
  -2  -3 -10   15.77    2.79
  -2  -3 -10   15.51    2.74
  -3   5 -10   18.32    2.67
  -3   5 -10   19.13    1.43
   2   3  10   18.72    3.36
   3  -5  10   11.78    2.40
  -3   6 -10    6.39    1.43
  -3  -3 -10    5.19    1.38
  -3  -3 -10    5.90    1.92
   6  -3 -10    8.05    1.87
  -3  -3 -10    3.88    1.75
  -3   6 -10    1.67    1.25
   6  -3 -10    6.65    1.29
  -3   6 -10    6.30    1.00
   3  -6  10    6.36    2.08
   3   3  10    2.50    1.81
  -3   7 -10   44.31    2.66
  -3   7 -10   45.20    3.42
   7  -4 -10   49.37    3.26
   7  -4 -10   49.13    4.13
  -4  -3 -10   43.59    3.50
  -4  -3 -10   48.52    4.65
  -4  -3 -10   48.65    4.56
   4   3  10   34.77    5.33
   3  -7  10   45.65    4.81
   6  -4 -10  104.87    6.13
  -4  -2 -10  107.19    6.83
  -2   6 -10  111.53    5.79
  -4  -2 -10  107.78    6.88
  -4  -2 -10   95.55    4.32
  -2   6 -10  106.40    5.08
  -2   6 -10   99.75    4.27
   6  -4 -10  103.58    5.16
  -4  -2 -10  102.07    5.57
   2  -6  10  106.99    7.04
   4   2  10   83.79    7.19
  -1   5 -10   11.61    1.23
  -1   5 -10   18.96    2.18
   5  -4 -10   11.81    1.68
  -1   5 -10   10.34    0.81
  -4  -1 -10   11.50    2.49
  -4  -1 -10   12.70    1.38
   5  -4 -10   11.18    2.09
  -4  -1 -10   12.52    2.63
  -4  -1 -10   10.60    1.88
  -1   5 -10   12.42    0.91
   1  -5  10    9.60    2.27
   4   1  10    6.57    2.46
  -4   0 -10   41.49    3.07
  -4   0 -10   48.94    4.23
   4  -4 -10   51.13    3.07
  -4   0 -10   51.35    4.17
   4  -4 -10   47.89    3.66
   0   4 -10   43.97    3.74
  -4   0 -10   49.44    2.62
   4   0  10   48.99    3.00
   0  -4  10   50.80    4.25
  -4   1 -10    9.92    1.99
  -4   1 -10   13.75    2.49
   3  -4 -10    9.32    1.83
   3  -4 -10   10.84    1.55
  -4   1 -10    9.58    1.55
   4  -1  10   11.93    1.84
  -1  -3  10    8.95    2.11
  -4   2 -10   73.54    3.85
   2   2 -10   72.39    2.80
  -4   2 -10   70.45    4.97
   2  -4 -10   72.02    3.89
  -4   2 -10   68.33    4.55
   2  -4 -10   69.30    4.62
   2  -4 -10   72.95    4.95
   2   2 -10   80.04    3.56
   2   2 -10   71.73    3.18
  -2   4  10   67.45    4.60
   4  -2  10   74.96    4.59
  -4   3 -10    2.05    1.13
   3   1 -10    2.45    0.68
   3   1 -10    2.16    0.51
   1  -4 -10    1.46    0.94
  -4   3 -10    0.99    0.89
  -4   3 -10    0.85    0.61
   1  -4 -10    1.02    0.71
   3   1 -10   -0.02    0.90
   3   1 -10    1.44    0.57
   1  -4 -10    2.50    1.22
   3   1 -10    2.64    0.48
  -1   4  10    1.29    1.06
   4  -3  10    1.77    0.96
   4   0 -10   60.43    3.10
   4   0 -10   66.57    3.61
  -4   4 -10   66.39    3.37
  -4   4 -10   60.93    4.46
   4   0 -10   64.50    3.48
   0  -4 -10   68.38    3.86
  -4   4 -10   62.77    4.07
   0  -4 -10   60.28    4.54
   4   0 -10   65.02    3.02
   0  -4 -10   60.25    4.49
   4  -4  10   63.64    4.72
   0   4  10   59.44    4.73
  -1  -4 -10   32.59    2.70
  -1  -4 -10   30.11    3.33
  -4   5 -10   35.63    2.25
   5  -1 -10   37.15    2.28
  -4   5 -10   30.44    2.99
  -1  -4 -10   30.23    3.22
  -4   5 -10   31.22    2.80
   5  -1 -10   38.27    2.79
   4  -5  10   31.62    3.47
   1   4  10   33.63    3.78
  -4   6 -10    3.50    1.27
  -4   6 -10   -1.71    1.00
  -2  -4 -10    2.04    1.33
  -2  -4 -10    2.22    1.35
  -2  -4 -10    2.21    1.01
   6  -2 -10    2.49    0.87
   6  -2 -10    3.16    1.31
  -4   6 -10    0.96    0.69
   4  -6  10    1.78    1.34
   2   4  10    2.45    1.64
   7  -3 -10    1.20    1.05
  -4   7 -10   -0.18    0.92
   7  -3 -10    1.98    0.90
  -3  -4 -10   -0.12    1.17
  -3  -4 -10    1.53    1.37
  -3  -4 -10    0.99    0.91
  -4   7 -10   -0.89    0.54
   4  -7  10    1.35    1.35
   3   4  10   -0.15    1.46
  -4   8 -10   11.09    2.27
  -4  -4 -10    5.85    2.21
  -4  -4 -10    8.09    2.51
  -4   8 -10    6.11    1.25
   8  -4 -10    9.00    1.79
   8  -4 -10    9.35    2.35
   4  -8  10   12.38    3.49
   4   4  10    5.51    2.58
  -5  -3 -10    1.75    1.59
   8  -5 -10    0.55    1.11
  -5  -3 -10    0.61    1.54
   8  -5 -10    2.00    1.11
  -3   8 -10    3.45    1.27
   3  -8  10   -1.81    1.65
  -2   7 -10   61.80    3.90
   7  -5 -10   63.52    3.98
  -5  -2 -10   59.03    5.31
   7  -5 -10   61.25    4.81
  -5  -2 -10   58.20    5.19
  -5  -2 -10   62.24    4.36
   2  -7  10   66.47    5.72
  -5  -1 -10   10.84    2.51
  -5  -1 -10    8.09    1.74
   6  -5 -10    8.85    2.06
  -1   6 -10   11.35    1.92
  -1   6 -10    9.29    1.43
  -5  -1 -10    9.81    2.55
  -5  -1 -10    8.20    1.10
   6  -5 -10   11.12    1.72
   1  -6  10    9.62    2.62
   0   5 -10  122.29    4.96
   0   5 -10  123.55    6.81
   5  -5 -10  135.29    7.15
   5  -5 -10  124.60    5.95
  -5   0 -10  127.44    6.33
  -5   0 -10  128.04    7.54
  -5   0 -10  132.90    7.81
  -5   0 -10  117.67    5.12
   0   5 -10  117.77    4.50
   0  -5  10  126.12    7.70
   4  -5 -10   11.02    1.68
   4  -5 -10   11.90    2.34
  -5   1 -10    9.48    1.70
  -5   1 -10    8.88    2.13
  -5   1 -10   12.26    2.50
  -1  -4  10   14.96    2.90
   5  -1  10   11.26    1.92
   3  -5 -10  171.83    8.88
  -5   2 -10  185.41    9.54
  -5   2 -10  191.33    7.99
   3  -5 -10  174.00    9.13
   2   3 -10  175.57    6.42
  -5   2 -10  186.93    9.24
   2   3 -10  191.29    7.31
   3  -5 -10  186.48    7.92
   5  -2  10  189.04    8.66
   2  -5 -10   16.12    2.63
   2  -5 -10   17.50    2.80
   3   2 -10   16.10    1.15
  -5   3 -10   17.20    2.85
   3   2 -10   14.35    1.51
  -5   3 -10   15.61    1.95
  -5   3 -10   14.79    2.52
   3   2 -10   19.65    2.40
   2  -5 -10   17.79    2.12
   5  -3  10   17.00    2.68
  -2   5  10   16.03    2.68
  -5   4 -10   31.78    2.44
   1  -5 -10   33.72    3.32
   4   1 -10   36.79    2.13
   1  -5 -10   30.19    3.25
   1  -5 -10   33.03    2.68
  -5   4 -10   36.90    3.27
  -5   4 -10   28.57    3.31
  -1   5  10   33.77    3.59
   5  -4  10   37.63    3.62
   0  -5 -10   11.93    1.90
   5   0 -10   17.56    1.94
   0  -5 -10   15.25    2.62
   0  -5 -10   12.06    2.58
  -5   5 -10   12.17    1.70
  -5   5 -10   13.08    2.31
  -5   5 -10   13.74    2.54
   5   0 -10   19.42    1.63
   5  -5  10   16.38    2.98
   0   5  10   14.26    2.91
  -5   6 -10    5.18    1.57
  -1  -5 -10    3.51    1.21
  -1  -5 -10    1.95    1.35
  -5   6 -10    2.73    0.90
  -1  -5 -10    3.54    1.61
  -5   6 -10    4.54    1.59
   6  -1 -10    3.45    0.95
   5  -6  10    3.27    1.64
   1   5  10    2.78    1.60
  -5   7 -10    2.57    0.88
  -5   7 -10    2.01    1.21
   7  -2 -10    1.73    1.10
  -2  -5 -10    1.05    1.32
   7  -2 -10    1.62    0.89
  -2  -5 -10    1.12    0.81
  -2  -5 -10    0.68    1.29
   5  -7  10    1.65    1.52
   2   5  10    2.14    1.74
  -5   8 -10    1.47    1.36
  -5   8 -10    6.53    1.18
  -3  -5 -10    1.29    1.49
   8  -3 -10    1.54    0.99
  -3  -5 -10    0.89    1.42
   5  -8  10    2.39    1.82
   3   5  10    1.75    1.79
   8  -6 -10   32.40    3.45
  -6  -2 -10   32.59    4.79
  -2   8 -10   41.03    3.42
  -6  -2 -10   30.08    4.62
   8  -6 -10   33.84    3.86
   2  -8  10   36.34    5.54
  -6  -1 -10   -0.53    0.77
   7  -6 -10    0.42    0.84
   7  -6 -10    0.82    1.10
  -6  -1 -10   -0.44    1.27
  -6  -1 -10   -0.16    1.04
  -1   7 -10   -0.15    0.78
   6  -6 -10   39.42    3.07
  -6   0 -10   38.26    4.16
   6  -6 -10   42.21    3.91
  -6   0 -10   37.53    3.24
  -6   0 -10   36.62    2.17
  -6   0 -10   40.92    4.40
   0  -6  10   35.37    4.39
   1   5 -10   10.55    0.96
   5  -6 -10   12.47    2.62
  -6   1 -10   10.26    2.54
  -6   1 -10    9.38    2.46
  -6   1 -10   11.28    1.98
   5  -6 -10   10.40    1.74
   1   5 -10    8.68    1.29
   6  -1  10   10.40    2.16
  -1  -5  10    8.85    2.51
   2   4 -10   95.80    3.86
  -6   2 -10   96.99    6.49
   2   4 -10   92.21    4.49
   2   4 -10  103.76    4.56
   4  -6 -10   98.08    6.28
  -6   2 -10  102.76    6.81
  -6   2 -10  100.02    5.37
   4  -6 -10  105.19    5.33
   6  -2  10  111.90    6.12
  -6   3 -10    4.68    1.61
  -6   3 -10    6.49    1.45
  -6   3 -10    4.46    1.74
   3  -6 -10    7.51    1.97
   3  -6 -10    6.19    1.86
   3   3 -10    4.59    1.30
   3   3 -10    8.15    1.18
   3  -6 -10    7.40    1.51
   6  -3  10    5.83    1.72
   4   2 -10    2.83    1.63
  -6   4 -10    3.68    1.46
  -6   4 -10    2.25    0.94
   2  -6 -10    2.40    1.30
   2  -6 -10    4.74    1.30
   2  -6 -10    3.10    1.44
  -6   4 -10   -0.68    1.23
   4   2 -10    2.20    0.65
  -2   6  10    1.57    1.28
   6  -4  10    2.18    1.32
  -6   5 -10    4.39    1.16
   1  -6 -10    5.10    1.78
   1  -6 -10    3.39    1.47
   1  -6 -10    3.13    1.21
  -6   5 -10    2.39    1.57
   5   1 -10    0.99    1.63
  -6   5 -10    2.78    1.31
  -1   6  10    4.24    1.89
   6  -5  10    2.64    1.49
  -6   6 -10   50.40    4.30
   6   0 -10   45.76    2.98
  -6   6 -10   48.70    4.20
   0  -6 -10   44.34    4.41
   0  -6 -10   50.76    4.17
   0  -6 -10   47.15    3.55
  -6   6 -10   50.21    3.28
   6   0 -10   51.86    3.71
   0   6  10   47.61    4.77
   6  -6  10   53.13    4.91
   7  -1 -10   -0.07    0.65
  -1  -6 -10   -0.19    0.99
  -6   7 -10   -0.21    0.62
  -6   7 -10    0.90    1.21
  -6   7 -10    0.69    0.96
  -1  -6 -10    0.83    1.18
   7  -1 -10    0.45    1.66
   7  -1 -10   -1.14    0.90
   6  -7  10   -0.85    0.92
   1   6  10   -0.53    1.27
  -6   8 -10    1.67    0.92
  -2  -6 -10    2.11    1.58
   8  -2 -10    2.68    1.18
  -2  -6 -10    2.17    1.63
  -6   8 -10    2.38    1.36
   6  -8  10    2.11    1.83
   2   6  10    2.65    1.99
  -7   0 -10    1.64    1.66
  -7   0 -10    2.20    1.71
   0   7 -10   -0.02    0.82
   7  -7 -10    1.36    1.09
   7  -7 -10    1.83    1.39
  -7   0 -10    1.52    1.03
   0  -7  10   -0.76    1.77
   6  -7 -10    0.20    1.10
  -7   1 -10    1.09    1.34
   6  -7 -10    1.19    0.92
  -7   1 -10   -0.25    0.77
  -1  -6  10    3.13    1.71
   5  -7 -10   61.28    5.04
   5  -7 -10   58.48    3.95
  -7   2 -10   61.11    5.27
  -7   2 -10   57.31    4.09
  -7   2 -10   54.58    5.28
   2   5 -10   62.10    3.23
   2   5 -10   55.54    3.45
   7  -2  10   66.25    4.69
   3   4 -10   50.81    2.69
  -7   3 -10   44.68    3.49
  -7   3 -10   44.41    4.44
   4  -7 -10   48.23    4.42
   4  -7 -10   47.43    3.48
  -7   3 -10   65.39    5.19
   3   4 -10   35.38    3.22
   4  -7 -10   45.68    3.97
   7  -3  10   54.42    4.44
   3  -7 -10    0.76    1.02
   4   3 -10    2.16    1.31
  -7   4 -10    0.60    0.79
   3  -7 -10    0.69    1.16
   3  -7 -10    1.23    0.96
  -7   4 -10    0.52    1.07
   4   3 -10    1.32    0.58
   7  -4  10    1.18    1.17
   5   2 -10    2.67    1.72
  -7   5 -10    0.87    1.15
   2  -7 -10    2.14    1.24
   2  -7 -10    1.74    1.06
   2  -7 -10    1.57    1.33
  -7   5 -10    1.19    0.89
   7  -5  10    2.34    1.51
  -2   7  10    1.72    1.42
  -7   6 -10   -0.19    1.28
  -7   6 -10   -1.57    0.73
   6   1 -10   -2.35    1.36
   1  -7 -10   -0.12    0.77
   1  -7 -10    1.24    1.27
  -7   6 -10    0.61    0.77
   7  -6  10    0.36    1.01
  -1   7  10   -0.41    1.05
   7   0 -10    5.92    1.41
   7   0 -10    2.52    2.26
  -7   7 -10    2.55    1.98
  -7   7 -10    6.58    2.13
  -7   7 -10    5.65    1.42
   0  -7 -10    5.29    2.07
   7   0 -10    8.28    1.89
   0   7  10    3.71    2.05
   7  -7  10    5.73    2.29
   6  -8 -10   34.50    3.19
  -8   2 -10   31.96    3.70
  -8   2 -10   36.46    5.22
  -8   2 -10   39.01    4.53
   6  -8 -10   31.12    3.87
  -8   3 -10    1.93    1.61
   3   5 -10    1.13    1.10
   5  -8 -10    3.56    1.33
  -8   3 -10    2.15    1.17
   5  -8 -10    0.84    1.27
   8  -3  10    3.16    1.63
  -8   4 -10    9.68    2.69
   4  -8 -10    9.71    2.19
   4   4 -10    2.31    1.50
   4  -8 -10    5.28    1.97
  -8   4 -10    7.13    1.79
  -8   4 -10    8.91    2.80
   8  -4  10    7.76    2.21
  -8   5 -10    1.51    1.11
   3  -8 -10    2.06    1.59
   5   3 -10   -0.90    1.17
  -8   5 -10    2.52    1.55
  -8   5 -10    0.38    1.80
   8  -5  10    1.91    1.66
  -8   6 -10    4.37    1.96
   2  -8 -10    3.68    1.86
   6   2 -10   -0.09    1.75
  -8   6 -10    2.48    1.09
   8  -6  10    4.92    2.14
   0   0 -11    1.02    0.96
   0   0 -11   -0.74    0.27
   0   0 -11   -0.13    0.36
   0   0 -11    0.29    0.56
   0   1 -11    1.50    0.79
   0   1 -11    1.66    0.62
   0   1 -11    0.79    1.10
   0   1 -11    1.86    0.49
   1  -1 -11    1.84    0.65
  -1   0 -11    1.73    0.63
   0   1 -11    1.95    0.73
  -1   0 -11    1.04    0.55
  -1   0 -11    1.43    0.81
   1  -1 -11    2.33    0.66
   1  -1 -11    0.87    0.67
  -1   0 -11    3.98    1.32
   1  -1 -11    1.92    1.18
   0  -1  11    1.03    0.88
   1   0  11    1.21    0.73
  -1   1 -11    3.51    0.82
   1   0 -11    3.52    0.70
   0  -1 -11    4.63    0.91
  -1   1 -11    2.92    0.95
  -1   1 -11    3.21    0.70
   0  -1 -11    3.29    0.82
  -1   1 -11    4.62    1.60
   1   0 -11    3.26    0.86
   1   0 -11    4.69    0.99
   0  -1 -11    2.70    1.21
   0  -1 -11    3.84    1.10
   1  -1  11    2.98    1.12
  -1   2 -11   38.92    2.05
   2  -1 -11   39.15    2.69
  -1   2 -11   40.39    2.47
   2  -1 -11   34.59    2.23
  -1   2 -11   36.03    3.40
  -1  -1 -11   36.58    3.48
  -1  -1 -11   36.78    2.26
   2  -1 -11   38.73    2.21
  -1  -1 -11   38.59    3.13
  -1  -1 -11   38.00    2.50
   1  -2  11   36.08    3.18
  -1   3 -11   34.19    1.72
  -1   3 -11   34.18    2.07
  -2  -1 -11   32.42    2.43
  -2  -1 -11   29.15    2.92
   3  -2 -11   35.00    2.74
  -2  -1 -11   34.14    3.44
  -1   3 -11   30.17    3.21
  -2  -1 -11   34.34    2.14
   3  -2 -11   33.92    2.19
   1  -3  11   32.85    3.26
   2  -2 -11  200.89    8.78
   0   2 -11  197.73    9.76
  -2   0 -11  186.87    8.06
  -2   0 -11  197.81    9.05
   2  -2 -11  209.37    7.92
   0   2 -11  208.14    7.62
   0   2 -11  198.00    7.79
   2  -2 -11  202.34    7.92
   0   2 -11  215.98    8.10
  -2   0 -11  208.63    7.91
  -2   0 -11  206.83    9.91
   0   2 -11  200.33    7.19
   0  -2  11  201.39    9.54
   2   0  11  191.27    8.34
   1   1 -11   38.94    2.38
   1   1 -11   41.07    1.92
   1  -2 -11   41.42    3.08
  -2   1 -11   34.87    2.32
   1  -2 -11   38.17    3.52
  -2   1 -11   37.07    3.48
   1   1 -11   36.61    2.36
  -2   1 -11   38.50    2.42
   1  -2 -11   37.20    2.32
  -2   1 -11   40.43    2.97
   1   1 -11   39.77    2.28
   1  -2 -11   42.13    2.52
   2  -1  11   41.32    3.08
   2   0 -11    0.05    0.37
   0  -2 -11    0.88    1.02
   0  -2 -11    0.12    0.52
   2   0 -11    0.11    0.48
  -2   2 -11    1.44    0.70
   0  -2 -11   -0.09    0.66
   0  -2 -11    1.25    0.59
  -2   2 -11    0.06    0.98
   2   0 -11   -0.44    0.55
   2  -2  11    0.39    0.75
  -1  -2 -11   15.82    1.60
  -1  -2 -11   14.86    2.43
  -2   3 -11   15.27    2.64
   3  -1 -11   14.97    1.67
  -1  -2 -11   14.24    1.84
  -2   3 -11   15.77    1.63
  -2   3 -11   16.79    1.29
   3  -1 -11   17.05    1.67
  -1  -2 -11   15.10    2.74
   3  -1 -11   14.30    1.47
   2  -3  11   15.27    2.60
  -2  -2 -11   73.32    4.16
   4  -2 -11   70.76    3.61
  -2  -2 -11   70.58    3.44
  -2  -2 -11   72.23    5.02
  -2   4 -11   67.94    3.17
   4  -2 -11   74.19    4.35
  -2  -2 -11   80.02    5.42
  -2   4 -11   69.78    3.74
  -2   4 -11   73.41    4.97
   2  -4  11   73.38    5.21
  -3  -2 -11    4.04    1.69
  -3  -2 -11    3.55    1.59
   5  -3 -11    3.54    1.34
  -2   5 -11    3.08    0.71
   5  -3 -11    2.69    0.86
  -2   5 -11    6.86    1.67
  -2   5 -11    4.25    1.01
  -3  -2 -11    5.38    0.95
  -3  -2 -11    3.78    1.17
   2  -5  11    3.01    1.49
  -3  -1 -11   50.80    4.27
   4  -3 -11   51.70    3.08
  -3  -1 -11   53.37    3.44
  -1   4 -11   51.98    2.27
  -3  -1 -11   51.28    2.80
  -3  -1 -11   52.31    4.49
  -1   4 -11   52.51    2.66
  -1   4 -11   59.59    4.35
   4  -3 -11   54.03    3.81
   1  -4  11   57.25    4.60
   0   3 -11    2.62    1.17
   3  -3 -11    1.05    1.04
  -3   0 -11    1.41    1.05
  -3   0 -11    2.62    0.89
   3  -3 -11    2.66    0.84
  -3   0 -11    2.48    1.13
  -3   0 -11    1.77    0.67
   0   3 -11    1.75    0.44
   3   0  11    2.20    0.80
   0  -3  11    2.33    1.21
   1   2 -11   31.96    1.81
  -3   1 -11   34.36    3.36
   1   2 -11   36.82    2.30
  -3   1 -11   32.86    2.37
   2  -3 -11   34.76    3.46
   1   2 -11   33.38    1.47
   2  -3 -11   31.42    2.30
   2  -3 -11   31.35    2.87
   1   2 -11   32.35    1.70
  -3   1 -11   36.25    3.08
   3  -1  11   32.35    2.71
  -1  -2  11   31.28    3.26
   1  -3 -11   18.87    2.66
   1  -3 -11   16.20    1.87
  -3   2 -11   13.87    1.66
   1  -3 -11   16.91    2.83
   2   1 -11   17.18    1.12
  -3   2 -11   18.25    2.09
   2   1 -11   15.74    1.71
   2   1 -11   16.78    1.35
  -3   2 -11   19.88    3.10
   3  -2  11   16.14    2.44
  -3   3 -11    0.01    0.41
   3   0 -11   -0.49    0.45
   0  -3 -11    0.23    0.75
  -3   3 -11    0.32    0.55
  -3   3 -11   -0.46    0.94
   0  -3 -11   -0.83    0.48
   3   0 -11    0.16    0.46
   0  -3 -11   -0.32    0.64
   3  -3  11    0.00    0.70
  -3   4 -11   11.37    2.17
   4  -1 -11    3.61    0.91
   4  -1 -11    8.99    1.56
  -3   4 -11    7.93    1.13
  -1  -3 -11    6.06    1.89
  -3   4 -11    8.74    1.56
  -1  -3 -11    6.37    1.71
  -1  -3 -11    7.80    1.51
   3  -4  11    7.71    1.97
  -2  -3 -11   21.29    2.48
  -3   5 -11   23.91    2.21
  -2  -3 -11   21.89    3.23
  -3   5 -11   20.80    2.64
   5  -2 -11   24.63    2.54
   5  -2 -11   25.25    1.96
  -3   5 -11   29.95    1.85
  -2  -3 -11   17.34    3.04
   3  -5  11   23.15    3.57
   6  -3 -11   24.06    2.44
  -3  -3 -11   21.13    3.40
  -3   6 -11   16.86    1.57
  -3  -3 -11   23.38    2.89
   6  -3 -11   21.54    2.99
  -3   6 -11   21.20    3.01
  -3   6 -11   21.54    2.19
  -3  -3 -11   19.38    3.44
   3  -6  11   21.24    3.72
  -4  -3 -11   23.29    3.87
   7  -4 -11   28.07    3.11
  -3   7 -11   31.67    2.80
   7  -4 -11   28.89    2.60
  -4  -3 -11   33.78    3.66
  -4  -3 -11   28.29    4.24
  -3   7 -11   28.61    2.08
   3  -7  11   33.17    4.27
  -2   6 -11    4.35    1.13
  -4  -2 -11    4.01    1.37
  -4  -2 -11    3.59    1.84
  -2   6 -11    6.33    0.83
   6  -4 -11    3.92    1.10
   6  -4 -11    6.47    1.63
  -4  -2 -11    5.06    1.93
  -4  -2 -11    4.84    0.94
   2  -6  11    4.24    1.92
  -1   5 -11  102.63    4.47
  -4  -1 -11  105.81    6.74
  -4  -1 -11  115.65    5.74
   5  -4 -11   97.15    5.92
   5  -4 -11  110.40    5.23
  -1   5 -11  102.75    6.14
  -4  -1 -11  101.94    4.55
  -4  -1 -11  105.52    6.86
  -1   5 -11  103.33    4.01
   1  -5  11  106.33    6.97
  -4   0 -11   11.73    2.49
  -4   0 -11   12.82    1.48
  -4   0 -11   12.84    1.98
   4  -4 -11   15.36    2.44
   4  -4 -11   13.92    1.80
   0   4 -11   13.33    2.52
  -4   0 -11   13.99    2.52
   0  -4  11    9.77    2.30
  -4   1 -11   55.86    4.60
  -4   1 -11   55.91    4.24
   3  -4 -11   51.22    3.96
   1   3 -11   56.72    3.07
  -4   1 -11   55.12    3.42
   3  -4 -11   52.94    3.27
  -1  -3  11   53.54    4.48
   4  -1  11   49.96    3.51
   2   2 -11   81.86    3.75
   2   2 -11   72.76    3.20
   2  -4 -11   72.06    4.03
   2  -4 -11   76.34    5.27
   2   2 -11   72.62    2.87
  -4   2 -11   79.07    5.43
   2  -4 -11   73.01    4.89
  -4   2 -11   69.08    4.73
  -4   2 -11   67.99    3.91
   4  -2  11   76.31    4.73
  -4   3 -11    6.95    1.22
   3   1 -11    6.69    0.88
   3   1 -11    9.14    1.06
   1  -4 -11    7.48    1.84
  -4   3 -11    6.36    1.83
   3   1 -11    7.67    0.95
   1  -4 -11    7.44    1.41
   3   1 -11    7.81    1.15
   1  -4 -11    6.50    1.93
  -4   3 -11    7.19    1.66
   4  -3  11    6.47    1.72
   4   0 -11   10.23    1.31
  -4   4 -11    9.74    1.41
  -4   4 -11   11.05    1.96
  -4   4 -11    4.24    1.73
   4   0 -11   10.43    1.24
   0  -4 -11    9.46    2.18
   0  -4 -11    9.59    1.66
   0  -4 -11   11.29    2.36
   4   0 -11    8.24    1.46
   4  -4  11   10.31    2.31
  -4   5 -11    1.24    0.93
  -4   5 -11    0.89    1.18
  -1  -4 -11    0.96    1.11
  -1  -4 -11    2.50    1.07
   5  -1 -11    3.73    1.09
  -1  -4 -11    1.60    1.20
   4  -5  11    1.05    1.09
  -2  -4 -11   30.74    3.62
  -4   6 -11   32.47    2.18
   6  -2 -11   29.52    2.92
  -2  -4 -11   31.21    3.57
  -2  -4 -11   35.21    2.98
   6  -2 -11   34.55    2.46
  -4   6 -11   27.01    2.74
  -4   6 -11   25.02    2.94
   4  -6  11   28.13    3.69
  -3  -4 -11    4.08    1.84
  -3  -4 -11    3.49    1.29
  -4   7 -11    4.16    1.04
  -4   7 -11    4.53    1.46
  -3  -4 -11    3.06    1.57
   7  -3 -11    6.87    1.87
   7  -3 -11    4.49    1.24
   4  -7  11    4.02    1.99
   7  -5 -11    5.43    1.82
  -5  -2 -11    4.72    2.17
  -5  -2 -11    4.06    1.87
  -5  -2 -11    3.76    1.44
  -2   7 -11    5.14    1.17
   7  -5 -11    4.02    1.28
   2  -7  11    4.14    2.13
  -5  -1 -11   20.55    2.70
   6  -5 -11   18.26    2.93
  -1   6 -11   27.79    1.94
  -5  -1 -11   19.95    1.59
   6  -5 -11   21.96    2.57
  -5  -1 -11   22.25    3.66
  -5  -1 -11   21.09    3.69
  -1   6 -11   21.82    2.50
   1  -6  11   22.83    3.86
  -5   0 -11    7.62    2.26
  -5   0 -11   10.70    2.47
   0   5 -11   11.37    0.96
  -5   0 -11   10.97    1.99
  -5   0 -11    9.10    1.22
   5  -5 -11    7.83    2.00
   5  -5 -11    7.49    1.50
   0   5 -11   11.89    2.21
   0  -5  11    9.36    2.56
   4  -5 -11  104.52    6.37
  -5   1 -11  107.16    4.79
  -5   1 -11  109.85    6.75
   4  -5 -11  102.31    5.31
  -5   1 -11   98.12    6.78
  -5   1 -11   98.21    5.46
   5  -1  11  110.89    5.73
  -1  -4  11  112.20    7.15
   2   3 -11    3.49    0.84
   3  -5 -11    4.29    1.19
  -5   2 -11    5.17    1.29
  -5   2 -11    2.74    1.48
  -5   2 -11    1.90    1.22
   3  -5 -11    4.74    1.55
   3  -5 -11    4.03    1.63
   2   3 -11    1.79    0.85
   5  -2  11    4.12    1.39
   2  -5 -11   20.39    2.45
   3   2 -11   25.20    1.46
   2  -5 -11   25.28    3.04
  -5   3 -11   21.70    2.40
   2  -5 -11   23.82    2.90
  -5   3 -11   26.87    2.94
   3   2 -11   25.16    1.84
  -5   3 -11   20.62    3.39
   5  -3  11   26.75    2.95
   4   1 -11    1.42    0.70
  -5   4 -11    1.54    1.30
  -5   4 -11    1.85    0.79
   4   1 -11    2.24    0.72
   4   1 -11   -1.12    0.99
   4   1 -11    4.26    0.74
   1  -5 -11    1.34    1.21
   1  -5 -11    2.23    0.99
   1  -5 -11    2.06    1.25
  -5   4 -11    1.28    0.92
   5  -4  11    2.69    1.36
  -5   5 -11   13.18    1.79
   5   0 -11   15.96    2.17
  -5   5 -11   15.80    2.85
   5   0 -11   17.50    1.52
   0  -5 -11   14.31    2.21
  -5   5 -11   14.62    2.52
   0  -5 -11   13.80    2.77
   0  -5 -11   15.39    2.74
   5  -5  11   15.57    3.00
   6  -1 -11   13.33    2.13
  -5   6 -11   10.21    2.11
  -1  -5 -11   12.43    2.69
  -1  -5 -11    9.48    1.89
  -5   6 -11   13.71    2.50
  -5   6 -11    5.48    1.37
  -1  -5 -11   10.93    2.64
   6  -1 -11   12.13    1.61
   5  -6  11    9.70    2.66
  -5   7 -11    5.15    1.60
  -2  -5 -11    2.72    1.14
  -2  -5 -11    2.58    1.72
   7  -2 -11    5.31    1.27
  -2  -5 -11    3.35    1.70
  -5   7 -11    6.43    1.24
   7  -2 -11    5.23    1.75
   5  -7  11    3.25    1.95
   7  -6 -11    2.02    1.11
  -6  -1 -11    1.33    1.65
   7  -6 -11    0.56    1.26
  -6  -1 -11    1.95    1.22
  -1   7 -11    1.88    1.00
  -6  -1 -11    1.61    1.47
   1  -7  11    3.15    2.15
   0   6 -11   55.97    2.96
  -6   0 -11   59.87    5.44
  -6   0 -11   53.25    2.90
  -6   0 -11   53.99    4.00
   6  -6 -11   57.29    3.87
   6  -6 -11   55.71    4.72
  -6   0 -11   60.48    5.31
   0  -6  11   54.32    5.23
   1   5 -11   19.21    1.45
   5  -6 -11   18.17    3.08
   5  -6 -11   19.84    2.49
  -6   1 -11   20.49    1.68
  -6   1 -11   24.32    2.88
  -6   1 -11   21.50    3.59
  -1  -5  11   21.05    3.71
   4  -6 -11    3.22    1.17
   4  -6 -11    3.50    1.54
  -6   2 -11    3.12    1.65
   4  -6 -11    4.53    1.75
   2   4 -11    3.69    0.97
  -6   2 -11    6.15    1.95
  -6   2 -11    4.60    1.31
   2   4 -11    4.18    0.95
   6  -2  11    4.17    1.49
   3  -6 -11   20.57    3.28
  -6   3 -11   18.39    3.38
   3  -6 -11   21.81    2.60
  -6   3 -11   19.86    3.27
  -6   3 -11   23.81    2.70
   3  -6 -11   21.79    3.32
   3   3 -11   23.83    1.82
   6  -3  11   20.39    3.14
   2  -6 -11   30.22    3.48
  -6   4 -11   31.18    3.44
  -6   4 -11   29.29    2.56
   2  -6 -11   29.88    3.27
   2  -6 -11   32.84    2.88
   4   2 -11   28.66    1.99
   6  -4  11   31.08    3.55
   1  -6 -11    9.43    2.25
  -6   5 -11   15.29    2.78
  -6   5 -11    8.61    2.09
   5   1 -11   12.09    1.41
   1  -6 -11    6.42    1.62
   1  -6 -11    8.77    2.35
   5   1 -11    6.72    1.52
  -6   5 -11    6.48    1.40
   6  -5  11   14.40    2.95
   6   0 -11   18.15    2.04
  -6   6 -11   22.21    3.31
  -6   6 -11   33.39    3.63
   0  -6 -11   21.04    2.73
  -6   6 -11   21.00    2.49
   0  -6 -11   19.21    3.48
   6   0 -11   26.40    2.67
   0  -6 -11   20.19    3.24
   6  -6  11   19.35    3.54
  -6   7 -11   21.09    3.29
  -1  -6 -11   16.35    3.12
  -6   7 -11   16.49    2.24
   7  -1 -11   15.82    2.64
  -6   7 -11   21.51    3.34
   7  -1 -11   17.98    2.21
  -1  -6 -11   17.47    3.40
   6  -7  11   19.25    3.85
   6  -7 -11    1.66    1.05
   6  -7 -11    3.31    1.68
  -7   1 -11    2.31    1.26
  -7   1 -11   -0.23    1.96
  -7   1 -11    1.70    1.48
  -1  -6  11    2.22    1.93
  -7   2 -11    3.54    1.32
   2   5 -11    2.66    0.96
   2   5 -11    4.72    1.02
   5  -7 -11    2.93    1.57
  -7   2 -11    7.06    2.19
  -7   2 -11    3.55    1.79
   5  -7 -11    3.41    1.28
   4  -7 -11   31.99    3.71
   3   4 -11   33.63    2.19
   4  -7 -11   24.46    3.14
  -7   3 -11   32.92    2.99
   4  -7 -11   28.28    3.16
  -7   3 -11   35.34    4.02
  -7   3 -11   34.73    4.16
   7  -3  11   30.71    3.46
  -7   4 -11    4.55    2.37
   4   3 -11    2.81    1.54
   3  -7 -11    4.85    1.40
   3  -7 -11    3.69    1.65
   3  -7 -11    3.37    1.67
  -7   4 -11    4.30    1.36
  -7   4 -11    4.17    1.74
   7  -4  11    4.47    1.82
  -7   5 -11    4.57    1.83
   2  -7 -11    4.82    1.48
   2  -7 -11    3.37    1.68
   2  -7 -11    2.55    1.42
  -7   5 -11    2.57    1.07
  -7   5 -11    4.89    2.16
   5   2 -11    0.30    1.55
   7  -5  11    5.36    2.11
  -7   6 -11   18.62    2.51
  -7   6 -11   19.48    3.34
   1  -7 -11   13.38    3.04
  -7   6 -11   14.51    3.09
   1  -7 -11   20.44    3.20
   7  -6  11   16.83    3.47
   0   0 -12   19.38    3.19
   0   0 -12   17.81    1.53
   0   0 -12   20.65    1.69
   0   0 -12   19.52    1.99
  -1   0 -12    1.83    1.16
   0   1 -12    2.07    0.54
  -1   0 -12    0.05    0.46
  -1   0 -12    0.19    0.68
   1  -1 -12    0.53    1.02
   1  -1 -12    0.78    0.71
   1  -1 -12    1.29    0.68
   0   1 -12    3.79    1.47
  -1   0 -12    1.97    0.73
   1  -1 -12    2.02    0.63
   0   1 -12    2.01    0.77
   0   1 -12    0.66    0.59
   1   0  12    0.92    0.79
   0  -1  12    0.59    0.88
   1   0 -12   80.09    3.90
   0  -1 -12   79.61    4.65
   1   0 -12   75.95    4.08
   1   0 -12   80.43    5.58
   0  -1 -12   78.38    3.81
  -1   1 -12   76.30    4.30
   1   0 -12   78.87    3.55
   0  -1 -12   76.28    3.87
   0  -1 -12   77.42    5.49
  -1   1 -12   77.48    3.65
  -1   1 -12   82.38    3.98
  -1   1 -12   74.97    5.44
   1  -1  12   72.89    4.68
  -1  -1 -12  144.25    8.05
  -1  -1 -12  142.67    5.99
   2  -1 -12  145.37    6.04
  -1   2 -12  146.58    6.20
  -1  -1 -12  133.20    7.12
  -1   2 -12  137.63    5.62
  -1   2 -12  140.73    6.22
  -1  -1 -12  139.35    6.24
   2  -1 -12  140.68    6.58
  -1   2 -12  151.72    8.12
   2  -1 -12  138.76    5.81
   1  -2  12  144.68    7.54
  -2  -1 -12  138.94    8.04
   3  -2 -12  146.07    6.91
  -2  -1 -12  143.17    6.49
  -2  -1 -12  138.55    7.47
  -1   3 -12  138.65    7.86
  -1   3 -12  142.96    5.42
  -1   3 -12  140.09    5.93
  -2  -1 -12  140.30    5.95
   3  -2 -12  137.56    5.99
   1  -3  12  141.25    7.78
   0   2 -12   85.94    5.88
   2  -2 -12   86.49    4.24
   2  -2 -12   94.55    4.29
  -2   0 -12   84.50    4.19
   0   2 -12   94.69    4.42
   0   2 -12   89.60    3.62
  -2   0 -12   87.49    4.45
   2  -2 -12   87.60    4.98
   0   2 -12   88.25    4.06
  -2   0 -12   91.32    5.35
  -2   0 -12   92.75    6.01
   0  -2  12   83.21    5.56
   2   0  12   88.91    4.73
   1   1 -12  140.06    5.34
  -2   1 -12  136.42    7.78
  -2   1 -12  132.48    5.94
  -2   1 -12  143.92    6.88
   1   1 -12  145.36    6.06
   1  -2 -12  137.81    6.94
   1  -2 -12  133.38    5.87
  -2   1 -12  146.43    6.08
   1  -2 -12  138.47    6.08
   1   1 -12  141.91    5.87
   1  -2 -12  135.99    7.86
   2  -1  12  133.74    6.81
   0  -2 -12   85.87    5.28
   0  -2 -12   88.32    6.02
  -2   2 -12   84.94    4.04
   0  -2 -12   86.97    4.13
  -2   2 -12   93.45    4.84
  -2   2 -12   80.99    5.73
   2   0 -12   92.56    4.24
   0  -2 -12   88.43    4.47
   2   0 -12   85.14    3.78
   2   0 -12   89.31    4.40
   2  -2  12   82.58    5.29
   3  -1 -12   87.40    4.07
  -1  -2 -12   86.19    5.98
  -2   3 -12   92.99    4.02
  -1  -2 -12   93.95    4.23
  -2   3 -12   89.12    5.91
   3  -1 -12   87.95    4.72
   3  -1 -12   89.97    4.25
  -1  -2 -12   91.66    5.67
  -2   3 -12   85.84    4.59
  -1  -2 -12   87.72    4.65
   2  -3  12   91.12    5.83
  -2   4 -12   11.98    2.50
  -2  -2 -12   11.55    1.42
   4  -2 -12   12.25    1.56
  -2  -2 -12   11.96    1.86
  -2   4 -12   12.31    1.14
  -2  -2 -12   11.86    2.54
  -2   4 -12   12.82    1.71
  -2  -2 -12   11.69    2.35
   4  -2 -12   12.95    2.01
   2  -4  12   11.48    2.60
  -3  -2 -12   45.71    4.34
   5  -3 -12   47.29    3.71
  -3  -2 -12   44.13    2.61
  -3  -2 -12   44.24    3.38
  -2   5 -12   47.36    2.37
  -2   5 -12   46.31    2.90
  -2   5 -12   54.31    4.19
  -3  -2 -12   40.93    4.23
   5  -3 -12   44.03    2.93
   2  -5  12   43.07    4.40
  -3  -1 -12    9.94    1.71
   4  -3 -12   12.19    2.05
  -1   4 -12    9.99    2.30
  -1   4 -12   10.91    1.17
  -3  -1 -12    9.75    2.40
  -3  -1 -12   10.48    1.36
  -1   4 -12   10.68    0.89
   4  -3 -12   10.39    1.54
  -3  -1 -12   11.55    2.43
   1  -4  12   10.55    2.44
  -3   0 -12    1.40    1.09
   0   3 -12    2.73    0.58
  -3   0 -12    1.55    1.21
  -3   0 -12    2.94    0.84
   3  -3 -12    2.07    0.83
   3  -3 -12    1.94    1.07
   0   3 -12    0.25    1.14
  -3   0 -12    3.23    1.03
   3   0  12    2.30    0.86
   0  -3  12    3.03    1.46
   1   2 -12  142.50    5.60
   2  -3 -12  147.65    6.40
  -3   1 -12  141.82    7.39
  -3   1 -12  138.88    6.13
  -3   1 -12  143.86    6.42
  -3   1 -12  143.62    8.11
   2  -3 -12  137.28    8.15
   1   2 -12  140.86    5.20
   1   2 -12  153.90    6.26
   2  -3 -12  142.92    7.34
   3  -1  12  142.37    6.94
   1  -3 -12   91.05    6.10
   2   1 -12   93.48    4.37
  -3   2 -12   94.63    5.33
   2   1 -12   86.33    3.65
  -3   2 -12   83.76    5.84
   1  -3 -12   87.20    4.62
   1  -3 -12   90.15    5.49
   2   1 -12   94.46    4.15
  -3   2 -12   90.68    4.41
   3  -2  12   85.61    5.33
  -3   3 -12    9.36    1.72
   3   0 -12    9.44    1.18
   0  -3 -12    7.05    2.01
   0  -3 -12    8.95    2.04
   3   0 -12    9.16    1.32
  -3   3 -12    8.07    2.22
   0  -3 -12    8.02    1.47
   3   0 -12    8.94    1.42
  -3   3 -12    8.18    1.21
   3  -3  12    8.32    1.96
  -3   4 -12   16.39    2.80
  -1  -3 -12   17.58    2.27
  -1  -3 -12   14.57    2.80
  -3   4 -12   15.57    1.65
  -3   4 -12   12.70    1.99
  -1  -3 -12   11.52    2.35
   4  -1 -12   13.44    2.00
   4  -1 -12   14.72    1.60
   3  -4  12   12.69    2.54
  -2  -3 -12   44.26    4.31
  -3   5 -12   50.48    2.64
  -3   5 -12   43.90    3.17
  -2  -3 -12   46.40    4.28
  -2  -3 -12   42.03    3.33
   5  -2 -12   42.94    2.80
  -3   5 -12   42.49    3.92
   5  -2 -12   48.04    3.49
   3  -5  12   44.83    4.40
   6  -3 -12   -0.23    0.59
  -3  -3 -12   -0.09    1.08
   6  -3 -12    0.37    0.85
  -3  -3 -12    0.20    1.04
  -3  -3 -12    0.13    0.83
  -3   6 -12   -0.32    0.67
  -3   6 -12    1.10    0.98
  -3   6 -12   -1.28    0.53
   3  -6  12    1.25    1.31
   7  -4 -12    7.46    2.03
  -4  -3 -12    3.67    1.41
  -3   7 -12    6.55    1.55
  -3   7 -12    6.65    1.07
  -4  -3 -12    5.77    2.42
   7  -4 -12    4.20    1.32
  -4  -3 -12    4.85    2.06
   3  -7  12    6.24    2.45
   6  -4 -12   13.75    2.50
   6  -4 -12   13.62    1.96
  -2   6 -12   14.38    1.92
  -4  -2 -12   17.50    3.41
  -4  -2 -12   13.28    3.09
  -2   6 -12   12.51    1.32
  -4  -2 -12   14.73    2.38
  -4  -2 -12   12.90    1.51
   2  -6  12   14.44    3.14
  -1   5 -12    2.58    1.35
  -1   5 -12    2.78    0.68
  -4  -1 -12    1.83    1.02
  -4  -1 -12    1.61    0.66
   5  -4 -12    2.19    0.90
   5  -4 -12    1.83    0.92
  -4  -1 -12    0.27    1.04
  -4  -1 -12    1.06    1.31
   1  -5  12    0.23    0.97
  -4   0 -12    2.61    1.60
   4  -4 -12    2.74    1.21
   4  -4 -12    0.72    0.70
  -4   0 -12    1.39    0.70
   0   4 -12    7.06    1.74
  -4   0 -12    1.37    0.86
  -4   0 -12    1.36    1.23
   0  -4  12    1.99    1.32
   3  -4 -12   10.21    2.10
  -4   1 -12    9.10    2.45
   1   3 -12   12.73    1.65
  -4   1 -12   14.00    1.99
  -4   1 -12   12.37    1.59
   3  -4 -12   10.62    1.65
  -4   1 -12   10.21    2.22
  -1  -3  12   11.54    2.52
   4  -1  12   12.36    2.02
   2  -4 -12   14.92    2.56
   2   2 -12   14.65    1.66
   2   2 -12   13.47    1.19
  -4   2 -12    9.75    1.63
   2   2 -12   14.35    0.92
   2  -4 -12   12.21    2.54
  -4   2 -12   11.72    2.24
   2  -4 -12   11.22    1.80
  -4   2 -12   12.65    2.72
   4  -2  12   12.39    2.21
   3   1 -12   15.37    1.67
  -4   3 -12   14.79    2.34
   1  -4 -12   11.99    1.87
  -4   3 -12   13.40    2.85
   3   1 -12   13.75    1.15
  -4   3 -12   12.30    1.70
   1  -4 -12   13.44    2.50
   1  -4 -12   14.49    2.86
   3   1 -12   15.37    1.49
   4  -3  12   15.47    2.63
  -4   4 -12    1.55    0.91
   0  -4 -12    0.05    0.89
   4   0 -12    0.59    0.64
  -4   4 -12   -1.62    0.79
   4   0 -12   -0.17    0.55
   0  -4 -12    0.29    0.73
   0  -4 -12   -0.60    0.74
   4   0 -12    0.96    0.59
   4  -4  12    0.28    0.84
  -1  -4 -12    0.20    0.93
  -4   5 -12    0.74    0.87
  -4   5 -12    1.53    1.23
   5  -1 -12    1.61    0.73
  -1  -4 -12    0.51    1.19
  -1  -4 -12   -0.34    0.69
  -4   5 -12    1.12    0.52
   5  -1 -12   -0.58    0.49
   4  -5  12    0.54    1.05
  -2  -4 -12   34.42    3.88
   6  -2 -12   35.75    2.58
  -4   6 -12   32.04    2.36
  -4   6 -12   33.04    3.39
  -2  -4 -12   27.43    4.09
   6  -2 -12   33.26    3.10
  -2  -4 -12   27.55    3.19
  -4   6 -12   29.83    2.89
   4  -6  12   36.08    4.19
  -4   7 -12   11.65    2.11
   7  -3 -12    8.58    1.64
  -3  -4 -12    6.87    2.28
  -4   7 -12    3.71    1.04
  -3  -4 -12    7.86    1.79
  -3  -4 -12    8.34    2.57
   7  -3 -12   15.41    2.65
   4  -7  12    9.95    3.02
  -5  -2 -12    8.61    1.94
  -5  -2 -12    6.47    2.39
   7  -5 -12    9.89    1.87
   7  -5 -12    8.04    2.24
  -5  -2 -12    6.88    2.40
  -2   7 -12    8.13    1.59
   2  -7  12   12.89    3.53
  -5  -1 -12   14.21    2.32
  -1   6 -12   22.52    1.65
  -1   6 -12   16.99    2.96
  -5  -1 -12   19.06    3.64
   6  -5 -12   18.14    2.99
   6  -5 -12   15.80    2.21
  -5  -1 -12   16.98    3.31
  -5  -1 -12   17.62    1.53
   1  -6  12   16.12    3.43
  -5   0 -12    8.52    2.55
  -5   0 -12    9.42    1.28
   5  -5 -12    9.63    2.19
   5  -5 -12    7.69    1.57
  -5   0 -12    7.08    1.65
   0   5 -12    3.25    1.66
  -5   0 -12    4.87    1.84
   0  -5  12   10.51    2.80
  -5   1 -12    2.74    1.34
   1   4 -12    0.95    0.64
  -5   1 -12    1.79    1.03
  -5   1 -12    2.31    0.75
   4  -5 -12    0.59    1.02
  -5   1 -12    1.51    1.41
   4  -5 -12    0.63    0.77
  -1  -4  12    1.55    1.41
   3  -5 -12   46.61    4.28
   3  -5 -12   37.57    3.73
  -5   2 -12   43.42    4.27
   2   3 -12   43.35    2.03
  -5   2 -12   39.42    3.80
   3  -5 -12   43.90    3.19
   2   3 -12   44.40    2.72
  -5   2 -12   40.80    3.10
   5  -2  12   42.99    3.58
   3   2 -12   48.64    2.78
  -5   3 -12   39.13    2.97
   3   2 -12   40.09    2.52
  -5   3 -12   47.28    4.00
   2  -5 -12   47.91    4.32
   2  -5 -12   43.51    4.06
  -5   3 -12   44.14    4.22
   2  -5 -12   43.89    3.28
   3   2 -12   45.88    2.16
   5  -3  12   47.68    4.03
   1  -5 -12   -0.27    0.90
   1  -5 -12    0.34    1.00
  -5   4 -12   -1.04    0.86
   4   1 -12    0.29    0.52
  -5   4 -12    0.15    0.87
   1  -5 -12    1.12    0.89
   4   1 -12    0.59    0.51
  -5   4 -12    0.63    0.63
   5  -4  12    1.42    1.11
   0  -5 -12    0.96    1.18
  -5   5 -12    0.47    0.62
   5   0 -12    0.82    0.63
   5   0 -12    0.45    0.86
   0  -5 -12    0.26    0.83
   0  -5 -12    0.95    1.27
  -5   5 -12    0.87    0.94
   5  -5  12    1.48    1.30
  -5   6 -12    1.56    1.00
   6  -1 -12    1.00    0.86
  -1  -5 -12    0.40    1.04
  -1  -5 -12    0.62    0.87
  -1  -5 -12    1.02    1.28
  -5   6 -12   -0.81    1.19
   5  -6  12   -0.24    1.17
  -5   7 -12    5.99    1.09
  -2  -5 -12    1.57    1.57
  -2  -5 -12    3.57    1.82
  -5   7 -12    0.98    1.28
   7  -2 -12    2.38    1.15
   7  -2 -12    2.24    1.03
  -2  -5 -12    5.13    1.55
   5  -7  12    2.39    1.91
   6  -6 -12    6.91    1.64
   0   6 -12    6.57    1.04
   6  -6 -12    7.27    2.18
  -6   0 -12    6.78    2.33
  -6   0 -12    6.64    1.12
  -6   0 -12    5.47    2.26
  -6   0 -12    6.87    1.73
   0  -6  12    6.32    2.42
  -6   1 -12   16.82    3.31
   5  -6 -12   17.52    3.18
  -6   1 -12   14.02    2.29
  -6   1 -12   14.62    1.73
  -6   1 -12   18.59    3.62
   5  -6 -12   19.84    2.55
  -1  -5  12   16.88    3.50
   4  -6 -12   12.73    2.88
   4  -6 -12   13.61    2.16
   4  -6 -12   12.49    2.70
  -6   2 -12   14.57    2.20
   2   4 -12   15.47    1.80
  -6   2 -12   16.02    3.29
  -6   2 -12   10.20    2.48
   3  -6 -12    0.07    0.80
   3  -6 -12    0.24    0.99
   3   3 -12    0.47    0.58
  -6   3 -12    0.19    0.96
  -6   3 -12   -0.66    1.18
   3  -6 -12    0.42    1.09
   3   3 -12    0.41    1.07
  -6   3 -12    0.30    0.78
   6  -3  12    0.23    0.88
   4   2 -12   31.08    2.41
   2  -6 -12   39.73    4.04
  -6   4 -12   34.37    2.84
   4   2 -12   33.14    2.24
  -6   4 -12   32.68    3.62
   2  -6 -12   32.30    3.43
   2  -6 -12   32.81    3.60
   4   2 -12   32.04    2.02
  -6   4 -12   27.57    4.23
   6  -4  12   36.26    3.79
  -6   5 -12    2.31    1.62
  -6   5 -12    0.19    1.10
   5   1 -12    2.35    1.04
   1  -6 -12    0.85    0.94
  -6   5 -12    0.69    0.75
   1  -6 -12    1.60    1.35
   1  -6 -12    2.21    1.54
   5   1 -12   -0.11    0.66
   6  -5  12    0.23    1.01
   6   0 -12   12.12    2.23
   0  -6 -12   13.12    2.85
  -6   6 -12    5.87    2.67
   6   0 -12   10.04    1.66
  -6   6 -12   11.86    2.68
   0  -6 -12   13.86    3.11
   0  -6 -12   11.26    2.10
  -6   6 -12   12.61    1.92
   6  -6  12   16.28    3.44
  -7   2 -12   10.97    2.20
  -7   2 -12    7.98    2.50
  -7   2 -12   11.65    2.94
   2   5 -12    9.38    1.43
   5  -7 -12    6.81    1.76
   5  -7 -12    9.03    2.51
   5  -7 -12    8.05    2.31
   4  -7 -12    4.44    1.43
   3   4 -12    6.99    1.24
   4  -7 -12    4.06    1.85
  -7   3 -12    4.78    1.99
  -7   3 -12   -0.16    1.70
   3   4 -12    1.82    1.14
  -7   3 -12    5.09    1.46
   4  -7 -12    2.82    1.63
   7  -3  12    5.10    1.80
  -7   4 -12    9.60    2.45
   3  -7 -12    5.83    1.61
   3  -7 -12    8.50    2.30
  -7   4 -12    8.71    2.87
   3  -7 -12    8.42    2.38
  -7   4 -12    7.97    1.74
   7  -4  12    9.88    2.57
   5   2 -12    3.58    1.85
   2  -7 -12    2.55    1.75
  -7   5 -12    2.30    1.14
  -7   5 -12    1.26    2.00
   2  -7 -12    1.93    1.21
   2  -7 -12    2.76    1.54
  -7   5 -12    5.16    1.97
   7  -5  12    3.02    1.64
   0   0 -13    1.02    0.75
   0   0 -13   -0.71    0.37
   0   0 -13   -0.56    0.46
   0   0 -13    2.04    1.11
   0   1 -13   15.06    3.07
   1  -1 -13   28.45    2.57
   0   1 -13   25.51    1.79
  -1   0 -13   27.46    2.66
   1  -1 -13   32.65    2.19
  -1   0 -13   29.40    2.18
  -1   0 -13   25.34    3.77
   1  -1 -13   26.75    3.30
   0   1 -13   30.41    2.18
   1  -1 -13   28.01    2.09
  -1   0 -13   24.68    2.03
   0   1 -13   27.21    2.24
   1   0 -13   22.77    1.69
   0  -1 -13   25.21    3.21
   0  -1 -13   19.22    1.99
  -1   1 -13   24.07    2.00
   0  -1 -13   22.81    1.98
   1   0 -13   21.98    2.13
   0  -1 -13   25.46    2.60
   1   0 -13   26.55    3.33
  -1   1 -13   24.86    2.35
  -1   1 -13   23.02    1.77
  -1   1 -13   28.41    3.37
   1   0 -13   24.81    1.96
   1  -1  13   24.91    2.70
  -1  -1 -13    4.94    1.20
  -1   2 -13    2.99    1.59
  -1   2 -13    8.86    1.39
   2  -1 -13    8.34    1.59
  -1   2 -13    5.99    1.26
   2  -1 -13    7.53    1.30
   2  -1 -13    6.88    1.11
  -1  -1 -13    5.26    1.07
  -1  -1 -13    3.90    1.38
  -1  -1 -13    6.66    2.01
  -1   2 -13    7.77    1.04
   1  -2  13    6.29    1.87
  -2  -1 -13   46.73    3.25
  -2  -1 -13   47.99    4.52
  -2  -1 -13   44.26    3.92
  -1   3 -13   50.05    2.45
  -1   3 -13   45.02    2.85
  -2  -1 -13   49.40    2.87
   3  -2 -13   49.95    2.94
  -1   3 -13   60.96    4.84
   3  -2 -13   46.19    3.55
   1  -3  13   44.74    4.15
   0   2 -13  104.88    4.80
  -2   0 -13  111.09    4.98
   0   2 -13  111.58    5.10
   2  -2 -13  107.59    7.11
  -2   0 -13   97.85    5.95
   0   2 -13  110.33    6.92
   2  -2 -13  106.94    5.79
   2  -2 -13  101.97    4.91
   2  -2 -13  101.90    4.82
   0   2 -13   99.30    4.24
  -2   0 -13  103.25    5.12
  -2   0 -13  107.22    6.87
   2   0  13  102.16    5.39
   0  -2  13   96.42    6.31
  -2   1 -13    6.39    1.91
  -2   1 -13    6.07    1.55
   1  -2 -13    6.68    1.18
   1   1 -13    5.03    0.85
   1   1 -13    5.91    1.13
  -2   1 -13    7.75    1.27
   1   1 -13   10.88    2.38
   1  -2 -13    5.21    1.51
   1   1 -13    7.18    1.32
   1  -2 -13    6.86    1.29
   1  -2 -13    6.04    1.98
  -2   1 -13    8.85    1.45
   2  -1  13    6.63    1.62
  -2   2 -13   10.54    1.55
   2   0 -13   13.62    1.27
   2   0 -13   14.95    1.74
   0  -2 -13   14.89    3.02
   0  -2 -13   14.41    1.73
  -2   2 -13   16.67    1.98
   2   0 -13   14.05    1.67
  -2   2 -13   11.91    1.51
   0  -2 -13   12.20    2.26
   0  -2 -13    9.86    1.63
  -2   2 -13   12.14    2.64
   2  -2  13   13.37    2.42
  -1  -2 -13   10.72    1.72
  -2   3 -13   14.72    1.54
   3  -1 -13   13.22    1.68
   3  -1 -13   13.78    1.57
   3  -1 -13   12.41    2.03
  -1  -2 -13   12.12    2.37
  -1  -2 -13   10.97    2.48
  -2   3 -13   13.50    1.98
  -2   3 -13   17.29    3.08
  -1  -2 -13   16.79    1.81
   2  -3  13   13.58    2.59
  -2  -2 -13   12.92    2.02
  -2   4 -13   14.00    2.68
  -2  -2 -13   10.02    2.36
  -2  -2 -13   11.59    1.52
   4  -2 -13    9.42    1.80
  -2  -2 -13   11.85    2.73
   4  -2 -13   11.04    1.52
  -2   4 -13   10.87    1.29
  -2   4 -13   10.26    1.65
   2  -4  13    9.93    2.48
  -2   5 -13    5.48    1.17
  -3  -2 -13    4.21    1.31
  -2   5 -13    9.53    2.22
   5  -3 -13    4.74    1.15
  -3  -2 -13    6.09    2.26
  -3  -2 -13    5.45    1.07
  -2   5 -13    5.03    0.76
   5  -3 -13    3.37    1.30
  -3  -2 -13    3.52    1.60
   2  -5  13    4.47    1.87
  -3  -1 -13   19.27    2.50
  -3  -1 -13   21.25    2.07
  -1   4 -13   21.80    1.28
  -3  -1 -13   17.52    2.99
  -1   4 -13   24.67    3.76
  -1   4 -13   21.33    1.69
   4  -3 -13   21.32    1.99
  -3  -1 -13   18.84    3.45
   4  -3 -13   19.19    2.78
   1  -4  13   17.90    3.19
   3  -3 -13   -0.33    0.54
  -3   0 -13    0.81    0.72
   3  -3 -13    1.25    0.87
  -3   0 -13    0.37    0.92
  -3   0 -13    0.24    1.05
  -3   0 -13    0.38    0.59
   0   3 -13    0.41    0.40
   0   3 -13    2.41    1.35
   0   3 -13    0.36    0.62
   0  -3  13    0.27    1.00
  -3   1 -13   50.89    4.01
   2  -3 -13   51.90    3.20
  -3   1 -13   47.35    3.14
   1   2 -13   44.33    2.20
  -3   1 -13   54.60    4.68
   1   2 -13   47.56    2.60
   2  -3 -13   48.50    3.89
   2  -3 -13   49.43    4.58
  -3   1 -13   52.52    3.08
   1   2 -13   54.08    3.10
   3  -1  13   44.99    3.51
  -3   2 -13   13.54    1.76
   1  -3 -13   14.83    1.99
   1  -3 -13   13.50    2.82
   1  -3 -13   13.87    2.42
  -3   2 -13   15.24    2.39
   2   1 -13   12.78    1.43
  -3   2 -13   15.06    2.99
   2   1 -13   12.57    1.24
   2   1 -13   13.81    1.68
   3  -2  13   11.48    2.20
   3   0 -13   41.68    2.63
   0  -3 -13   37.55    2.94
   0  -3 -13   35.41    3.89
  -3   3 -13   42.73    3.28
  -3   3 -13   33.54    3.83
   0  -3 -13   38.03    3.68
   3   0 -13   42.60    2.80
  -3   3 -13   39.54    2.54
   3   0 -13   37.87    2.24
   3  -3  13   39.49    3.74
  -1  -3 -13    2.15    1.31
  -3   4 -13    3.62    1.21
   4  -1 -13    2.97    0.84
  -1  -3 -13    3.26    1.12
  -3   4 -13    2.80    0.66
   4  -1 -13    2.10    1.09
  -3   4 -13    3.59    1.69
  -1  -3 -13    4.73    1.91
   3  -4  13    1.71    1.26
  -2  -3 -13   18.94    3.31
  -2  -3 -13   21.14    3.55
  -3   5 -13   18.32    1.73
   5  -2 -13   24.40    2.06
  -3   5 -13   25.63    3.08
   5  -2 -13   20.82    2.46
  -3   5 -13   23.25    2.30
  -2  -3 -13   19.72    2.56
   3  -5  13   21.57    3.63
  -3   6 -13   10.77    2.15
  -3  -3 -13    6.28    1.67
  -3  -3 -13    5.10    2.18
  -3  -3 -13    6.78    2.20
   6  -3 -13    5.48    1.33
  -3   6 -13    5.84    1.44
  -3   6 -13    4.60    0.99
   6  -3 -13    5.70    1.73
   3  -6  13    6.19    2.27
   6  -4 -13    7.17    2.10
  -4  -2 -13    9.49    1.99
   6  -4 -13    7.42    1.58
  -2   6 -13    7.35    1.41
  -4  -2 -13    5.81    2.17
  -4  -2 -13    6.07    1.13
  -4  -2 -13    8.31    2.65
   2  -6  13    7.15    2.44
  -1   5 -13   -1.52    0.54
  -4  -1 -13    0.11    1.02
   5  -4 -13    0.31    0.72
  -4  -1 -13    0.71    0.92
  -4  -1 -13   -0.42    0.44
   5  -4 -13   -0.09    0.76
  -4  -1 -13   -0.89    0.86
   1  -5  13    0.34    1.19
  -4   0 -13   10.02    2.46
  -4   0 -13    6.39    1.18
  -4   0 -13    5.72    2.07
  -4   0 -13    8.40    1.70
   4  -4 -13    6.97    1.46
   4  -4 -13    8.56    2.02
   0  -4  13    4.95    1.88
  -4   1 -13   23.60    1.96
   1   3 -13   21.22    2.22
   3  -4 -13   18.09    2.80
  -4   1 -13   18.61    3.43
  -4   1 -13   18.31    2.37
  -4   1 -13   22.64    3.29
   3  -4 -13   17.06    3.37
   3  -4 -13   21.41    2.49
  -4   2 -13   11.95    1.83
  -4   2 -13   10.24    2.22
  -4   2 -13    8.56    2.55
   2   2 -13   12.68    1.19
   2   2 -13   12.55    0.91
   2   2 -13   11.72    1.63
   2  -4 -13   10.94    2.67
   2  -4 -13    8.89    1.64
   2  -4 -13   10.56    2.26
   4  -2  13   11.55    2.22
   3   1 -13    3.19    0.95
   1  -4 -13    2.72    1.63
  -4   3 -13    0.86    1.36
  -4   3 -13    2.29    0.90
  -4   3 -13    2.94    1.29
   3   1 -13    2.23    0.64
   3   1 -13    2.98    0.88
   1  -4 -13    3.74    1.60
   1  -4 -13    2.39    1.05
   4  -3  13    2.62    1.37
  -4   4 -13   -0.17    0.76
   0  -4 -13    1.92    1.05
   4   0 -13    0.04    0.61
   4   0 -13    4.78    0.79
  -4   4 -13    1.59    1.06
   0  -4 -13    1.22    1.25
   0  -4 -13    2.14    1.43
  -4   4 -13   -0.14    1.16
   4  -4  13    2.12    1.31
   5  -1 -13   20.71    1.91
  -4   5 -13   22.38    1.92
  -4   5 -13   21.20    2.53
   5  -1 -13   20.90    2.81
  -1  -4 -13   22.17    2.87
  -1  -4 -13   20.00    3.50
  -1  -4 -13   21.43    3.61
  -4   5 -13   35.23    3.63
   4  -5  13   19.46    3.49
  -4   6 -13    8.13    1.84
  -2  -4 -13    1.67    1.37
  -4   6 -13    2.27    1.16
   6  -2 -13   -0.11    0.72
  -2  -4 -13    2.11    1.18
   6  -2 -13    1.27    0.83
  -2  -4 -13   -0.55    1.11
  -4   6 -13    2.64    0.93
   4  -6  13    0.66    1.33
  -5  -1 -13    5.66    2.15
   6  -5 -13    6.99    1.61
  -5  -1 -13    7.05    1.16
  -5  -1 -13    6.40    2.45
  -5  -1 -13    6.04    1.71
   6  -5 -13    6.63    1.99
   1  -6  13    6.28    2.43
  -5   0 -13    1.51    1.36
  -5   0 -13    0.29    0.51
  -5   0 -13    0.34    0.86
   5  -5 -13   -0.57    0.79
  -5   0 -13    0.00    1.15
   5  -5 -13   -0.35    0.64
   0  -5  13    0.02    1.21
  -5   1 -13    0.91    0.71
  -5   1 -13   -0.07    0.73
   4  -5 -13   -0.24    0.67
   1   4 -13    0.62    0.62
  -5   1 -13    0.37    1.03
  -5   1 -13   -2.17    0.75
   4  -5 -13   -0.33    0.79
  -1  -4  13   -0.01    1.02
  -5   2 -13    4.25    2.01
   3  -5 -13    3.84    1.74
   3  -5 -13    7.05    1.62
   2   3 -13    4.88    1.14
  -5   2 -13    1.75    1.24
   3  -5 -13    4.66    1.74
  -5   2 -13    4.20    1.27
   5  -2  13    4.76    1.54
   2  -5 -13   22.86    3.53
   3   2 -13   26.01    2.03
   2  -5 -13   21.57    3.60
   2  -5 -13   23.19    2.72
  -5   3 -13   20.65    2.52
   3   2 -13   23.23    1.49
  -5   3 -13   30.96    4.51
  -5   3 -13   25.06    3.09
   5  -3  13   24.67    3.04
  -5   4 -13   17.33    2.25
   1  -5 -13   22.03    3.62
   1  -5 -13   24.55    3.80
   4   1 -13   25.32    1.70
   1  -5 -13   18.84    2.61
  -5   4 -13   20.52    3.59
   4   1 -13   22.34    2.14
   4   1 -13   19.81    2.07
  -5   4 -13   22.55    3.32
   5  -4  13   20.36    3.32
   5   0 -13    1.66    1.04
   5   0 -13    2.18    0.81
   0  -5 -13    3.02    1.17
  -5   5 -13    2.44    0.91
   0  -5 -13    3.47    1.76
  -5   5 -13    4.67    1.52
  -5   5 -13   -0.57    1.45
   0  -5 -13    2.81    1.68
   5  -5  13    2.39    1.53
  -1  -5 -13   16.37    3.31
   6  -1 -13   17.92    2.05
  -1  -5 -13   11.14    2.21
  -1  -5 -13   14.06    3.04
   6  -1 -13   14.65    2.55
  -5   6 -13   14.08    1.80
  -5   6 -13   17.15    2.86
   5  -6  13   16.39    3.43
  -6   1 -13    6.29    1.17
   1   5 -13    6.17    1.30
   5  -6 -13    8.66    2.40
  -6   1 -13    5.29    2.54
   5  -6 -13    5.47    1.49
  -6   1 -13    5.44    2.16
  -6   1 -13    6.00    1.72
  -1  -5  13    5.80    2.41
  -6   2 -13    6.01    1.27
   4  -6 -13    5.59    2.05
   4  -6 -13    6.40    2.08
  -6   2 -13    7.95    1.79
  -6   2 -13    6.31    2.10
   4  -6 -13    6.30    1.58
   2   4 -13    7.68    1.37
  -6   2 -13   15.77    3.10
   3  -6 -13    6.96    2.22
  -6   3 -13    5.36    1.97
   3   3 -13    5.59    1.17
   3   3 -13    5.16    0.73
   3  -6 -13    5.07    1.93
  -6   3 -13    7.53    1.63
  -6   3 -13    2.46    1.94
   3  -6 -13    5.78    1.58
   6  -3  13    6.15    1.89
  -6   4 -13    2.22    1.87
  -6   4 -13    1.35    0.94
   2  -6 -13    0.88    1.03
   2  -6 -13    1.62    1.40
   4   2 -13    3.34    0.77
   2  -6 -13    0.67    1.32
  -6   4 -13    1.82    1.34
   4   2 -13    0.38    0.64
   6  -4  13    1.48    1.27
   1  -6 -13   15.01    2.51
   5   1 -13   18.41    2.11
  -6   5 -13   13.41    2.76
  -6   5 -13   15.44    2.17
   5   1 -13   15.64    1.73
   1  -6 -13   13.79    3.14
  -6   5 -13   14.70    3.33
   1  -6 -13   15.12    3.14
   6  -5  13   16.13    3.28
   0   0 -14    1.31    0.67
   0   0 -14    0.19    0.61
   0   0 -14   -0.78    0.49
   1  -1 -14    3.01    1.12
   1  -1 -14    2.82    0.92
   1  -1 -14    1.77    1.48
  -1   0 -14    2.55    0.89
  -1   0 -14    2.70    1.70
   1  -1 -14    2.61    0.91
   0   1 -14    3.12    0.97
  -1   0 -14    4.47    1.34
  -1   0 -14    2.91    0.97
   0   1 -14    2.00    0.97
   0   1 -14    4.96    0.90
   0   1 -14    6.87    2.03
  -1   1 -14    6.18    1.50
   1   0 -14    7.14    2.10
  -1   1 -14    2.49    0.89
  -1   1 -14    5.29    1.14
   1   0 -14    5.48    1.00
   0  -1 -14    6.61    2.09
   0  -1 -14    4.38    1.07
   1   0 -14    5.68    1.17
   0  -1 -14    6.12    1.63
  -1   1 -14    7.19    2.14
   0  -1 -14    6.09    1.20
   1   0 -14    6.18    1.40
   1  -1  14    6.47    1.73
  -1   2 -14   32.12    2.68
  -1  -1 -14   33.70    2.41
  -1   2 -14   40.08    4.15
  -1  -1 -14   32.53    3.23
  -1   2 -14   33.72    2.16
   2  -1 -14   31.82    2.80
  -1  -1 -14   30.31    3.75
  -1  -1 -14   31.25    2.55
  -1   2 -14   37.61    2.66
   2  -1 -14   32.82    2.43
   2  -1 -14   29.61    2.22
   1  -2  14   32.94    3.43
  -2  -1 -14    5.06    1.11
  -2  -1 -14    5.33    1.31
   3  -2 -14    6.60    1.68
  -2  -1 -14    3.65    1.53
  -1   3 -14    4.59    1.09
  -1   3 -14    5.12    0.95
  -2  -1 -14    4.42    1.87
   3  -2 -14    5.35    1.12
  -1   3 -14    4.03    1.89
  -1   3 -14    4.79    1.22
   1  -3  14    6.28    1.94
  -2   0 -14    8.84    2.48
   0   2 -14   16.89    3.05
   0   2 -14   13.09    1.53
  -2   0 -14   10.40    1.61
  -2   0 -14   10.16    1.68
   2  -2 -14    7.53    1.41
  -2   0 -14   12.50    2.30
   2  -2 -14   11.06    1.61
   2  -2 -14    9.12    2.56
   0   2 -14   11.98    1.28
   2  -2 -14   10.92    2.12
   0   2 -14   10.17    1.59
   0  -2  14   11.81    2.52
  -2   1 -14   36.79    2.56
   1  -2 -14   36.00    2.47
   1   1 -14   37.83    4.07
   1   1 -14   32.00    2.43
  -2   1 -14   27.63    2.34
   1   1 -14   35.82    2.59
   1   1 -14   33.92    2.02
  -2   1 -14   30.39    3.67
   1  -2 -14   31.82    3.81
   1  -2 -14   30.18    2.48
  -2   1 -14   35.73    3.19
   1  -2 -14   32.10    3.15
   2  -1  14   32.16    3.07
   2   0 -14   31.75    2.07
   0  -2 -14   31.59    2.58
  -2   2 -14   31.25    3.73
   2   0 -14   34.14    2.62
   0  -2 -14   30.38    3.78
   0  -2 -14   28.25    2.28
  -2   2 -14   37.42    2.63
  -2   2 -14   31.14    2.26
   0  -2 -14   29.68    3.13
   2   0 -14   30.19    2.34
  -2   2 -14   30.71    2.82
   2  -2  14   32.31    3.28
   3  -1 -14    0.14    0.63
  -1  -2 -14    0.18    0.57
  -2   3 -14    1.02    0.53
   3  -1 -14    1.28    0.82
  -1  -2 -14    0.64    0.78
  -1  -2 -14   -0.03    0.92
   3  -1 -14    1.34    0.80
  -2   3 -14    1.06    0.74
  -1  -2 -14   -0.53    0.91
  -2   3 -14    3.28    1.50
   2  -3  14    0.48    0.88
  -2  -2 -14   32.41    2.39
   4  -2 -14   30.36    3.03
  -2  -2 -14   37.81    3.91
  -2   4 -14   37.13    2.79
  -2  -2 -14   37.55    3.12
  -2  -2 -14   34.43    4.04
  -2   4 -14   32.20    3.84
   4  -2 -14   35.81    2.57
  -2   4 -14   35.81    2.18
   2  -4  14   35.87    3.96
  -3  -2 -14    4.61    1.45
  -2   5 -14    7.31    0.95
  -3  -2 -14    4.02    1.87
  -3  -2 -14    4.21    1.96
  -3  -2 -14    4.45    1.12
   5  -3 -14    3.81    1.14
   5  -3 -14    4.53    1.61
  -2   5 -14    6.08    1.34
  -2   5 -14   11.97    2.30
   2  -5  14    4.70    2.09
  -1   4 -14   17.50    1.12
  -1   4 -14   11.88    1.42
  -1   4 -14   13.28    2.95
  -3  -1 -14   11.15    2.00
  -3  -1 -14   14.48    1.75
  -3  -1 -14   13.04    2.72
   4  -3 -14   15.58    2.02
  -3  -1 -14   11.88    2.92
   4  -3 -14   12.79    2.32
   1  -4  14   11.39    2.72
   0   3 -14    7.41    0.87
  -3   0 -14    6.76    1.46
  -3   0 -14    7.17    1.29
   0   3 -14    7.43    1.15
  -3   0 -14    8.54    2.10
  -3   0 -14    3.98    1.63
   3  -3 -14    6.67    1.40
   0   3 -14   14.64    2.80
   3  -3 -14    6.68    1.74
   0   3 -14    7.79    1.44
   0  -3  14    7.70    2.24
   1   2 -14    7.25    2.10
   2  -3 -14    5.27    2.01
   2  -3 -14    4.83    1.23
  -3   1 -14    4.75    1.21
   1   2 -14    7.50    0.84
  -3   1 -14    6.08    1.72
  -3   1 -14    8.23    2.22
   1   2 -14    3.87    0.92
   1   2 -14    6.24    1.22
  -3   1 -14    6.60    1.33
   2  -3 -14    5.53    1.64
   3  -1  14    4.44    1.51
  -3   2 -14    0.64    0.66
   1  -3 -14   -1.15    0.70
  -3   2 -14   -0.41    1.22
   2   1 -14   -0.27    0.55
   2   1 -14    1.46    0.51
   2   1 -14    0.12    0.57
  -3   2 -14    0.47    0.68
   1  -3 -14   -0.25    0.68
   1  -3 -14    0.65    1.02
  -3   2 -14    1.18    0.91
   3  -2  14    0.19    0.85
  -3   3 -14    1.64    1.16
   0  -3 -14    0.47    0.96
   0  -3 -14   -0.72    0.90
   0  -3 -14   -0.66    0.62
  -3   3 -14    0.22    0.50
  -3   3 -14    2.26    0.97
   3   0 -14    0.06    0.63
   3   0 -14   -1.03    0.35
   3   0 -14    0.52    0.70
   3  -3  14    0.67    0.99
   4  -1 -14   14.15    2.22
   4  -1 -14   13.29    1.68
  -3   4 -14   11.24    1.52
  -3   4 -14   12.95    3.05
  -1  -3 -14   12.98    2.82
  -3   4 -14   15.22    2.32
  -1  -3 -14   14.09    3.04
  -1  -3 -14   13.42    2.12
   3  -4  14   14.87    3.01
  -2  -3 -14   16.31    3.12
   5  -2 -14   15.97    2.00
  -3   5 -14   19.06    3.24
  -3   5 -14   16.88    2.39
  -2  -3 -14   16.61    3.41
  -3   5 -14   17.14    1.78
   5  -2 -14   13.94    2.48
  -2  -3 -14   15.71    2.49
   3  -5  14   15.94    3.26
  -1   5 -14    9.83    1.12
   5  -4 -14    9.38    1.78
  -4  -1 -14    6.61    2.25
  -4  -1 -14    6.50    1.64
  -4  -1 -14    5.98    2.31
  -1   5 -14    2.93    1.81
  -1   5 -14    7.72    0.88
  -4  -1 -14    7.89    1.32
   5  -4 -14    2.24    1.64
   1  -5  14   10.24    2.77
   0   4 -14    4.48    2.35
  -4   0 -14    8.88    1.47
   4  -4 -14   10.55    1.79
  -4   0 -14   10.31    2.75
  -4   0 -14    9.41    2.44
   0   4 -14   11.39    1.70
  -4   0 -14    7.69    1.70
   4  -4 -14    9.78    2.17
   0  -4  14    8.50    2.52
   1   3 -14   14.54    1.86
   3  -4 -14   13.91    3.10
  -4   1 -14   14.82    2.89
   1   3 -14   14.52    1.19
   3  -4 -14   11.30    1.86
   1   3 -14   12.07    2.69
  -4   1 -14   12.09    1.74
  -4   1 -14   14.20    2.17
  -4   1 -14   11.76    3.04
   3  -4 -14   12.05    2.51
  -4   2 -14   39.97    3.78
   2  -4 -14   34.88    3.68
  -4   2 -14   34.80    2.83
   2  -4 -14   37.21    3.00
   2   2 -14   35.50    2.24
   2   2 -14   32.82    1.79
  -4   2 -14   32.22    3.99
   2  -4 -14   38.67    4.22
   2   2 -14   42.62    2.79
  -4   2 -14   38.64    2.78
   4  -2  14   33.26    3.31
  -4   3 -14   13.70    1.89
   3   1 -14   16.52    1.31
  -4   3 -14   14.39    2.62
   1  -4 -14   16.05    2.92
   3   1 -14   17.09    2.00
   1  -4 -14   13.04    2.99
   3   1 -14   17.51    1.72
  -4   3 -14   15.20    3.33
   1  -4 -14   13.28    2.09
   4  -3  14   12.62    2.56
  -4   4 -14    0.68    1.49
   4   0 -14   -0.33    0.66
   0  -4 -14   -0.19    1.04
  -4   4 -14    1.41    0.74
  -4   4 -14    0.73    0.99
   0  -4 -14    0.25    1.04
   0  -4 -14   -0.31    0.74
   4   0 -14   -0.89    0.66
   4   0 -14   -0.26    0.51
   4  -4  14   -0.09    0.95
  -4   5 -14    5.92    1.18
  -4   5 -14    4.25    1.51
   5  -1 -14    8.92    1.75
   5  -1 -14    2.57    0.97
  -1  -4 -14    4.97    1.99
  -1  -4 -14    5.45    2.23
  -1  -4 -14    5.87    1.69
  -4   5 -14   13.24    2.58
   4  -5  14    4.51    1.97
  -5   1 -14    7.22    1.64
  -5   1 -14    8.25    2.34
   4  -5 -14    8.46    1.81
   4  -5 -14    3.67    1.58
   1   4 -14    8.31    1.49
  -5   1 -14    6.24    2.37
  -5   1 -14    9.66    1.51
   4  -5 -14    5.28    2.18
   2   3 -14    3.10    0.75
  -5   2 -14    1.83    1.95
   3  -5 -14    3.87    1.87
  -5   2 -14    5.02    1.41
  -5   2 -14    1.52    1.44
   3  -5 -14    3.26    1.70
   3  -5 -14    4.87    1.37
   2   3 -14    4.83    1.13
  -5   2 -14    6.84    1.32
   3   2 -14   18.35    1.65
   3   2 -14   17.40    2.01
   2  -5 -14   16.58    3.38
  -5   3 -14   16.27    3.02
  -5   3 -14   17.44    2.31
   2  -5 -14   18.15    3.27
   3   2 -14   16.61    1.22
  -5   3 -14   18.37    3.50
   2  -5 -14   18.08    2.49
   5  -3  14   17.43    2.97
   1  -5 -14    5.26    2.01
   4   1 -14    5.35    1.22
   1  -5 -14    5.48    1.56
  -5   4 -14    4.73    1.28
   4   1 -14    5.80    1.00
  -5   4 -14    7.26    1.99
   4   1 -14    7.64    1.49
  -5   4 -14    5.17    2.31
   1  -5 -14    4.80    2.01
   5  -4  14    7.86    2.30
   0   0 -15   18.74    2.08
   0   0 -15   22.63    2.49
   0   0 -15   26.45    4.18
   0   0 -15   24.44    2.40
   1  -1 -15    4.35    1.12
   0   1 -15    4.98    1.03
  -1   0 -15    5.21    2.15
  -1   0 -15    4.05    1.08
  -1   0 -15    3.67    1.03
   0   1 -15    6.00    2.02
  -1   0 -15    3.83    1.35
   1  -1 -15    2.39    1.61
   1  -1 -15    5.08    1.22
   1  -1 -15    2.88    1.30
   0   1 -15    3.51    1.09
   0   1 -15    5.45    1.34
  -1   1 -15    0.30    0.47
  -1   1 -15    0.03    1.19
   0  -1 -15    0.12    0.57
   0  -1 -15    0.67    0.64
  -1   1 -15    0.61    0.76
   0  -1 -15    0.65    1.27
   1   0 -15   -1.33    0.47
   1   0 -15    0.35    0.65
   1   0 -15    4.25    1.64
   1   0 -15    0.59    0.60
   0  -1 -15    0.41    0.89
   2  -1 -15    5.43    2.04
  -1  -1 -15    1.04    1.01
  -1  -1 -15    0.83    0.75
  -1  -1 -15    1.90    0.93
   2  -1 -15    1.83    0.99
  -1   2 -15    1.48    0.85
  -1   2 -15    5.44    2.07
   2  -1 -15    2.05    0.81
  -1   2 -15    4.34    0.91
   2  -1 -15    0.93    0.84
  -1  -1 -15    0.67    1.18
  -1   2 -15    1.46    0.94
   1  -2  15    0.60    1.10
  -1   3 -15   10.14    1.64
   3  -2 -15    8.94    1.95
  -2  -1 -15    7.45    2.03
  -1   3 -15   12.43    2.92
  -2  -1 -15    8.77    1.49
  -1   3 -15    9.13    1.59
  -2  -1 -15    7.13    2.34
  -1   3 -15    8.90    1.17
   3  -2 -15    8.27    1.43
  -2  -1 -15    7.57    1.64
   1  -3  15    9.13    2.39
   2  -2 -15    4.36    1.92
  -2   0 -15    3.96    1.09
   0   2 -15    3.77    1.89
  -2   0 -15    6.85    1.86
   2  -2 -15    2.50    1.32
   2  -2 -15    4.87    1.18
   2  -2 -15    5.86    1.35
   0   2 -15    4.80    1.22
  -2   0 -15    2.49    1.56
   0   2 -15    3.56    1.08
  -2   0 -15    4.93    1.25
   1  -2 -15    1.58    0.84
   1   1 -15    1.21    0.80
  -2   1 -15    0.27    1.08
  -2   1 -15   -0.59    0.76
   1   1 -15    2.51    0.69
   1  -2 -15    1.40    1.06
  -2   1 -15    1.11    0.80
   1  -2 -15    2.34    1.54
   1   1 -15    1.30    0.77
   1  -2 -15    1.42    0.81
  -2   1 -15    1.78    1.09
   2  -1  15    1.00    0.91
   0  -2 -15    1.12    0.80
   2   0 -15    0.55    0.75
   2   0 -15    0.77    1.13
   0  -2 -15    1.35    1.04
   0  -2 -15    1.99    0.98
  -2   2 -15    2.03    0.95
  -2   2 -15    0.33    0.87
   2   0 -15    0.09    0.67
  -2   2 -15    1.83    1.76
   2   0 -15   -0.08    0.54
   0  -2 -15    0.70    1.26
  -2   2 -15    1.21    0.73
   2  -2  15    1.16    1.10
   3  -1 -15    1.03    0.73
  -1  -2 -15   -0.35    0.68
  -1  -2 -15    0.11    1.02
  -2   3 -15    0.93    0.87
   3  -1 -15    0.17    0.76
  -1  -2 -15    1.66    1.21
  -1  -2 -15   -0.09    0.69
  -2   3 -15    2.40    0.77
  -2   3 -15   -0.36    1.24
  -2   3 -15    0.70    0.80
   3  -1 -15    0.84    0.77
   2  -3  15   -0.20    0.88
  -2  -2 -15    6.79    1.34
  -2   4 -15   12.03    1.91
   4  -2 -15    8.03    2.05
  -2  -2 -15    8.25    2.28
   4  -2 -15    8.71    1.49
  -2  -2 -15    8.10    1.85
  -2  -2 -15    9.49    2.82
  -2   4 -15    2.35    2.08
  -2   4 -15    8.47    1.24
   2  -4  15    9.10    2.47
  -3  -1 -15    2.91    1.21
  -1   4 -15    4.96    1.37
  -3  -1 -15    2.56    1.52
  -3  -1 -15    3.03    1.82
  -1   4 -15    4.59    0.74
   4  -3 -15    4.21    1.25
  -3  -1 -15    4.34    1.10
  -1   4 -15    3.65    1.86
  -1   4 -15    4.14    1.00
   4  -3 -15    3.95    1.48
   1  -4  15    2.97    1.81
  -3   0 -15   19.91    2.24
   0   3 -15   19.19    2.25
   3  -3 -15   20.64    3.10
   3  -3 -15   22.04    2.44
  -3   0 -15   20.19    3.27
   0   3 -15   19.88    3.72
   0   3 -15   18.60    1.37
   0   3 -15   18.69    1.74
  -3   0 -15   20.68    3.65
  -3   0 -15   17.74    2.41
   3  -3 -15   20.17    3.90
   0  -3  15   21.13    3.66
   1   2 -15    7.58    1.31
   2  -3 -15    7.99    1.58
  -3   1 -15   10.93    2.66
   1   2 -15    8.26    1.52
  -3   1 -15    6.21    1.35
   2  -3 -15    8.89    2.72
  -3   1 -15    9.31    2.19
  -3   1 -15    7.81    1.56
   2  -3 -15    7.62    1.99
   1   2 -15   12.48    2.99
   1  -3 -15    0.86    0.78
   2   1 -15    0.49    0.70
   1  -3 -15    1.46    1.45
  -3   2 -15   -0.82    1.12
   2   1 -15    1.36    0.79
  -3   2 -15    0.50    0.58
  -3   2 -15    0.00    0.71
   1  -3 -15    0.48    1.10
  -3   2 -15    2.58    1.24
   2   1 -15    0.35    0.54
   3  -2  15    0.01    0.87
   3   0 -15    6.04    1.42
   0  -3 -15    6.63    2.11
   3   0 -15    3.92    1.16
   0  -3 -15    4.00    1.35
   3   0 -15    5.18    0.97
   0  -3 -15    5.50    2.25
  -3   3 -15    6.22    1.45
  -3   3 -15    6.92    2.35
  -3   3 -15    5.00    1.14
  -3   3 -15    8.23    1.84
   3  -3  15    5.58    1.86
  -1  -3 -15    0.50    0.83
  -3   4 -15   -0.26    0.36
  -3   4 -15   -0.32    0.79
  -1  -3 -15    0.32    1.08
   4  -1 -15   -0.01    0.87
  -1  -3 -15    1.46    1.46
   4  -1 -15   -0.33    0.61
   3  -4  15    0.88    1.30
   4  -4 -15   -0.08    0.85
   4  -4 -15   -0.40    0.65
  -4   0 -15    0.70    1.25
  -4   0 -15    0.31    1.46
  -4   0 -15    0.11    0.87
   0   4 -15    2.17    1.27
  -4   1 -15    5.44    1.25
  -4   1 -15    2.77    1.18
  -4   1 -15    4.13    2.19
  -4   1 -15    2.43    1.56
   1   3 -15    3.35    0.82
   3  -4 -15    2.73    1.18
   3  -4 -15    3.69    1.90
   1   3 -15    6.64    2.25
   1   3 -15    4.78    1.21
   3  -4 -15    2.96    1.41
   2   2 -15    7.49    0.93
  -4   2 -15    7.62    2.45
   2   2 -15   11.93    1.77
  -4   2 -15    9.98    1.68
   2   2 -15   12.60    1.33
   2  -4 -15    8.82    2.64
   2  -4 -15    9.66    1.82
   2  -4 -15    7.63    2.14
  -4   2 -15    6.43    2.03
  -4   2 -15   10.04    1.82
   1  -4 -15   -0.12    0.84
   3   1 -15    1.63    0.89
   1  -4 -15    1.59    1.29
   3   1 -15   -0.07    0.68
   1  -4 -15    0.33    1.34
  -4   3 -15    0.68    1.14
  -4   3 -15   -1.63    1.23
  -4   3 -15   -0.56    0.52
   3   1 -15    0.42    0.54
   4  -3  15    1.28    1.21
  -4   4 -15    3.22    1.68
   0  -4 -15    0.38    1.16
   0  -4 -15    0.71    0.93
   4   0 -15    0.60    0.69
  -4   4 -15    0.19    1.01
  -4   4 -15    1.87    0.78
   4   0 -15    1.66    0.91
   0  -4 -15   -0.53    0.94
   0   0 -16   -0.21    0.65
   0   0 -16    1.54    1.01
  -1   0 -16    1.69    0.87
   0   1 -16   -0.69    0.61
   1  -1 -16   -0.85    0.82
   1  -1 -16   -0.99    0.56
   0   1 -16    3.42    1.95
   1  -1 -16    1.25    1.32
   0   1 -16    2.03    1.00
   1  -1 -16    0.78    0.87
   0   1 -16   -1.14    0.72
  -1   0 -16   -1.14    0.85
  -1   0 -16    4.56    1.83
  -1   0 -16    0.73    0.82
  -1   1 -16   -0.31    0.95
   1   0 -16    1.15    0.88
   0  -1 -16    2.25    1.18
  -1   1 -16   -1.47    1.23
   1   0 -16    0.31    0.88
   0  -1 -16   -0.64    0.60
  -1   1 -16    2.43    1.02
   1   0 -16    3.51    1.99
   0  -1 -16    0.85    0.76
   0  -1 -16    0.22    1.34
  -1  -1 -16    5.60    1.28
  -1   2 -16    1.42    0.85
  -1  -1 -16    4.18    2.06
  -1   2 -16    5.39    1.39
  -1   2 -16    5.97    1.51
  -1  -1 -16    3.15    1.17
   2  -1 -16    4.36    1.37
  -1   2 -16    3.87    2.57
  -1  -1 -16    3.87    1.61
   2  -1 -16    4.07    0.98
   2  -1 -16    9.14    2.19
   2  -1 -16    3.40    1.19
   1  -2  16    2.31    1.55
  -2  -1 -16    6.41    2.04
  -1   3 -16   10.68    2.84
   3  -2 -16    4.86    1.18
  -1   3 -16    6.76    1.43
   3  -2 -16    5.31    2.25
   3  -2 -16    3.85    1.49
  -1   3 -16    6.64    1.09
   2  -2 -16   14.07    2.02
   0   2 -16    6.25    2.75
  -2   0 -16   11.61    2.62
  -2   0 -16   12.20    1.81
   0   2 -16   17.98    2.24
   0   2 -16   10.17    1.37
   0   2 -16   12.90    1.97
  -2   0 -16   13.01    2.03
   2  -2 -16   12.83    2.44
   2  -2 -16    9.85    2.77
  -2   0 -16   13.30    3.11
   1  -2 -16    2.62    1.43
   1   1 -16    7.16    1.51
   1   1 -16    3.03    0.85
   1  -2 -16    4.08    1.17
   1  -2 -16    5.03    2.24
   1   1 -16    3.71    1.22
  -2   1 -16    5.65    1.34
  -2   1 -16    2.21    1.70
   1  -2 -16    3.30    1.17
  -2   1 -16    5.97    1.71
   2   0 -16    1.82    1.02
   2   0 -16    2.15    0.96
   0  -2 -16    1.26    1.37
  -2   2 -16    1.12    1.13
  -2   2 -16    1.76    0.99
  -2   2 -16    0.82    0.79
   0  -2 -16   -1.55    0.82
   0  -2 -16    0.63    0.86
   2   0 -16    2.94    0.77
   0  -2 -16    1.41    0.93
   2   0 -16    0.30    1.29
   2  -2  16    1.43    1.24
  -2   3 -16    7.92    1.36
   3  -1 -16    6.31    1.26
  -2   3 -16    8.21    1.86
  -1  -2 -16    8.08    2.41
   2  -3 -16    5.04    2.21
   2  -3 -16    5.65    1.81
   2  -3 -16    7.16    1.54
  -3   1 -16    3.45    1.70
  -3   1 -16    4.17    1.33
   1   2 -16    5.72    1.35
   1   2 -16    9.94    2.94
   2   1 -16    8.74    1.23
   2   1 -16   13.22    3.16
   1  -3 -16    5.23    2.32
   2   1 -16    8.26    1.52
  -3   2 -16    7.92    2.08
  -3   2 -16    8.85    1.61
   1  -3 -16    6.69    2.05


 _exptl_absorpt_process_details 'SADABS 2014/4'
 _exptl_absorpt_correction_type   multiscan
 _exptl_absorpt_correction_T_max  0.9485
 _exptl_absorpt_correction_T_min  0.7698
 _exptl_special_details
)
 The following wavelength and cell were deduced by SADABS from the
 direction cosines etc. They are given here for emergency use only:
 CELL 0.71073    8.366    8.371   13.381   90.010   90.035  119.887
)

_computing_structure_solution     'SHELXT 2014/4 (Sheldrick, 2014)'
;
_shelx_hkl_checksum              28505
loop_
_space_group_symop_operation_xyz
'x, y, z'
'-y, x-y, z+2/3'
'-x+y, -x, z+1/3'
'y, x, -z'
'x-y, -y, -z+1/3'
'-x, -x+y, -z+2/3'
loop_
_atom_site_label
_atom_site_type_symbol
_atom_site_fract_x
_atom_site_fract_y
_atom_site_fract_z
_atom_site_U_iso_or_equiv
_atom_site_adp_type
_atom_site_occupancy
_atom_site_site_symmetry_order
_atom_site_calc_flag
_atom_site_refinement_flags_posn
_atom_site_refinement_flags_adp
_atom_site_refinement_flags_occupancy
_atom_site_disorder_assembly
_atom_site_disorder_group
C1 C 0.2346(2) 0.2085(2) 0.24504(11) 0.0321(3) Uani 1 1 d . . . . .
C2 C 0.1826(2) 0.2964(2) 0.17487(12) 0.0373(4) Uani 1 1 d . . . . .
H2 H 0.1472 0.2463 0.1096 0.045 Uiso 1 1 calc R U . . .
C3 C 0.1825(3) 0.4570(2) 0.20009(14) 0.0468(5) Uani 1 1 d . . . . .
H3 H 0.1458 0.5167 0.1525 0.056 Uiso 1 1 calc R U . . .
C4 C 0.2361(3) 0.5303(3) 0.29483(14) 0.0520(5) Uani 1 1 d . . . . .
H4 H 0.2367 0.6409 0.3119 0.062 Uiso 1 1 calc R U . . .
C5 C 0.2888(3) 0.4441(3) 0.36498(14) 0.0478(5) Uani 1 1 d . . . . .
H5 H 0.3255 0.4955 0.4298 0.057 Uiso 1 1 calc R U . . .
C6 C 0.2880(2) 0.2831(2) 0.34067(12) 0.0391(4) Uani 1 1 d . . . . .
H6 H 0.3236 0.2234 0.3888 0.047 Uiso 1 1 calc R U . . .
C7 C 0.2305(2) 0.0344(2) 0.22101(11) 0.0346(4) Uani 1 1 d . . . . .
O1 O 0.26226(18) -0.05526(16) 0.28111(8) 0.0487(4) Uani 1 1 d . . . . .
loop_
_atom_site_aniso_label
_atom_site_aniso_U_11
_atom_site_aniso_U_22
_atom_site_aniso_U_33
_atom_site_aniso_U_23
_atom_site_aniso_U_13
_atom_site_aniso_U_12
C1 0.0252(8) 0.0259(8) 0.0412(7) 0.0067(6) 0.0066(6) 0.0096(6)
C2 0.0308(8) 0.0356(9) 0.0446(8) 0.0101(7) 0.0085(7) 0.0159(7)
C3 0.0478(11) 0.0408(10) 0.0598(10) 0.0183(8) 0.0161(8) 0.0281(9)
C4 0.0564(12) 0.0346(10) 0.0691(11) 0.0089(9) 0.0242(10) 0.0258(9)
C5 0.0506(11) 0.0344(10) 0.0519(9) -0.0005(8) 0.0107(8) 0.0163(9)
C6 0.0370(9) 0.0313(9) 0.0430(8) 0.0048(7) 0.0043(7) 0.0125(7)
C7 0.0305(8) 0.0260(8) 0.0429(8) 0.0051(7) 0.0014(6) 0.0107(7)
O1 0.0629(9) 0.0355(7) 0.0515(7) 0.0034(5) -0.0098(6) 0.0274(7)
loop_
_atom_type_symbol
_atom_type_description
_atom_type_scat_dispersion_real
_atom_type_scat_dispersion_imag
_atom_type_scat_source
C C 0.0033 0.0016 'International Tables Vol C Tables 4.2.6.8 and 6.1.1.4'
H H 0.0000 0.0000 'International Tables Vol C Tables 4.2.6.8 and 6.1.1.4'
O O 0.0106 0.0060 'International Tables Vol C Tables 4.2.6.8 and 6.1.1.4'
loop_
_geom_angle_atom_site_label_1
_geom_angle_atom_site_label_2
_geom_angle_atom_site_label_3
_geom_angle
_geom_angle_site_symmetry_1
_geom_angle_site_symmetry_3
_geom_angle_publ_flag
C2 C1 C6 119.92(16) . . ?
C2 C1 C7 121.01(15) . . ?
C6 C1 C7 119.06(14) . . ?
C3 C2 C1 119.97(17) . . ?
C3 C2 H2 120.0 . . ?
C1 C2 H2 120.0 . . ?
C4 C3 C2 119.74(17) . . ?
C4 C3 H3 120.1 . . ?
C2 C3 H3 120.1 . . ?
C3 C4 C5 120.64(17) . . ?
C3 C4 H4 119.7 . . ?
C5 C4 H4 119.7 . . ?
C6 C5 C4 119.98(17) . . ?
C6 C5 H5 120.0 . . ?
C4 C5 H5 120.0 . . ?
C5 C6 C1 119.75(16) . . ?
C5 C6 H6 120.1 . . ?
C1 C6 H6 120.1 . . ?
O1 C7 C1 124.02(14) . . ?
O1 C7 C7 116.95(15) . 5 ?
C1 C7 C7 118.92(14) . 5 ?
loop_
_geom_bond_atom_site_label_1
_geom_bond_atom_site_label_2
_geom_bond_distance
_geom_bond_site_symmetry_2
_geom_bond_publ_flag
C1 C2 1.390(2) . ?
C1 C6 1.397(2) . ?
C1 C7 1.474(2) . ?
C2 C3 1.386(2) . ?
C2 H2 0.9500 . ?
C3 C4 1.383(3) . ?
C3 H3 0.9500 . ?
C4 C5 1.384(3) . ?
C4 H4 0.9500 . ?
C5 C6 1.381(3) . ?
C5 H5 0.9500 . ?
C6 H6 0.9500 . ?
C7 O1 1.2166(19) . ?
C7 C7 1.539(3) 5 ?
