#------------------------------------------------------------------------------
#$Date: 2020-05-06 02:47:36 +0300 (Wed, 06 May 2020) $
#$Revision: 251789 $
#$URL: file:///home/coder/svn-repositories/cod/cif/7/24/04/7240450.cif $
#------------------------------------------------------------------------------
#
# This file is available in the Crystallography Open Database (COD),
# http://www.crystallography.net/
#
# All data on this site have been placed in the public domain by the
# contributors.
#
data_7240450
loop_
_publ_author_name
'Kostin, Gennadiy'
'Filatov, Evgeny'
'Pishchur, Denis P.'
'Kuratieva, Natalia'
'Korenev, Sergey'
_publ_section_title
;
 Phase transformations in a double complex salt of ruthenium nitrosyl
 anion with tetraamine-palladium cation
;
_journal_name_full               CrystEngComm
_journal_paper_doi               10.1039/D0CE00441C
_journal_year                    2020
_chemical_formula_moiety         'H N5 O10 Ru, H12 N4 Pd'
_chemical_formula_sum            'H13 N9 O10 Pd Ru'
_chemical_formula_weight         506.66
_space_group_crystal_system      triclinic
_space_group_IT_number           2
_space_group_name_Hall           '-P 1'
_space_group_name_H-M_alt        'P -1'
_atom_sites_solution_hydrogens   geom
_atom_sites_solution_primary     direct
_atom_sites_solution_secondary   difmap
_audit_creation_method           SHELXL-2014/7
_audit_update_record
;
2020-01-24 deposited with the CCDC.	2020-05-04 downloaded from the CCDC.
;
_cell_angle_alpha                106.3890(10)
_cell_angle_beta                 91.0570(10)
_cell_angle_gamma                93.1170(10)
_cell_formula_units_Z            2
_cell_length_a                   7.8002(3)
_cell_length_b                   7.8688(3)
_cell_length_c                   11.9165(5)
_cell_measurement_reflns_used    2405
_cell_measurement_temperature    298(2)
_cell_measurement_theta_max      27.53
_cell_measurement_theta_min      2.62
_cell_volume                     700.22(5)
_computing_cell_refinement       'Bruker SAINT'
_computing_data_collection       'Bruker APEX2'
_computing_data_reduction        'Bruker SAINT'
_computing_molecular_graphics    'Bruker SHELXTL'
_computing_publication_material  'Bruker SHELXTL'
_computing_structure_refinement  'Bruker SHELXTL'
_computing_structure_solution    'Bruker SHELXTL'
_diffrn_ambient_temperature      298(2)
_diffrn_detector_area_resol_mean 25
_diffrn_measured_fraction_theta_full 0.998
_diffrn_measured_fraction_theta_max 0.998
_diffrn_measurement_device_type  'Bruker Apex DUO CCD area-detector'
_diffrn_measurement_method       '\f scans'
_diffrn_radiation_monochromator  graphite
_diffrn_radiation_probe          x-ray
_diffrn_radiation_type           MoK\a
_diffrn_radiation_wavelength     0.71073
_diffrn_reflns_av_R_equivalents  0.0210
_diffrn_reflns_av_unetI/netI     0.0255
_diffrn_reflns_Laue_measured_fraction_full 0.998
_diffrn_reflns_Laue_measured_fraction_max 0.998
_diffrn_reflns_limit_h_max       9
_diffrn_reflns_limit_h_min       -10
_diffrn_reflns_limit_k_max       10
_diffrn_reflns_limit_k_min       -10
_diffrn_reflns_limit_l_max       15
_diffrn_reflns_limit_l_min       -15
_diffrn_reflns_number            6347
_diffrn_reflns_point_group_measured_fraction_full 0.998
_diffrn_reflns_point_group_measured_fraction_max 0.998
_diffrn_reflns_theta_full        25.250
_diffrn_reflns_theta_max         27.544
_diffrn_reflns_theta_min         1.782
_diffrn_standards_decay_%        0
_diffrn_standards_number         0
_exptl_absorpt_coefficient_mu    2.431
_exptl_absorpt_correction_type   multi-scan
_exptl_absorpt_process_details   'Bruker SADABS'
_exptl_crystal_colour            yellow
_exptl_crystal_density_diffrn    2.403
_exptl_crystal_description       plate
_exptl_crystal_F_000             492
_exptl_crystal_size_max          0.230
_exptl_crystal_size_mid          0.130
_exptl_crystal_size_min          0.090
_exptl_transmission_factor_max   0.746
_exptl_transmission_factor_min   0.659
_refine_diff_density_max         0.881
_refine_diff_density_min         -0.743
_refine_diff_density_rms         0.086
_refine_ls_extinction_method     none
_refine_ls_goodness_of_fit_ref   1.064
_refine_ls_hydrogen_treatment    constr
_refine_ls_matrix_type           full
_refine_ls_number_parameters     192
_refine_ls_number_reflns         3226
_refine_ls_number_restraints     0
_refine_ls_restrained_S_all      1.064
_refine_ls_R_factor_all          0.0343
_refine_ls_R_factor_gt           0.0243
_refine_ls_shift/su_max          0.000
_refine_ls_shift/su_mean         0.000
_refine_ls_structure_factor_coef Fsqd
_refine_ls_weighting_details
'w=1/[\s^2^(Fo^2^)+(0.0208P)^2^+0.5348P] where P=(Fo^2^+2Fc^2^)/3'
_refine_ls_weighting_scheme      calc
_refine_ls_wR_factor_gt          0.0598
_refine_ls_wR_factor_ref         0.0645
_reflns_Friedel_coverage         0.000
_reflns_number_gt                2430
_reflns_number_total             3226
_reflns_threshold_expression     >2\s(I)
_cod_data_source_file            d0ce00441c2.cif
_cod_data_source_block           kru216
_cod_database_code               7240450
_shelx_shelxl_version_number     2014/7
_shelx_space_group_comment
;
The symmetry employed for this shelxl refinement is uniquely defined
by the following loop, which should always be used as a source of
symmetry information in preference to the above space-group names.
They are only intended as comments.
;
_shelx_estimated_absorpt_t_min   0.605
_shelx_estimated_absorpt_t_max   0.811
_shelx_res_file
;

    D:\Job\Kostin\kru216\kru216.res created by SHELXL-2014/7

REM  kru216 in P-1
REM R1 =  0.0244 for    2430 Fo > 4sig(Fo)  and  0.0344 for all    3226 data
REM    192 parameters refined using      1 restraints
REM Instructions for potential hydrogen bonds
REM Highest difference peak  0.876,  deepest hole -0.754,  1-sigma level  0.087
TITL kru216 in P-1
CELL 0.71073 7.8002 7.8688 11.9165 106.389 91.057 93.117
ZERR 2.0000 0.0003 0.0003 0.0005 0.001 0.001 0.001
LATT 1
SFAC N H O RU PD
UNIT 18 26 20 2 2
MERG 2
OMIT 0 180
FMAP 2
GRID
PLAN 5
TEMP 25
SIZE 0.23 0.13 0.09
BOND $H
HTAB
HTAB O1 O311
EQIV $3 -x+1, -y+1, -z
HTAB O1 O311_$3
HTAB O1 O322_$3
EQIV $4 -x+1, -y+1, -z+1
HTAB N22 O332_$4
HTAB N22 O321_$4
EQIV $5 -x, -y+1, -z+1
HTAB N22 O312_$5
HTAB N22 O342_$5
EQIV $6 x-1, y, z
HTAB N22 O332_$6
HTAB N11 O321_$6
HTAB N11 O342
EQIV $7 -x, -y+1, -z
HTAB N11 O311_$7
HTAB N11 O311
HTAB N11 O322_$3
HTAB N21 O341
HTAB N21 O331_$6
EQIV $8 x-1, y-1, z
HTAB N21 O321_$8
EQIV $9 x, y-1, z
HTAB N21 O312_$9
HTAB N12 O1
EQIV $10 -x+1, -y, -z
HTAB N12 O1_$10
HTAB N12 O331_$10
HTAB N12 O311_$9

EADP O342 O341
HTAB O1 O311
HTAB O1 O311_$3
HTAB O1 O322_$3
HTAB N22 O332_$4
HTAB N22 O321_$4
HTAB N22 O312_$5
HTAB N22 O342_$5
HTAB N22 O332_$6
HTAB N11 O321_$6
HTAB N11 O342
HTAB N11 O311_$7
HTAB N11 O311
HTAB N11 O322_$3
HTAB N21 O341
HTAB N21 O331_$6
HTAB N21 O321_$8
HTAB N12 O1
HTAB N12 O1_$10
HTAB N12 O331_$10
HTAB N12 O311_$9
L.S. 10
ACTA 50.5
WGHT    0.020800    0.534800
FVAR       0.14545
PD2   5    0.000000    0.000000    0.500000    10.50000    0.01869    0.01870 =
         0.02410    0.00893    0.00098    0.00296
PD1   5    0.000000    0.000000    0.000000    10.50000    0.02263    0.01827 =
         0.02490    0.00707    0.00070    0.00066
RU3   4    0.494786    0.496466    0.249956    11.00000    0.01893    0.01908 =
         0.01990    0.00667   -0.00050    0.00116
O1    3    0.483300    0.313012    0.101946    11.00000    0.04011    0.02276 =
         0.02424    0.00543    0.00187    0.00099
AFIX 147
H1    2    0.490158    0.358859    0.048221    11.00000   -1.20000
AFIX   0
N32   1    0.695243    0.633064    0.189664    11.00000    0.02392    0.02770 =
         0.02545    0.00551   -0.00062   -0.00343
N31   1    0.319830    0.633861    0.178953    11.00000    0.02285    0.02703 =
         0.03889    0.01622    0.00280    0.00306
N35   1    0.500972    0.668656    0.382416    11.00000    0.04023    0.02959 =
         0.02597    0.00535    0.00224   -0.00284
N34   1    0.295852    0.343992    0.297231    11.00000    0.02748    0.02952 =
         0.03056    0.01367    0.00058   -0.00042
N33   1    0.672220    0.352919    0.313204    11.00000    0.02711    0.03499 =
         0.04035    0.02009   -0.00426    0.00320
N22   1   -0.004494    0.269450    0.542456    11.00000    0.04203    0.02139 =
         0.03232    0.00745   -0.00152    0.00580
AFIX 137
H22A  2    0.098267    0.315716    0.531320    11.00000   -1.50000
H22B  2   -0.030547    0.311440    0.617221    11.00000   -1.50000
H22C  2   -0.083164    0.298826    0.497363    11.00000   -1.50000
AFIX   0
O311  3    0.289351    0.594866    0.072096    11.00000    0.04637    0.05017 =
         0.03781    0.01946   -0.01333    0.00660
N11   1    0.029723    0.268347    0.033323    11.00000    0.03529    0.02284 =
         0.04739    0.00988   -0.00155    0.00080
AFIX 137
H11A  2    0.001675    0.319833    0.106630    11.00000   -1.50000
H11B  2   -0.038165    0.303074   -0.015787    11.00000   -1.50000
H11C  2    0.138659    0.299506    0.023699    11.00000   -1.50000
AFIX   0
O332  3    0.725362    0.411786    0.416224    11.00000    0.05481    0.06352 =
         0.04686    0.02471   -0.02101    0.00681
O321  3    0.845238    0.592377    0.194724    11.00000    0.02605    0.05734 =
         0.06426    0.02762    0.00536    0.00293
O312  3    0.249475    0.757906    0.243228    11.00000    0.06614    0.05697 =
         0.06174    0.01267    0.00907    0.04168
O322  3    0.665841    0.759050    0.152761    11.00000    0.03994    0.05373 =
         0.09483    0.05126    0.00729   -0.00188
O331  3    0.724938    0.215714    0.252369    11.00000    0.07967    0.05612 =
         0.06549    0.00797   -0.01635    0.04317
O342  3    0.153245    0.395646    0.315347    11.00000    0.04671    0.05942 =
         0.15256    0.05846    0.03513    0.00863
N21   1   -0.017593   -0.003110    0.328122    11.00000    0.02801    0.02687 =
         0.02985    0.01189    0.00230    0.00462
AFIX 137
H21A  2    0.078715    0.046516    0.309151    11.00000   -1.50000
H21B  2   -0.106270    0.057539    0.316981    11.00000   -1.50000
H21C  2   -0.032885   -0.114740    0.283371    11.00000   -1.50000
AFIX   0
N12   1    0.259323   -0.019897    0.015929    11.00000    0.02692    0.02855 =
         0.05069    0.00775   -0.00079    0.00154
AFIX 137
H12A  2    0.311708    0.088247    0.037703    11.00000   -1.50000
H12B  2    0.298146   -0.080898   -0.052563    11.00000   -1.50000
H12C  2    0.280878   -0.075692    0.069572    11.00000   -1.50000
AFIX   0
O341  3    0.318502    0.193390    0.297794    11.00000    0.04671    0.05942 =
         0.15256    0.05846    0.03513    0.00863
O351  3    0.506104    0.791539    0.460749    11.00000    0.12075    0.04957 =
         0.03836   -0.01324    0.01149   -0.00664
HKLF 4

REM  kru216 in P-1
REM R1 =  0.0243 for    2430 Fo > 4sig(Fo)  and  0.0343 for all    3226 data
REM    192 parameters refined using      0 restraints

END

WGHT      0.0207      0.5366

REM Instructions for potential hydrogen bonds
HTAB O1 O311
HTAB O1 O311_$3
HTAB O1 O322_$3
HTAB N22 O332_$4
HTAB N22 O321_$4
HTAB N22 O312_$5
HTAB N22 O342_$5
HTAB N22 O332_$6
HTAB N11 O321_$6
HTAB N11 O342
HTAB N11 O311_$7
HTAB N11 O311
HTAB N11 O322_$3
HTAB N21 O341
HTAB N21 O331_$6
HTAB N21 O321_$8
HTAB N12 O1
HTAB N12 O1_$10
HTAB N12 O331_$10
HTAB N12 O311_$9

REM Highest difference peak  0.881,  deepest hole -0.743,  1-sigma level  0.086
Q1    1   0.3121  0.2647  0.3723  11.00000  0.05    0.88
Q2    1   0.7006  0.7554  0.1327  11.00000  0.05    0.43
Q3    1   0.2324  0.4050  0.3766  11.00000  0.05    0.42
Q4    1   0.2466  0.1787  0.2485  11.00000  0.05    0.41
Q5    1   0.3856  0.1736  0.2802  11.00000  0.05    0.41
;
_shelx_res_checksum              43405
_shelx_hkl_file
;
  -1   0   0    4.85    0.18
   1   0   0    4.89    0.18
   1   0   0    4.90    0.18
  -2   0   0  257.11    7.28
  -2   0   0  266.47    7.23
   2   0   0  255.77    7.38
   2   0   0  239.86    7.14
  -3   0   0   63.50    1.84
   3   0   0   61.70    1.83
  -4   0   0  539.45   14.62
  -4   0   0  533.30   14.73
   4   0   0  505.43   14.61
  -5   0   0   25.55    0.87
   5   0   0   25.50    0.70
   5   0   0   24.97    0.85
  -6   0   0  254.97    7.33
   6   0   0  257.51    6.69
   6   0   0  263.02    7.32
  -7   0   0    5.43    0.36
   7   0   0    5.37    0.34
   7   0   0    5.72    0.18
  -8   0   0   69.29    2.22
  -9   0   0   -0.21    0.11
 -10   0   0   35.04    1.35
 -10   1   0   -0.25    0.11
  -9   1   0   55.35    1.85
  -8   1   0    1.34    0.21
  -7   1   0  118.21    3.50
   6  -1   0    3.58    0.22
  -6   1   0    3.29    0.25
  -6   1   0    3.31    0.25
   5  -1   0  203.43    5.86
  -5   1   0  205.86    5.88
  -5   1   0  214.78    5.89
   4  -1   0    1.65    0.13
  -4   1   0    1.88    0.14
  -4   1   0    1.74    0.15
   3  -1   0  616.71   17.51
  -3   1   0  604.67   17.50
  -3   1   0  643.68   17.59
   2  -1   0   34.85    0.99
   2  -1   0   33.69    0.99
  -2   1   0   34.08    1.00
  -2   1   0   34.33    1.00
   0  -1   0   51.40    1.41
   0  -1   0   54.01    1.51
   0  -1   0   55.12    1.51
   0  -1   0   55.36    1.43
   0   1   0   52.73    1.51
   0   1   0   54.47    1.51
  -1  -1   0  630.21   16.50
  -1  -1   0  619.24   17.68
  -1  -1   0  643.56   17.77
   1   1   0  606.33   17.70
   1   1   0  645.68   17.77
   1   1   0  648.52   16.54
  -2  -1   0   12.91    0.46
  -2  -1   0   14.68    0.47
   2   1   0   13.05    0.40
   2   1   0   13.23    0.46
   2   1   0   13.45    0.46
  -3  -1   0  243.11    6.99
   3   1   0  246.47    6.50
   3   1   0  258.39    7.00
  -4  -1   0    4.51    0.26
   4   1   0    4.54    0.18
   4   1   0    3.77    0.24
  -5  -1   0  309.85    8.80
   5   1   0  314.74    8.16
   5   1   0  312.61    8.79
  -6  -1   0    1.04    0.19
   6   1   0    1.35    0.10
   6   1   0    1.29    0.18
  -7  -1   0   55.00    1.76
   7   1   0   52.02    1.73
  -8  -1   0    0.46    0.17
  -9  -1   0   49.82    1.75
 -10  -1   0    0.03    0.16
 -10   2   0   33.55    1.26
  -9   2   0    0.84    0.19
  -8   2   0   54.11    1.74
   7  -2   0    1.30    0.08
  -7   2   0    1.26    0.18
   6  -2   0  113.03    3.26
  -6   2   0  117.28    3.32
  -6   2   0  112.31    3.31
   5  -2   0    5.94    0.25
  -5   2   0    5.72    0.28
  -5   2   0    6.37    0.29
   4  -2   0  275.87    7.56
  -4   2   0  273.32    7.54
  -4   2   0  262.03    7.54
   3  -2   0    7.61    0.24
  -3   2   0    7.23    0.27
  -3   2   0    7.89    0.27
  -2   2   0  183.37    5.10
  -2   2   0  180.71    5.08
  -1   2   0   22.03    0.63
  -1   2   0   22.05    0.63
   0  -2   0  158.94    4.19
   0  -2   0  164.51    4.52
   0  -2   0  162.81    4.58
   0  -2   0  159.04    4.22
   0   2   0  164.71    4.58
   0   2   0  156.97    4.58
  -1  -2   0   25.27    0.81
  -1  -2   0   27.04    0.77
   1   2   0   25.89    0.82
   1   2   0   25.16    0.77
   1   2   0   28.08    0.82
  -2  -2   0  455.48   12.19
  -2  -2   0  451.14   13.16
   2   2   0  480.41   13.06
   2   2   0  462.31   13.11
   2   2   0  455.23   12.19
  -3  -2   0   -0.07    0.06
   3   2   0   -0.08    0.04
   3   2   0   -0.05    0.07
  -4  -2   0  104.20    3.05
   4   2   0  104.73    2.78
   4   2   0  103.31    3.05
  -5  -2   0    3.08    0.25
   5   2   0    3.01    0.25
   5   2   0    3.07    0.17
  -6  -2   0   74.65    2.33
   6   2   0   74.55    2.32
   6   2   0   75.77    2.04
  -7  -2   0    1.29    0.23
   7   2   0    1.50    0.22
  -8  -2   0   77.35    2.48
   8   2   0   75.95    2.45
  -9  -2   0    0.15    0.16
  -9   3   0   47.35    1.58
  -8   3   0    0.46    0.14
   7  -3   0   82.50    2.19
  -7   3   0   80.55    2.43
   6  -3   0    4.54    0.21
  -6   3   0    5.01    0.26
  -6   3   0    4.62    0.26
  -5   3   0  115.75    3.34
  -5   3   0  118.81    3.34
  -4   3   0    0.20    0.05
  -4   3   0    0.19    0.06
  -3   3   0  318.25    8.97
  -3   3   0  323.98    8.96
   2  -3   0   40.67    1.16
   1  -3   0  351.20    9.14
  -1   3   0  347.85    9.83
  -1   3   0  354.42    9.85
   0  -3   0   98.94    2.75
   0  -3   0   97.58    2.63
   0  -3   0   97.03    2.53
   0   3   0   96.62    2.77
   0   3   0   99.33    2.77
  -1  -3   0  386.65   10.71
  -1  -3   0  388.10   10.00
   1   3   0  390.22    9.73
   1   3   0  358.01   10.54
   1   3   0  372.76   10.63
  -2  -3   0    6.83    0.29
  -2  -3   0    7.33    0.32
   2   3   0    7.13    0.32
   2   3   0    7.11    0.30
   2   3   0    6.68    0.32
  -3  -3   0  273.12    7.13
  -3  -3   0  265.18    7.66
   3   3   0  269.94    7.68
   3   3   0  281.01    7.13
  -4  -3   0   31.78    1.07
   4   3   0   31.25    0.95
   4   3   0   31.80    1.08
  -5  -3   0  117.99    3.49
   5   3   0  119.87    3.49
   5   3   0  115.12    3.17
  -6  -3   0    3.66    0.32
   6   3   0    3.74    0.32
  -7  -3   0   90.53    2.90
   7   3   0   95.46    2.91
  -8  -3   0   -0.13    0.14
   8   3   0    0.12    0.15
  -9  -3   0   33.76    1.35
  -9   4   0    0.09    0.10
  -8   4   0   82.25    2.47
   7  -4   0    0.08    0.07
  -7   4   0    0.15    0.09
   6  -4   0   67.81    1.89
  -6   4   0   68.29    2.01
  -6   4   0   68.61    2.00
   5  -4   0   23.00    0.75
  -5   4   0   23.61    0.74
  -5   4   0   24.28    0.74
   4  -4   0  272.90    7.32
  -4   4   0  281.04    7.77
  -4   4   0  283.84    7.77
   3  -4   0    0.52    0.11
  -3   4   0    0.51    0.04
   2  -4   0  301.01    8.04
  -2   4   0  311.46    8.57
  -2   4   0  309.40    8.55
   1  -4   0   11.95    0.45
   1  -4   0   11.80    0.39
  -1   4   0   11.62    0.39
  -1   4   0   12.34    0.39
   0  -4   0  267.42    7.12
   0  -4   0  278.15    7.54
   0   4   0  266.15    7.57
   0   4   0  273.51    7.57
  -1  -4   0    8.39    0.33
  -1  -4   0    8.37    0.36
   1   4   0    8.92    0.35
   1   4   0    8.07    0.35
  -2  -4   0  354.33    9.98
  -2  -4   0  347.47    9.33
   2   4   0  348.87   10.00
   2   4   0  377.74   10.06
  -3  -4   0    5.96    0.31
  -3  -4   0    5.27    0.28
   3   4   0    5.18    0.32
  -4  -4   0  180.05    5.04
  -4  -4   0  171.11    4.66
   4   4   0  172.55    5.05
  -5  -4   0    0.78    0.17
   5   4   0    1.29    0.22
  -6  -4   0   73.64    2.33
   6   4   0   72.69    2.34
  -7  -4   0    0.03    0.15
   7   4   0    0.01    0.14
  -8  -4   0   54.58    1.93
   8   4   0   56.47    1.94
  -9   5   0   28.80    1.00
  -8   5   0    0.39    0.11
   7  -5   0  109.21    3.02
  -7   5   0  112.08    3.19
   6  -5   0    1.61    0.17
  -6   5   0    1.64    0.13
  -6   5   0    1.53    0.13
   5  -5   0   54.74    1.64
  -5   5   0   58.68    1.63
  -5   5   0   57.20    1.63
   4  -5   0    0.60    0.11
   3  -5   0  254.08    6.67
  -3   5   0  254.52    6.98
  -3   5   0  248.22    6.99
   2  -5   0   16.92    0.55
   2  -5   0   16.43    0.61
  -2   5   0   17.12    0.52
  -2   5   0   17.04    0.52
   1  -5   0  152.87    4.00
   1  -5   0  150.33    4.15
  -1   5   0  151.58    4.33
  -1   5   0  160.98    4.33
   0  -5   0   24.10    0.73
   0  -5   0   24.08    0.80
   0   5   0   23.28    0.78
   0   5   0   23.94    0.78
  -1  -5   0  203.96    5.75
  -1  -5   0  199.54    5.44
   1   5   0  202.86    5.79
   1   5   0  210.66    5.79
  -2  -5   0    9.42    0.41
  -2  -5   0    9.52    0.43
   2   5   0    9.33    0.44
  -3  -5   0  120.41    3.34
  -3  -5   0  122.86    3.56
   3   5   0  121.96    3.59
  -4  -5   0    0.09    0.10
  -4  -5   0    0.02    0.08
   4   5   0    0.02    0.11
  -5  -5   0   92.83    2.83
   5   5   0   90.96    2.85
  -6  -5   0    0.17    0.14
   6   5   0    0.06    0.14
  -7  -5   0   53.18    1.85
   7   5   0   52.62    1.86
  -8  -5   0    0.17    0.18
   8   5   0    0.05    0.17
  -8   6   0   36.06    1.12
   7  -6   0    0.11    0.09
  -7   6   0   -0.02    0.05
   6  -6   0   78.59    2.23
  -6   6   0   78.33    2.20
  -6   6   0   76.73    2.20
   5  -6   0    2.18    0.22
   4  -6   0   95.94    2.67
   4  -6   0   97.60    2.72
   3  -6   0    0.83    0.15
   3  -6   0    0.93    0.13
  -3   6   0    1.03    0.07
  -3   6   0    0.92    0.07
   2  -6   0  172.26    4.53
   2  -6   0  169.35    4.68
  -2   6   0  175.41    4.84
  -2   6   0  174.59    4.84
   1  -6   0    3.53    0.18
   1  -6   0    3.53    0.27
  -1   6   0    3.71    0.20
  -1   6   0    3.21    0.20
   0  -6   0  131.70    3.67
   0   6   0  138.52    3.84
   0   6   0  130.29    3.83
  -1  -6   0    0.62    0.14
  -1  -6   0    0.79    0.11
   1   6   0    0.69    0.14
   1   6   0    0.74    0.13
  -2  -6   0  122.80    3.58
  -2  -6   0  123.82    3.43
   2   6   0  123.43    3.63
  -3  -6   0    0.09    0.09
  -3  -6   0    0.04    0.09
   3   6   0    0.08    0.11
  -4  -6   0   96.10    2.73
  -4  -6   0   98.14    2.91
   4   6   0   92.77    2.94
  -5  -6   0   -0.06    0.10
   5   6   0    0.16    0.14
  -6  -6   0   52.72    1.82
   6   6   0   53.40    1.86
  -7  -6   0    0.07    0.15
   7   6   0   -0.30    0.11
   7  -7   0   39.34    1.34
   6  -7   0    0.01    0.09
   6  -7   0    0.11    0.10
   5  -7   0  103.79    2.90
   5  -7   0  102.59    2.93
   4  -7   0    1.08    0.18
   4  -7   0    0.79    0.15
   3  -7   0   63.36    1.96
   3  -7   0   67.59    1.87
  -3   7   0   67.41    1.88
  -3   7   0   64.76    1.88
   2  -7   0    1.32    0.20
   2  -7   0    1.59    0.16
  -2   7   0    1.52    0.13
  -2   7   0    1.55    0.13
   1  -7   0  137.19    3.92
  -1   7   0  145.69    4.05
  -1   7   0  141.13    4.04
   0  -7   0    0.23    0.12
   0   7   0    0.07    0.08
  -1  -7   0  127.74    3.59
   1   7   0  128.18    3.75
  -2  -7   0    5.57    0.37
   2   7   0    4.96    0.35
  -3  -7   0   67.91    2.05
   3   7   0   67.64    2.17
  -4  -7   0    0.42    0.15
   4   7   0    0.41    0.16
   5   7   0   56.51    1.95
   6   7   0    0.15    0.16
   6  -8   0   40.48    1.37
   6  -8   0   42.56    1.38
   5  -8   0    0.35    0.14
   5  -8   0    0.08    0.12
   4  -8   0   51.80    1.66
   4  -8   0   52.50    1.57
   3  -8   0    4.80    0.36
   3  -8   0    5.54    0.30
  -3   8   0    4.78    0.21
   2  -8   0   60.59    1.87
  -2   8   0   58.90    1.77
   1  -8   0    1.72    0.25
  -1   8   0    1.50    0.17
   0  -8   0   82.79    2.42
   0   8   0   77.98    2.42
  -1  -8   0    2.11    0.27
   1   8   0    2.06    0.25
  -2  -8   0   39.09    1.35
   2   8   0   40.14    1.39
  -3  -8   0    1.27    0.23
   3   8   0    1.31    0.24
   4   8   0   43.41    1.57
   5   8   0    0.85    0.24
   4  -9   0    0.74    0.19
   3  -9   0   39.28    1.38
  -3   9   0   39.15    1.17
   2  -9   0   -0.01    0.12
  -2   9   0    0.00    0.07
   1  -9   0   32.27    1.19
  -1   9   0   30.97    1.06
   0  -9   0    0.26    0.16
   0   9   0    0.39    0.13
  -1  -9   0   34.91    1.27
   1   9   0   34.65    1.24
  -2  -9   0    0.09    0.14
   2   9   0    0.18    0.14
  -3  -9   0   30.61    1.17
   3   9   0   29.74    1.19
   3   9  -1    2.11    0.32
  -3  -9   1    2.62    0.34
   2   9  -1    0.74    0.19
  -2  -9   1    0.67    0.20
   1   9  -1    0.21    0.13
  -1  -9   1    0.00    0.14
   0   9  -1    0.04    0.09
   0  -9   1   -0.08    0.12
  -1   9  -1    0.04    0.09
   1  -9   1   -0.19    0.10
  -2   9  -1    0.21    0.08
   2  -9   1    0.10    0.13
  -3   9  -1    0.18    0.06
   3  -9   1    0.35    0.16
   4  -9   1   -0.26    0.07
   4  -9   1   -0.10    0.11
   5   8  -1    0.51    0.22
   4   8  -1    1.89    0.29
  -4  -8   1    2.04    0.27
   3   8  -1    0.26    0.16
  -3  -8   1    0.16    0.14
   2   8  -1    1.08    0.21
  -2  -8   1    0.46    0.16
   1   8  -1    0.20    0.12
  -1  -8   1    0.24    0.15
   0   8  -1    0.21    0.11
   0  -8   1    0.16    0.13
  -1   8  -1   -0.05    0.07
   1  -8   1   -0.17    0.10
  -2   8  -1    0.81    0.12
   2  -8   1    1.17    0.21
  -3   8  -1    0.44    0.07
  -3   8  -1    0.47    0.07
   3  -8   1    0.54    0.17
   3  -8   1    0.25    0.11
   4  -8   1   -0.10    0.08
   4  -8   1   -0.10    0.10
   5  -8   1   -0.10    0.10
   5  -8   1    0.16    0.12
   6  -8   1   -0.10    0.11
   6  -8   1    0.00    0.10
   6   7  -1    2.14    0.33
   5   7  -1    2.80    0.35
   4   7  -1    4.15    0.37
  -4  -7   1    2.98    0.31
   3   7  -1    1.05    0.21
  -3  -7   1    1.18    0.20
   2   7  -1   -0.13    0.08
  -2  -7   1   -0.01    0.10
   1   7  -1    2.03    0.22
  -1  -7   1    2.31    0.25
   0   7  -1    6.45    0.34
   0  -7   1    6.74    0.40
  -1   7  -1    4.91    0.26
  -1   7  -1    5.07    0.27
   1  -7   1    5.96    0.36
  -2   7  -1    0.04    0.05
  -2   7  -1    0.05    0.05
   2  -7   1    0.01    0.07
   2  -7   1    0.00    0.10
  -3   7  -1    0.06    0.03
  -3   7  -1    0.04    0.04
   3  -7   1    0.01    0.09
   3  -7   1    0.03    0.07
   4  -7   1    0.10    0.08
   4  -7   1   -0.01    0.09
   5  -7   1    2.03    0.23
   5  -7   1    1.49    0.21
   6  -7   1    0.20    0.12
   6  -7   1    0.16    0.11
   7  -7   1   -0.06    0.11
   7  -7   1   -0.04    0.09
   7   6  -1    2.13    0.35
  -7  -6   1    2.22    0.33
   6   6  -1    5.67    0.45
  -6  -6   1    5.98    0.44
   5   6  -1    3.71    0.37
  -5  -6   1    3.82    0.34
  -5  -6   1    3.71    0.29
   4   6  -1    0.70    0.19
  -4  -6   1    0.76    0.16
  -4  -6   1    0.70    0.16
   3   6  -1    0.10    0.12
   3   6  -1    0.23    0.05
  -3  -6   1    0.21    0.11
  -3  -6   1    0.19    0.10
   2   6  -1    3.48    0.28
  -2  -6   1    4.26    0.29
  -2  -6   1    3.94    0.25
   1   6  -1    7.03    0.35
   1   6  -1    6.49    0.34
  -1  -6   1    6.49    0.37
  -1  -6   1    6.96    0.31
   0   6  -1    1.72    0.17
   0   6  -1    1.94    0.17
   0  -6   1    1.74    0.21
  -1   6  -1   -0.01    0.05
  -1   6  -1   -0.01    0.05
   1  -6   1   -0.06    0.09
  -2   6  -1    0.33    0.06
  -2   6  -1    0.35    0.07
   2  -6   1    0.25    0.11
   2  -6   1    0.39    0.09
   3  -6   1    0.00    0.08
   3  -6   1   -0.04    0.07
   4  -6   1    0.24    0.10
   4  -6   1    0.12    0.09
   5  -6   1   -0.10    0.08
   5  -6   1   -0.11    0.07
  -6   6  -1    0.04    0.04
  -6   6  -1    0.02    0.04
   6  -6   1   -0.08    0.06
   6  -6   1   -0.07    0.08
  -7   6  -1    0.40    0.08
   7  -6   1    0.50    0.15
   7  -6   1    0.60    0.13
  -8   6  -1    0.06    0.07
   8  -6   1    0.29    0.15
   8   5  -1    0.30    0.19
  -8  -5   1    0.42    0.21
   7   5  -1    2.75    0.35
  -7  -5   1    3.33    0.39
   6   5  -1    0.21    0.16
  -6  -5   1    0.32    0.15
   5   5  -1    2.78    0.33
  -5  -5   1    3.07    0.33
   4   5  -1    0.74    0.18
  -4  -5   1    0.51    0.15
  -4  -5   1    0.62    0.14
   3   5  -1    1.98    0.23
  -3  -5   1    2.16    0.22
  -3  -5   1    2.06    0.20
   2   5  -1    0.01    0.08
   2   5  -1    0.02    0.08
   2   5  -1    0.00    0.03
  -2  -5   1   -0.01    0.08
  -2  -5   1    0.01    0.06
   1   5  -1    0.41    0.10
   1   5  -1    0.51    0.10
  -1  -5   1    0.44    0.11
  -1  -5   1    0.46    0.09
   0   5  -1    1.44    0.14
   0   5  -1    1.58    0.14
   0  -5   1    1.70    0.11
   0  -5   1    1.62    0.18
  -1   5  -1    0.36    0.07
  -1   5  -1    0.26    0.06
   1  -5   1    0.24    0.10
   1  -5   1    0.26    0.07
  -2   5  -1    0.13    0.04
  -2   5  -1    0.09    0.04
   2  -5   1    0.14    0.06
   2  -5   1    0.05    0.08
   3  -5   1    0.35    0.11
   3  -5   1    0.41    0.10
   4  -5   1   -0.14    0.06
  -5   5  -1    0.12    0.04
  -5   5  -1    0.17    0.05
   5  -5   1    0.08    0.08
  -6   5  -1    0.65    0.09
  -6   5  -1    0.63    0.09
   6  -5   1    0.66    0.12
  -7   5  -1    1.41    0.15
   7  -5   1    1.20    0.15
  -8   5  -1    0.20    0.10
  -9   5  -1    0.06    0.10
  -9  -4   1    0.26    0.20
   8   4  -1    1.16    0.25
  -8  -4   1    1.03    0.27
   7   4  -1   -0.02    0.14
  -7  -4   1   -0.08    0.13
   6   4  -1    2.88    0.33
  -6  -4   1    2.47    0.29
   5   4  -1    1.85    0.25
  -5  -4   1    2.05    0.26
   4   4  -1    4.45    0.31
  -4  -4   1    4.49    0.31
  -4  -4   1    4.40    0.25
   3   4  -1    0.48    0.12
  -3  -4   1    0.58    0.13
  -3  -4   1    0.62    0.12
   2   4  -1    1.51    0.17
   2   4  -1    1.18    0.16
  -2  -4   1    1.33    0.15
  -2  -4   1    1.01    0.13
   1   4  -1    0.31    0.05
   1   4  -1    0.25    0.08
   1   4  -1    0.29    0.08
  -1  -4   1    0.27    0.09
  -1  -4   1    0.27    0.06
   0   4  -1    0.24    0.06
   0   4  -1    0.31    0.07
   0  -4   1    0.30    0.09
   0  -4   1    0.35    0.06
  -1   4  -1    0.00    0.04
  -1   4  -1    0.03    0.04
   1  -4   1    0.04    0.04
  -2   4  -1    2.21    0.09
  -2   4  -1    2.18    0.09
   2  -4   1    2.18    0.15
  -4   4  -1    0.11    0.04
  -4   4  -1    0.17    0.04
  -5   4  -1    1.33    0.12
  -6   4  -1    0.02    0.06
  -6   4  -1   -0.02    0.06
  -7   4  -1    0.02    0.09
  -8   4  -1    0.28    0.11
  -9   4  -1    1.37    0.21
  -9  -3   1    0.59    0.22
   8   3  -1    2.59    0.33
  -8  -3   1    2.46    0.33
   7   3  -1    2.80    0.33
  -7  -3   1    2.51    0.31
   6   3  -1    0.02    0.11
  -6  -3   1    0.00    0.12
   5   3  -1    1.22    0.20
  -5  -3   1    0.83    0.18
   4   3  -1    6.48    0.35
  -4  -3   1    6.14    0.34
  -4  -3   1    5.71    0.26
   3   3  -1    4.27    0.26
  -3  -3   1    4.09    0.25
  -3  -3   1    4.41    0.21
   2   3  -1    0.48    0.10
   2   3  -1    0.29    0.08
  -2  -3   1    0.29    0.07
  -2  -3   1    0.52    0.09
   1   3  -1    1.75    0.13
   1   3  -1    1.58    0.13
  -1  -3   1    1.78    0.14
  -1  -3   1    1.62    0.12
   0   3  -1    7.25    0.27
   0   3  -1    7.59    0.27
   0   3  -1    7.69    0.24
   0  -3   1    7.18    0.25
  -1   3  -1   17.57    0.50
  -1   3  -1   16.70    0.50
   1  -3   1   16.13    0.50
  -3   3  -1    0.62    0.06
  -3   3  -1    0.60    0.05
  -4   3  -1   -0.04    0.04
  -4   3  -1   -0.01    0.04
  -5   3  -1    0.41    0.09
  -5   3  -1    0.33    0.08
  -6   3  -1    1.64    0.17
  -6   3  -1    1.72    0.17
  -7   3  -1    0.18    0.09
  -8   3  -1    0.87    0.17
  -9   3  -1    0.13    0.12
  -9  -2   1    0.68    0.21
   8   2  -1    2.51    0.30
  -8  -2   1    3.30    0.35
   7   2  -1    2.26    0.28
  -7  -2   1    1.68    0.24
   6   2  -1    1.77    0.23
  -6  -2   1    1.62    0.22
   5   2  -1   -0.02    0.09
  -5  -2   1    0.03    0.09
   4   2  -1    0.15    0.09
  -4  -2   1    0.10    0.09
   3   2  -1    1.86    0.18
  -3  -2   1    1.71    0.12
  -3  -2   1    2.08    0.17
   2   2  -1   22.02    0.70
   2   2  -1   21.31    0.69
  -2  -2   1   21.05    0.62
  -2  -2   1   20.94    0.69
   1   2  -1    1.97    0.13
   1   2  -1    1.91    0.13
  -1  -2   1    1.76    0.12
  -1  -2   1    1.93    0.12
   0   2  -1    5.47    0.19
   0   2  -1    5.21    0.19
   0   2  -1    5.08    0.18
   0  -2   1    5.12    0.18
   0  -2   1    5.01    0.18
  -1   2  -1    3.94    0.13
  -1   2  -1    4.09    0.13
   1  -2   1    4.15    0.17
  -2   2  -1    0.53    0.05
  -2   2  -1    0.56    0.05
  -3   2  -1    0.17    0.05
  -3   2  -1    0.21    0.05
   3  -2   1    0.16    0.03
  -4   2  -1    1.61    0.13
  -4   2  -1    1.67    0.13
   4  -2   1    1.46    0.10
  -5   2  -1    3.33    0.21
  -5   2  -1    3.40    0.21
   5  -2   1    3.27    0.18
  -6   2  -1    1.18    0.15
  -6   2  -1    0.85    0.14
   6  -2   1    1.00    0.12
  -7   2  -1    0.01    0.10
  -8   2  -1    1.20    0.20
  -9   2  -1    1.61    0.25
 -10   2  -1    0.69    0.21
 -10  -1   1   -0.14    0.14
  -9  -1   1    5.16    0.42
  -8  -1   1    1.61    0.25
   7   1  -1    2.67    0.27
  -7  -1   1    3.36    0.33
   6   1  -1    0.32    0.11
  -6  -1   1    0.51    0.15
   5   1  -1    8.26    0.40
  -5  -1   1    8.16    0.41
   4   1  -1    0.71    0.12
  -4  -1   1    0.71    0.12
   3   1  -1    7.90    0.33
  -3  -1   1    8.28    0.34
   2   1  -1   13.03    0.43
  -2  -1   1   11.94    0.43
  -2  -1   1   12.80    0.43
  -2  -1   1   12.04    0.36
   1   1  -1    1.23    0.11
   1   1  -1    1.16    0.10
  -1  -1   1    1.01    0.10
  -1  -1   1    1.15    0.10
   0   1  -1    0.38    0.04
   0   1  -1    0.50    0.04
   0  -1   1    0.42    0.04
  -1   1  -1   -0.11    0.03
  -1   1  -1   -0.08    0.03
   1  -1   1   -0.13    0.04
   1  -1   1   -0.05    0.03
   1  -1   1   -0.04    0.03
  -2   1  -1   14.57    0.46
  -2   1  -1   14.96    0.46
   2  -1   1   15.23    0.46
  -3   1  -1    9.20    0.33
  -3   1  -1    8.68    0.32
   3  -1   1    8.63    0.31
  -4   1  -1    0.00    0.05
  -4   1  -1    0.02    0.06
   4  -1   1    0.07    0.05
  -5   1  -1    1.50    0.17
  -5   1  -1    0.89    0.13
   5  -1   1    1.10    0.13
  -6   1  -1    2.80    0.24
  -6   1  -1    2.90    0.23
   6  -1   1    3.03    0.22
  -7   1  -1    3.93    0.30
  -8   1  -1    0.72    0.18
  -9   1  -1    0.67    0.18
 -10   1  -1    1.60    0.28
 -10   0   1    2.56    0.34
  -9   0   1    0.23    0.16
  -8   0   1    2.75    0.31
   7   0  -1    0.40    0.12
  -7   0   1    0.36    0.14
   6   0  -1    5.26    0.31
  -6   0   1    5.23    0.33
   5   0  -1    1.02    0.14
  -5   0   1    0.95    0.14
  -5   0   1    0.95    0.15
   4   0  -1    4.14    0.23
  -4   0   1    4.36    0.24
  -4   0   1    4.03    0.23
   3   0  -1    2.00    0.14
  -3   0   1    2.12    0.15
  -3   0   1    1.99    0.14
   2   0  -1   24.22    0.72
  -2   0   1   22.67    0.72
  -2   0   1   24.28    0.72
   1   0  -1   -0.03    0.03
   1   0  -1    0.03    0.03
  -1   0   1   -0.04    0.02
  -1   0   1   -0.02    0.03
   0   0  -1    0.76    0.04
   0   0  -1    0.63    0.04
   0   0   1    0.51    0.04
   0   0   1    0.82    0.04
  -1   0  -1    1.95    0.10
  -1   0  -1    2.01    0.11
   1   0   1    2.00    0.10
   1   0   1    2.10    0.10
  -2   0  -1   15.67    0.49
  -2   0  -1   15.02    0.49
   2   0   1   14.61    0.49
  -3   0  -1    1.89    0.14
  -3   0  -1    1.68    0.14
   3   0   1    1.61    0.13
  -4   0  -1    1.15    0.14
  -4   0  -1    1.63    0.17
   4   0   1    1.38    0.15
  -5   0  -1    7.89    0.38
   5   0   1    8.40    0.37
  -6   0  -1    0.90    0.16
   6   0   1    1.33    0.11
   6   0   1    1.18    0.17
  -7   0  -1    0.71    0.17
   7   0   1    0.74    0.16
   7   0   1    0.91    0.09
  -8   0  -1    0.28    0.14
  -9   0  -1    2.43    0.32
 -10   0  -1    0.28    0.17
 -10   1   1    0.13    0.16
  -9   1   1    0.85    0.20
  -8   1   1    1.18    0.20
  -7   1   1    1.58    0.21
   6  -1  -1    0.05    0.07
  -6   1   1    0.07    0.08
  -6   1   1    0.17    0.10
   5  -1  -1    0.66    0.11
  -5   1   1    0.55    0.10
  -5   1   1    0.54    0.11
   4  -1  -1    3.13    0.11
   4  -1  -1    3.18    0.17
  -4   1   1    3.21    0.19
  -4   1   1    3.07    0.18
   3  -1  -1    0.68    0.05
   3  -1  -1    0.70    0.08
  -3   1   1    0.56    0.08
  -3   1   1    0.57    0.08
   2  -1  -1    4.50    0.16
   2  -1  -1    4.69    0.17
  -2   1   1    4.41    0.18
  -2   1   1    4.58    0.18
   1  -1  -1    0.35    0.03
   1  -1  -1    0.28    0.04
   1  -1  -1    0.32    0.05
  -1   1   1    0.25    0.04
  -1   1   1    0.32    0.04
  -1   1   1    0.33    0.04
   0  -1  -1    0.02    0.03
   0  -1  -1   -0.01    0.01
   0  -1  -1   -0.03    0.02
   0   1   1   -0.02    0.03
   0   1   1   -0.01    0.03
   0   1   1   -0.02    0.02
  -1  -1  -1    0.29    0.06
  -1  -1  -1    0.21    0.05
   1   1   1    0.26    0.05
   1   1   1    0.27    0.05
   1   1   1    0.14    0.05
  -2  -1  -1    7.60    0.30
  -2  -1  -1    7.70    0.29
   2   1   1    7.30    0.25
   2   1   1    6.67    0.29
  -3  -1  -1    0.16    0.07
   3   1   1    0.12    0.05
   3   1   1    0.13    0.07
  -4  -1  -1    0.96    0.14
   4   1   1    0.90    0.13
   4   1   1    0.87    0.09
  -5  -1  -1    3.66    0.26
   5   1   1    3.26    0.17
   5   1   1    3.58    0.25
  -6  -1  -1    4.76    0.34
   6   1   1    5.02    0.33
   6   1   1    5.46    0.23
  -7  -1  -1    0.15    0.12
   7   1   1    0.15    0.06
   7   1   1    0.19    0.11
  -8  -1  -1    0.29    0.15
  -9  -1  -1   -0.06    0.14
 -10   2   1    1.98    0.29
  -9   2   1    0.04    0.11
  -8   2   1    0.64    0.16
  -7   2   1    0.29    0.12
   6  -2  -1    4.07    0.15
   6  -2  -1    4.25    0.22
  -6   2   1    4.04    0.25
  -6   2   1    3.58    0.25
   5  -2  -1    0.63    0.07
   5  -2  -1    0.55    0.08
  -5   2   1    0.63    0.10
  -5   2   1    0.64    0.10
   4  -2  -1    0.57    0.07
   4  -2  -1    0.45    0.06
  -4   2   1    0.55    0.08
  -4   2   1    0.35    0.08
   3  -2  -1    2.03    0.12
   3  -2  -1    2.11    0.09
  -3   2   1    1.78    0.11
  -3   2   1    2.04    0.12
   2  -2  -1    1.82    0.11
  -2   2   1    1.88    0.09
  -2   2   1    1.85    0.09
   1  -2  -1    8.67    0.25
   1  -2  -1    7.97    0.29
   1  -2  -1    8.17    0.25
  -1   2   1    8.24    0.29
  -1   2   1    8.02    0.26
  -1   2   1    8.12    0.27
   0  -2  -1    0.42    0.05
   0  -2  -1    0.42    0.08
   0   2   1    0.55    0.07
   0   2   1    0.56    0.06
   0   2   1    0.46    0.06
  -1  -2  -1    0.41    0.07
  -1  -2  -1    0.40    0.07
   1   2   1    0.48    0.07
   1   2   1    0.42    0.07
   1   2   1    0.43    0.07
  -2  -2  -1    4.11    0.22
   2   2   1    4.48    0.23
   2   2   1    4.52    0.20
  -3  -2  -1    7.11    0.32
   3   2   1    6.96    0.27
   3   2   1    6.30    0.32
  -4  -2  -1    3.64    0.24
   4   2   1    3.53    0.25
   4   2   1    3.72    0.19
  -5  -2  -1   -0.11    0.08
   5   2   1   -0.02    0.05
   5   2   1   -0.07    0.08
  -6  -2  -1    0.25    0.12
   6   2   1    0.43    0.09
   6   2   1    0.29    0.12
  -7  -2  -1    0.72    0.19
   7   2   1    0.80    0.19
  -8  -2  -1    3.76    0.39
   8   2   1    4.12    0.37
  -9  -2  -1    0.79    0.24
  -9   3   1    3.04    0.30
  -8   3   1    0.10    0.10
   7  -3  -1    1.61    0.11
  -7   3   1    1.66    0.20
   6  -3  -1    0.11    0.05
  -6   3   1    0.02    0.07
  -6   3   1    0.09    0.07
   5  -3  -1    5.35    0.23
  -5   3   1    5.71    0.26
  -5   3   1    5.15    0.25
   4  -3  -1    0.20    0.06
  -4   3   1    0.12    0.05
  -4   3   1    0.18    0.06
   3  -3  -1    2.01    0.15
  -3   3   1    2.16    0.11
  -3   3   1    2.16    0.11
   2  -3  -1    0.16    0.06
  -2   3   1    0.14    0.03
  -2   3   1    0.18    0.03
   1  -3  -1    8.00    0.25
  -1   3   1    8.13    0.28
  -1   3   1    8.18    0.28
   0  -3  -1    2.20    0.09
   0  -3  -1    2.15    0.12
   0  -3  -1    2.23    0.16
   0   3   1    2.25    0.14
   0   3   1    2.34    0.13
   0   3   1    2.06    0.14
  -1  -3  -1    0.01    0.07
  -1  -3  -1    0.24    0.06
   1   3   1    0.13    0.06
   1   3   1    0.10    0.06
   1   3   1    0.11    0.07
  -2  -3  -1    3.61    0.21
  -2  -3  -1    3.77    0.22
   2   3   1    4.08    0.24
   2   3   1    4.21    0.22
  -3  -3  -1    1.78    0.18
   3   3   1    2.02    0.16
   3   3   1    2.08    0.20
  -4  -3  -1    0.77    0.14
   4   3   1    1.34    0.19
   4   3   1    0.99    0.12
  -5  -3  -1    0.02    0.10
   5   3   1   -0.01    0.10
  -6  -3  -1    0.36    0.16
   6   3   1    0.19    0.13
  -7  -3  -1    5.09    0.40
   7   3   1    4.99    0.39
  -8  -3  -1    1.80    0.29
   8   3   1    2.63    0.34
  -9  -3  -1    0.40    0.21
  -9   4   1   -0.03    0.10
  -8   4   1    0.93    0.17
   7  -4  -1   -0.01    0.05
  -7   4   1    0.03    0.08
   6  -4  -1    1.77    0.16
  -6   4   1    1.57    0.15
  -6   4   1    1.68    0.15
   5  -4  -1    0.23    0.08
  -5   4   1    0.18    0.06
  -5   4   1    0.14    0.06
   4  -4  -1    0.43    0.09
  -4   4   1    0.49    0.07
  -4   4   1    0.44    0.07
   3  -4  -1    0.45    0.10
  -3   4   1    0.63    0.06
  -3   4   1    0.67    0.06
   2  -4  -1    2.11    0.18
  -2   4   1    2.31    0.12
  -2   4   1    2.38    0.12
   1  -4  -1    0.52    0.10
  -1   4   1    0.60    0.07
  -1   4   1    0.57    0.08
   0  -4  -1    0.86    0.09
   0  -4  -1    0.81    0.06
   0  -4  -1    0.83    0.13
   0   4   1    0.74    0.10
   0   4   1    0.76    0.10
  -1  -4  -1    0.15    0.06
  -1  -4  -1    0.31    0.09
   1   4   1    0.21    0.07
   1   4   1    0.19    0.08
  -2  -4  -1    0.53    0.10
  -2  -4  -1    0.47    0.10
   2   4   1    0.53    0.12
  -3  -4  -1    1.67    0.19
  -3  -4  -1    1.47    0.17
   3   4   1    2.12    0.23
  -4  -4  -1    3.78    0.29
   4   4   1    3.69    0.29
  -5  -4  -1    2.61    0.30
   5   4   1    2.08    0.27
  -6  -4  -1    0.26    0.15
   6   4   1    0.42    0.17
  -7  -4  -1    3.63    0.40
   7   4   1    3.67    0.40
  -8  -4  -1    2.64    0.37
   8   4   1    3.24    0.40
  -8   5   1    0.20    0.09
   7  -5  -1   -0.01    0.08
  -7   5   1   -0.07    0.07
   6  -5  -1    0.16    0.08
  -6   5   1    0.09    0.05
  -6   5   1    0.06    0.06
   5  -5  -1    1.07    0.15
  -5   5   1    1.09    0.10
  -5   5   1    1.10    0.10
   4  -5  -1    0.02    0.07
  -4   5   1    0.02    0.04
  -4   5   1    0.04    0.04
   3  -5  -1    2.66    0.21
  -3   5   1    2.83    0.13
  -3   5   1    2.75    0.13
   2  -5  -1    7.05    0.35
  -2   5   1    7.53    0.28
  -2   5   1    7.32    0.27
   1  -5  -1    0.65    0.13
   1  -5  -1    0.58    0.08
  -1   5   1    0.59    0.09
  -1   5   1    0.48    0.08
   0  -5  -1    0.03    0.04
   0  -5  -1    0.09    0.08
   0   5   1    0.07    0.07
   0   5   1    0.06    0.05
  -1  -5  -1    2.60    0.18
  -1  -5  -1    2.47    0.24
   1   5   1    2.70    0.20
   1   5   1    2.49    0.21
  -2  -5  -1   10.44    0.43
  -2  -5  -1    9.94    0.45
   2   5   1   10.10    0.47
  -3  -5  -1    4.27    0.28
  -3  -5  -1    4.88    0.30
   3   5   1    4.06    0.31
  -4  -5  -1    4.41    0.32
   4   5   1    4.55    0.35
  -5  -5  -1    2.97    0.32
   5   5   1    2.56    0.31
  -6  -5  -1    2.74    0.32
   6   5   1    3.36    0.38
  -7  -5  -1    2.44    0.34
   7   5   1    1.94    0.31
  -8  -5  -1    0.97    0.25
   8   5   1    1.43    0.28
  -8   6   1    0.59    0.11
  -7   6   1    0.04    0.05
   6  -6  -1    0.98    0.16
  -6   6   1    1.21    0.10
  -6   6   1    1.41    0.11
   5  -6  -1    0.82    0.15
  -5   6   1    0.93    0.08
  -5   6   1    1.01    0.08
   4  -6  -1    0.03    0.09
  -4   6   1    0.12    0.04
  -4   6   1    0.04    0.04
   3  -6  -1    0.60    0.14
  -3   6   1    0.79    0.08
  -3   6   1    0.76    0.08
   2  -6  -1    0.05    0.09
   2  -6  -1    0.02    0.06
  -2   6   1   -0.04    0.04
  -2   6   1    0.00    0.05
   1  -6  -1    1.73    0.13
   1  -6  -1    1.43    0.20
  -1   6   1    2.00    0.15
  -1   6   1    1.71    0.16
   0  -6  -1    0.57    0.15
   0   6   1    0.50    0.11
   0   6   1    0.48    0.11
  -1  -6  -1    1.66    0.16
  -1  -6  -1    1.63    0.22
   1   6   1    1.35    0.18
  -2  -6  -1    2.25    0.25
  -2  -6  -1    2.57    0.21
   2   6   1    1.91    0.23
  -3  -6  -1    1.57    0.19
  -3  -6  -1    1.50    0.20
   3   6   1    1.81    0.25
  -4  -6  -1    3.60    0.29
   4   6   1    2.34    0.29
  -5  -6  -1    0.58    0.17
   5   6   1    0.15    0.16
  -6  -6  -1    1.81    0.28
   6   6   1    1.75    0.30
   7   6   1    0.53    0.22
   6  -7  -1    0.51    0.14
   5  -7  -1    0.10    0.11
   5  -7  -1    0.02    0.09
   4  -7  -1    0.39    0.13
   4  -7  -1    0.29    0.12
  -4   7   1    0.27    0.05
   3  -7  -1    1.37    0.17
   3  -7  -1    1.22    0.20
  -3   7   1    1.31    0.11
  -3   7   1    1.17    0.11
   2  -7  -1    0.00    0.10
   2  -7  -1    0.00    0.06
  -2   7   1    0.15    0.07
  -2   7   1    0.00    0.05
   1  -7  -1   -0.13    0.10
  -1   7   1   -0.01    0.07
   0  -7  -1    1.93    0.25
   0   7   1    1.98    0.22
  -1  -7  -1    0.80    0.17
   1   7   1    0.80    0.17
  -2  -7  -1    0.10    0.12
   2   7   1   -0.01    0.10
  -3  -7  -1   -0.01    0.12
   3   7   1   -0.08    0.11
   4   7   1    0.26    0.16
   5   7   1    1.94    0.31
   6   7   1    0.82    0.25
   6  -8  -1   -0.04    0.11
   6  -8  -1   -0.10    0.08
   5  -8  -1    0.10    0.11
   5  -8  -1    0.16    0.11
   4  -8  -1   -0.01    0.09
   4  -8  -1   -0.18    0.09
   3  -8  -1    0.02    0.12
   3  -8  -1    0.13    0.09
  -3   8   1    0.09    0.06
   2  -8  -1   -0.26    0.08
  -2   8   1    0.03    0.07
   1  -8  -1    0.75    0.20
  -1   8   1    0.69    0.13
   0  -8  -1    1.34    0.23
   0   8   1    1.35    0.19
  -1  -8  -1   -0.13    0.10
   1   8   1    0.08    0.12
  -2  -8  -1   -0.02    0.12
   2   8   1    0.08    0.13
  -3  -8  -1    0.51    0.18
   3   8   1    0.10    0.15
   4   8   1    1.31    0.26
   5   8   1    1.56    0.32
   4  -9  -1   -0.14    0.10
   3  -9  -1    0.15    0.15
  -3   9   1    0.33    0.07
   2  -9  -1    0.27    0.17
  -2   9   1    0.55    0.12
   1  -9  -1    0.11    0.14
  -1   9   1   -0.09    0.08
   0  -9  -1    0.20    0.15
   0   9   1    0.14    0.12
  -1  -9  -1    0.98    0.24
   1   9   1    1.00    0.21
  -2  -9  -1    0.84    0.22
   2   9   1    0.62    0.20
   0  10  -2    0.45    0.14
   0 -10   2    0.51    0.19
  -1  10  -2   22.43    0.81
   1 -10   2   21.29    0.94
  -2  10  -2    0.05    0.07
   2 -10   2   -0.18    0.12
   4   9  -2   26.11    1.09
  -4  -9   2   23.84    0.99
   3   9  -2    0.15    0.16
  -3  -9   2    0.21    0.16
   2   9  -2   42.02    1.51
  -2  -9   2   45.30    1.51
   1   9  -2    0.13    0.12
  -1  -9   2    0.13    0.14
   0   9  -2   36.63    1.24
   0  -9   2   36.26    1.30
  -1   9  -2    0.54    0.12
   1  -9   2    0.23    0.15
  -2   9  -2   44.21    1.37
   2  -9   2   45.51    1.52
  -3   9  -2    1.00    0.10
   3  -9   2    0.86    0.20
   4  -9   2   38.29    1.34
   5  -9   2    0.28    0.13
   5  -9   2    0.03    0.11
   5   8  -2   41.98    1.56
  -5  -8   2   40.87    1.40
   4   8  -2    0.14    0.15
  -4  -8   2    0.08    0.13
   3   8  -2   72.29    2.31
  -3  -8   2   70.31    2.17
   2   8  -2    0.41    0.14
  -2  -8   2    0.36    0.14
   1   8  -2   96.52    2.88
  -1  -8   2   93.35    2.77
   0   8  -2   -0.08    0.08
   0  -8   2    0.14    0.11
  -1   8  -2   71.39    2.15
   1  -8   2   72.88    2.18
  -2   8  -2    0.35    0.08
   2  -8   2    0.38    0.13
  -3   8  -2  103.11    2.94
  -3   8  -2  106.63    2.95
   3  -8   2  103.66    3.02
   4  -8   2    0.28    0.13
   4  -8   2    0.05    0.10
   5  -8   2   55.52    1.69
   5  -8   2   54.33    1.73
   6  -8   2    0.41    0.14
   6  -8   2    0.52    0.14
   6   7  -2   52.84    1.87
   5   7  -2   -0.06    0.14
  -5  -7   2   -0.02    0.11
   4   7  -2   93.68    2.91
  -4  -7   2   92.29    2.68
   3   7  -2    0.38    0.14
  -3  -7   2    0.51    0.15
   2   7  -2   61.79    1.96
  -2  -7   2   62.64    1.88
   1   7  -2   -0.03    0.09
  -1  -7   2   -0.13    0.09
   0   7  -2  196.68    5.67
   0  -7   2  202.74    5.42
  -1   7  -2    1.87    0.16
  -1   7  -2    2.12    0.17
   1  -7   2    1.75    0.23
  -2   7  -2   84.00    2.40
  -2   7  -2   85.63    2.40
   2  -7   2   80.97    2.42
  -3   7  -2    5.04    0.19
  -3   7  -2    5.37    0.20
   3  -7   2    5.17    0.29
   3  -7   2    5.11    0.34
   4  -7   2   87.95    2.54
   4  -7   2   88.05    2.48
   5  -7   2    9.62    0.47
   5  -7   2    9.48    0.47
   6  -7   2   62.02    1.87
   6  -7   2   61.72    1.89
   7  -7   2    0.73    0.15
   7  -7   2    1.87    0.27
   7   6  -2   38.09    1.49
  -7  -6   2   40.73    1.49
   6   6  -2    1.34    0.27
  -6  -6   2    1.22    0.25
   5   6  -2   77.13    2.47
  -5  -6   2   77.25    2.44
  -5  -6   2   76.31    2.22
   4   6  -2    0.39    0.15
  -4  -6   2    0.24    0.11
  -4  -6   2    0.22    0.12
   3   6  -2   60.89    1.95
  -3  -6   2   62.61    1.82
  -3  -6   2   61.43    1.92
   2   6  -2    1.39    0.19
  -2  -6   2    1.47    0.19
  -2  -6   2    1.41    0.17
   1   6  -2  158.11    4.76
   1   6  -2  171.51    4.77
  -1  -6   2  165.74    4.51
  -1  -6   2  170.35    4.72
   0   6  -2   11.14    0.43
   0   6  -2    9.93    0.42
   0  -6   2   10.43    0.47
  -1   6  -2  143.32    3.85
  -1   6  -2  131.51    3.84
   1  -6   2  131.63    3.71
  -2   6  -2    0.04    0.04
  -2   6  -2    0.06    0.05
   2  -6   2    0.03    0.08
   2  -6   2    0.03    0.07
  -3   6  -2   46.26    1.29
   3  -6   2   44.39    1.34
   4  -6   2   -0.11    0.06
   5  -6   2  123.72    3.41
  -6   6  -2    3.76    0.17
  -6   6  -2    3.45    0.16
   6  -6   2    3.89    0.27
   6  -6   2    3.16    0.32
  -7   6  -2   31.28    0.99
   7  -6   2   32.41    1.15
   7  -6   2   34.03    1.06
  -8   6  -2    1.24    0.15
   8  -6   2    1.29    0.24
   8   5  -2   29.35    1.20
  -8  -5   2   27.62    1.19
   7   5  -2    0.00    0.14
  -7  -5   2    0.11    0.14
   6   5  -2   55.74    1.90
  -6  -5   2   57.15    1.89
   5   5  -2    0.28    0.14
  -5  -5   2    1.15    0.16
  -5  -5   2    0.33    0.14
   4   5  -2  133.54    4.13
  -4  -5   2  142.60    3.81
  -4  -5   2  145.38    4.13
   3   5  -2    0.62    0.14
  -3  -5   2    0.74    0.14
  -3  -5   2    0.78    0.13
   2   5  -2  124.20    3.68
   2   5  -2  134.46    3.75
  -2  -5   2  124.48    3.65
  -2  -5   2  124.12    3.45
   1   5  -2    0.15    0.08
   1   5  -2    0.29    0.08
   1   5  -2    0.18    0.05
  -1  -5   2    0.31    0.08
  -1  -5   2    0.23    0.10
   0   5  -2  144.22    3.97
   0   5  -2  139.67    3.97
   0  -5   2  138.50    3.78
   0  -5   2  135.92    3.92
  -1   5  -2    0.33    0.07
  -1   5  -2    0.59    0.08
  -2   5  -2  200.22    5.67
  -2   5  -2  208.51    5.67
   2  -5   2  203.05    5.32
  -3   5  -2    2.80    0.11
  -3   5  -2    3.00    0.11
   3  -5   2    2.71    0.20
  -4   5  -2  121.11    3.32
  -4   5  -2  120.09    3.32
   4  -5   2  115.53    3.23
  -5   5  -2    0.18    0.05
  -5   5  -2    0.14    0.05
   5  -5   2    0.01    0.09
  -6   5  -2   67.05    1.93
   6  -5   2   65.31    1.96
  -7   5  -2    0.13    0.07
   7  -5   2    0.03    0.11
  -8   5  -2   41.95    1.35
   8  -5   2   43.12    1.43
  -9   5  -2    0.24    0.11
   9  -5   2    0.25    0.14
  -9  -4   2   28.30    1.21
   8   4  -2    2.15    0.33
  -8  -4   2    1.76    0.31
   7   4  -2   62.89    2.09
  -7  -4   2   63.00    2.09
   6   4  -2    6.02    0.41
  -6  -4   2    6.19    0.41
   5   4  -2  123.31    3.65
  -5  -4   2  122.27    3.64
  -5  -4   2  121.71    3.30
   4   4  -2   -0.05    0.09
  -4  -4   2   -0.01    0.06
  -4  -4   2   -0.05    0.09
   3   4  -2  171.85    4.96
  -3  -4   2  174.25    4.59
  -3  -4   2  172.61    4.95
   2   4  -2   20.86    0.75
   2   4  -2   22.64    0.80
  -2  -4   2   22.22    0.75
  -2  -4   2   21.89    0.71
   1   4  -2  219.02    5.90
   1   4  -2  204.47    5.89
  -1  -4   2  209.45    5.53
  -1  -4   2  204.81    5.88
   0   4  -2   60.86    1.65
   0   4  -2   60.60    1.80
   0   4  -2   63.54    1.80
   0  -4   2   62.38    1.78
  -1   4  -2  346.04   10.10
  -1   4  -2  372.17   10.19
   1  -4   2  361.62    9.33
  -2   4  -2   -0.01    0.03
  -2   4  -2   -0.10    0.03
   2  -4   2   -0.12    0.05
  -3   4  -2  209.02    5.85
  -3   4  -2  215.01    5.84
   3  -4   2  204.19    5.47
  -4   4  -2    5.94    0.23
  -4   4  -2    6.08    0.23
   4  -4   2    5.92    0.30
  -5   4  -2   84.63    2.50
  -5   4  -2   89.77    2.50
  -6   4  -2    5.08    0.26
  -6   4  -2    5.17    0.26
  -7   4  -2  104.92    3.06
  -8   4  -2    0.35    0.12
  -9   4  -2   30.90    1.10
  -9  -3   2    1.42    0.29
   8   3  -2   67.69    2.23
  -8  -3   2   67.60    2.24
   7   3  -2    0.07    0.13
  -7  -3   2    0.14    0.15
   6   3  -2   64.02    2.06
  -6  -3   2   65.82    2.08
   5   3  -2    6.60    0.38
  -5  -3   2    6.84    0.39
   4   3  -2  198.80    5.57
  -4  -3   2  191.85    5.56
  -4  -3   2  193.16    5.11
   3   3  -2    0.01    0.07
  -3  -3   2   -0.07    0.07
  -3  -3   2   -0.07    0.05
   2   3  -2  330.71    9.18
   2   3  -2  335.22    9.22
  -2  -3   2  323.42    8.66
  -2  -3   2  323.73    9.17
   1   3  -2   46.82    1.36
   1   3  -2   44.90    1.35
  -1  -3   2   44.43    1.35
   0   3  -2  187.32    5.44
   0   3  -2  195.11    5.36
   0   3  -2  192.28    4.94
   0  -3   2  192.38    5.35
  -1   3  -2   43.17    1.25
  -1   3  -2   44.30    1.26
  -1   3  -2   44.88    1.20
   1  -3   2   42.21    1.20
   1  -3   2   44.21    1.23
  -2   3  -2  329.70    9.12
  -2   3  -2  321.98    9.13
   2  -3   2  326.06    8.51
  -3   3  -2   10.38    0.34
  -3   3  -2    9.99    0.34
   3  -3   2    9.85    0.39
  -4   3  -2  181.60    5.20
  -4   3  -2  190.26    5.21
  -5   3  -2    0.19    0.07
  -5   3  -2    0.11    0.07
  -6   3  -2  103.25    2.93
  -6   3  -2   97.37    2.92
  -7   3  -2    2.69    0.23
  -8   3  -2   59.68    1.89
  -9   3  -2    0.39    0.15
  -9  -2   2   35.93    1.37
   8   2  -2    4.15    0.35
  -8  -2   2    3.57    0.37
   7   2  -2  120.05    3.56
  -7  -2   2  116.69    3.57
   6   2  -2    0.33    0.13
  -6  -2   2    0.42    0.14
   5   2  -2   93.31    2.80
  -5  -2   2   95.08    2.81
   4   2  -2    5.12    0.29
  -4  -2   2    5.43    0.30
  -4  -2   2    5.68    0.21
   3   2  -2  464.64   13.34
  -3  -2   2  474.45   13.35
  -3  -2   2  467.76   12.24
   2   2  -2  403.95   11.39
  -2  -2   2  399.59   11.29
   1   2  -2  292.90    8.47
   1   2  -2  303.87    8.40
   0   2  -2   67.06    1.84
   0   2  -2   62.65    1.83
   0  -2   2   62.19    1.83
  -1   2  -2  355.95   10.03
  -1   2  -2  355.80    9.26
  -1   2  -2  364.23   10.06
   1  -2   2  352.82    9.99
   1  -2   2  365.86   10.02
   1  -2   2  342.49    9.17
  -2   2  -2  175.27    5.06
  -2   2  -2  174.81    5.05
   2  -2   2  184.51    5.01
  -3   2  -2  522.28   14.11
  -3   2  -2  491.35   14.03
   3  -2   2  482.24   13.98
  -4   2  -2    7.56    0.31
  -4   2  -2    7.00    0.30
   4  -2   2    7.16    0.28
  -5   2  -2  105.24    2.93
  -5   2  -2   97.96    2.92
   5  -2   2  100.05    2.89
  -6   2  -2    6.02    0.31
  -6   2  -2    5.58    0.31
   6  -2   2    5.45    0.27
  -7   2  -2  119.38    3.52
  -8   2  -2    0.00    0.10
  -9   2  -2   42.84    1.49
 -10  -1   2   25.61    1.10
  -9  -1   2    0.43    0.18
  -8  -1   2  104.14    3.20
   7   1  -2    0.00    0.09
  -7  -1   2    0.27    0.13
   6   1  -2  115.18    3.33
  -6  -1   2  110.81    3.35
   5   1  -2    1.87    0.20
  -5  -1   2    1.56    0.20
   4   1  -2  265.94    7.48
  -4  -1   2  266.14    7.49
  -3  -1   2   22.85    0.75
  -3  -1   2   22.73    0.62
   2   1  -2  965.66   26.97
  -2  -1   2  911.65   26.89
  -2  -1   2 1000.00   26.95
   1   1  -2   -0.22    0.06
   1   1  -2   -0.20    0.06
  -1  -1   2   -0.23    0.06
  -1  -1   2    0.03    0.07
   0   1  -2  468.80   13.05
   0   1  -2  460.92   12.98
   0  -1   2  488.95   13.02
   0  -1   2  433.29   13.03
  -1   1  -2   -0.29    0.04
  -1   1  -2   -0.30    0.04
   1  -1   2   -0.29    0.05
   1  -1   2   -0.09    0.05
  -2   1  -2  566.81   15.92
  -2   1  -2  539.30   15.98
   2  -1   2  590.58   16.05
   2  -1   2  577.09   14.83
  -3   1  -2   68.74    1.96
  -3   1  -2   66.81    1.96
   3  -1   2   67.13    1.95
  -4   1  -2  346.46    9.85
  -4   1  -2  368.67    9.86
   4  -1   2  344.16    9.83
  -5   1  -2   14.40    0.55
  -5   1  -2   13.48    0.54
   5  -1   2   14.43    0.53
  -6   1  -2  148.45    4.36
  -6   1  -2  157.44    4.37
   6  -1   2  146.85    4.33
  -7   1  -2    0.77    0.16
  -8   1  -2   64.81    2.08
  -9   1  -2    0.02    0.13
 -10   1  -2   31.89    1.25
 -10   0   2    0.16    0.15
  -9   0   2   45.13    1.58
  -8   0   2    0.82    0.20
   7   0  -2   80.06    2.42
  -7   0   2   79.13    2.45
   6   0  -2    0.96    0.15
  -6   0   2    0.69    0.14
   5   0  -2  318.37    8.82
  -5   0   2  310.79    8.84
   4   0  -2   23.37    0.78
  -4   0   2   24.49    0.79
  -4   0   2   22.67    0.78
   3   0  -2  251.50    6.97
  -3   0   2  247.01    6.98
  -3   0   2  250.10    6.98
   2   0  -2   61.79    1.82
  -2   0   2   65.21    1.83
  -2   0   2   62.29    1.83
   1   0  -2  502.48   14.84
   1   0  -2  546.20   14.94
  -1   0   2  521.62   14.95
  -1   0   2  550.40   14.93
   0   0  -2   15.48    0.48
   0   0   2   14.95    0.48
   0   0   2   13.91    0.47
  -1   0  -2  538.33   15.10
  -1   0  -2  524.98   13.80
  -1   0  -2  561.96   15.16
   1   0   2  495.68   14.98
   1   0   2  532.43   13.86
   1   0   2  565.02   15.13
  -2   0  -2  131.08    3.58
  -2   0  -2  124.31    3.57
   2   0   2  125.17    3.57
   2   0   2  124.85    3.28
  -3   0  -2  301.24    8.26
  -3   0  -2  288.39    8.25
   3   0   2  296.17    8.25
  -4   0  -2    6.60    0.32
   4   0   2    6.46    0.31
  -5   0  -2  146.32    4.25
   5   0   2  148.13    4.23
  -6   0  -2    0.95    0.17
   6   0   2    1.47    0.19
  -7   0  -2   79.28    2.53
   7   0   2   81.95    2.51
   7   0   2   84.49    2.24
  -8   0  -2    1.88    0.27
  -9   0  -2   37.91    1.40
 -10   1   2   31.07    1.21
  -9   1   2    0.86    0.21
  -8   1   2   45.09    1.51
  -7   1   2    1.57    0.21
   6  -1  -2  199.05    5.59
  -6   1   2  189.33    5.61
  -6   1   2  202.25    5.63
   5  -1  -2    0.09    0.06
  -5   1   2    0.16    0.08
  -5   1   2    0.06    0.07
   4  -1  -2   93.99    2.70
  -4   1   2   92.10    2.72
  -4   1   2   96.56    2.72
   3  -1  -2   27.65    0.85
  -3   1   2   27.35    0.86
  -3   1   2   28.50    0.87
   2  -1  -2  107.39    2.97
  -2   1   2  104.27    2.98
  -2   1   2  106.05    2.76
  -2   1   2  104.80    2.98
   1  -1  -2    2.21    0.12
  -1   1   2    2.38    0.13
  -1   1   2    2.16    0.12
  -1   1   2    2.33    0.13
   0  -1  -2  748.21   21.01
   0  -1  -2  784.45   21.01
   0   1   2  682.10   20.95
   0   1   2  783.20   21.02
  -1  -1  -2    1.43    0.08
   1   1   2    1.43    0.12
   1   1   2    1.27    0.12
  -2  -1  -2   14.79    0.52
   2   1   2   15.44    0.53
   2   1   2   15.15    0.44
  -3  -1  -2    8.52    0.36
   3   1   2    7.43    0.35
  -4  -1  -2  165.94    4.73
   4   1   2  164.45    4.72
  -5  -1  -2    6.78    0.36
   5   1   2    6.43    0.35
   5   1   2    6.77    0.28
  -6  -1  -2  108.95    3.09
   6   1   2  107.39    2.78
   6   1   2   91.07    3.04
  -7  -1  -2    2.19    0.26
   7   1   2    2.32    0.27
  -8  -1  -2   39.31    1.42
  -9  -1  -2    0.18    0.16
  -9   2   2   38.40    1.35
  -8   2   2    4.42    0.32
  -7   2   2   57.89    1.81
   6  -2  -2   10.67    0.41
  -6   2   2   10.46    0.46
  -6   2   2   11.36    0.47
   5  -2  -2  138.72    3.85
  -5   2   2  139.27    3.90
  -5   2   2  131.30    3.89
   4  -2  -2   16.80    0.50
   4  -2  -2   16.74    0.54
  -4   2   2   16.02    0.56
  -4   2   2   17.65    0.57
   3  -2  -2  192.48    5.16
   3  -2  -2  179.64    4.84
  -3   2   2  187.17    5.19
  -3   2   2  182.43    5.19
   2  -2  -2    8.56    0.31
   2  -2  -2    9.22    0.30
  -2   2   2    9.45    0.32
  -2   2   2    8.61    0.31
  -2   2   2    9.12    0.32
   1  -2  -2  411.70   11.56
   1  -2  -2  407.24   10.84
  -1   2   2  409.65   11.53
  -1   2   2  409.49   11.58
  -1   2   2  416.75   10.82
   0  -2  -2    6.78    0.28
   0  -2  -2    7.35    0.27
   0   2   2    7.42    0.28
   0   2   2    7.24    0.28
  -1  -2  -2   96.79    2.90
   1   2   2  106.42    2.91
   1   2   2  101.32    2.91
   1   2   2  102.73    2.73
  -2  -2  -2    2.55    0.18
   2   2   2    2.22    0.18
   2   2   2    2.36    0.16
   2   2   2    2.33    0.10
  -3  -2  -2  291.71    8.25
   3   2   2  293.38    8.26
   3   2   2  296.18    7.67
  -4  -2  -2   -0.10    0.08
   4   2   2   -0.03    0.05
   4   2   2    0.07    0.09
  -5  -2  -2  129.63    3.84
   5   2   2  132.81    3.52
   5   2   2  130.19    3.84
  -6  -2  -2    0.29    0.14
   6   2   2    0.39    0.14
  -7  -2  -2   53.50    1.82
   7   2   2   54.99    1.81
  -8  -2  -2    0.40    0.17
   8   2   2    0.21    0.14
  -9  -2  -2   38.41    1.46
  -9   3   2    0.73    0.18
  -8   3   2   45.14    1.48
  -7   3   2    3.84    0.27
   6  -3  -2  115.68    3.02
  -6   3   2  109.96    3.30
  -6   3   2  116.91    3.31
   5  -3  -2    1.48    0.12
  -5   3   2    1.70    0.16
  -5   3   2    1.57    0.15
   4  -3  -2  265.17    7.07
  -4   3   2  266.80    7.56
  -4   3   2  280.99    7.56
   3  -3  -2    5.19    0.24
  -3   3   2    5.06    0.21
  -3   3   2    5.48    0.22
   2  -3  -2  165.71    4.41
  -2   3   2  164.64    4.67
  -2   3   2  170.57    4.67
   1  -3  -2    2.63    0.12
   1  -3  -2    2.36    0.17
  -1   3   2    2.42    0.14
  -1   3   2    2.43    0.14
  -1   3   2    2.44    0.16
   0  -3  -2  501.56   14.12
   0  -3  -2  488.57   13.26
   0   3   2  520.26   14.21
   0   3   2  510.63   13.24
   0   3   2  484.72   14.04
  -1  -3  -2   24.99    0.79
  -1  -3  -2   25.95    0.81
   1   3   2   25.08    0.82
   1   3   2   25.19    0.82
   1   3   2   24.11    0.78
  -2  -3  -2  293.00    8.22
   2   3   2  294.16    8.24
   2   3   2  292.93    7.69
  -3  -3  -2    4.46    0.27
   3   3   2    4.02    0.27
   3   3   2    4.13    0.15
  -4  -3  -2  188.38    5.48
   4   3   2  194.03    5.50
  -5  -3  -2    0.81    0.16
   5   3   2    0.46    0.15
  -6  -3  -2   66.70    2.14
   6   3   2   67.09    2.15
  -7  -3  -2   -0.04    0.13
   7   3   2    0.26    0.15
  -8  -3  -2   79.89    2.58
   8   3   2   77.71    2.56
  -9  -3  -2    0.22    0.19
  -9   4   2   43.17    1.44
  -8   4   2   -0.15    0.08
  -7   4   2   84.57    2.51
   6  -4  -2    1.03    0.12
  -6   4   2    1.25    0.15
  -6   4   2    1.00    0.13
   5  -4  -2  111.00    3.02
  -5   4   2  109.48    3.19
  -5   4   2  115.51    3.20
   4  -4  -2    5.98    0.29
  -4   4   2    6.19    0.25
  -4   4   2    6.08    0.25
   3  -4  -2  266.51    6.97
  -3   4   2  272.52    7.37
  -3   4   2  255.80    7.43
   2  -4  -2    8.29    0.36
  -2   4   2    8.51    0.31
  -2   4   2    8.37    0.31
   1  -4  -2  246.44    6.92
  -1   4   2  252.20    6.97
  -1   4   2  250.03    7.09
   0  -4  -2   -0.06    0.07
   0  -4  -2   -0.03    0.03
   0  -4  -2    0.06    0.05
   0   4   2   -0.04    0.05
   0   4   2    0.05    0.07
  -1  -4  -2  237.48    6.78
  -1  -4  -2  245.78    6.40
   1   4   2  243.24    6.82
   1   4   2  240.84    6.82
  -2  -4  -2    3.98    0.24
   2   4   2    3.90    0.26
  -3  -4  -2  164.19    4.64
   3   4   2  158.01    4.66
  -4  -4  -2    0.11    0.10
   4   4   2    0.07    0.11
   4   4   2    0.07    0.04
  -5  -4  -2  103.35    3.05
   5   4   2  101.71    2.64
   5   4   2   95.43    3.05
  -6  -4  -2    0.31    0.14
   6   4   2   -0.14    0.10
  -7  -4  -2   55.50    1.91
   7   4   2   56.00    1.92
  -8  -4  -2    0.78    0.22
   8   4   2    1.37    0.30
  -8   5   2   53.93    1.67
  -7   5   2    1.79    0.17
   6  -5  -2   52.44    1.50
  -6   5   2   50.18    1.53
   5  -5  -2    2.62    0.21
  -5   5   2    2.25    0.15
  -5   5   2    2.48    0.15
   4  -5  -2  147.81    3.96
  -4   5   2  147.30    4.11
  -4   5   2  144.07    4.11
   3  -5  -2   12.82    0.52
  -3   5   2   13.21    0.44
  -3   5   2   12.99    0.44
   2  -5  -2  156.82    4.17
  -2   5   2  153.09    4.34
  -2   5   2  151.99    4.34
   1  -5  -2    0.91    0.15
  -1   5   2    1.18    0.13
  -1   5   2    1.23    0.13
   0  -5  -2  110.15    3.08
   0  -5  -2  107.29    3.00
   0   5   2  106.02    3.13
   0   5   2  109.43    3.13
  -1  -5  -2    4.96    0.31
  -1  -5  -2    5.04    0.26
   1   5   2    5.58    0.31
   1   5   2    5.28    0.29
  -2  -5  -2  144.57    3.95
  -2  -5  -2  147.04    4.15
   2   5   2  140.93    4.19
  -3  -5  -2    0.77    0.15
   3   5   2    0.86    0.17
  -4  -5  -2   81.87    2.53
   4   5   2   82.83    2.57
  -5  -5  -2    1.07    0.20
   5   5   2    1.44    0.25
  -6  -5  -2   40.91    1.46
   6   5   2   39.71    1.48
  -7  -5  -2    0.00    0.14
   7   5   2    0.40    0.19
  -8  -5  -2   30.09    1.25
   8   5   2   29.16    1.26
  -8   6   2    0.01    0.07
  -7   6   2   46.12    1.39
   6  -6  -2    0.28    0.11
  -6   6   2    0.26    0.07
   5  -6  -2   50.14    1.51
  -5   6   2   48.86    1.45
  -5   6   2   50.11    1.45
   4  -6  -2    0.21    0.10
  -4   6   2    0.04    0.04
  -4   6   2    0.02    0.04
   3  -6  -2   85.38    2.46
  -3   6   2   85.12    2.46
  -3   6   2   87.37    2.47
   2  -6  -2    1.03    0.13
   2  -6  -2    1.22    0.18
  -2   6   2    0.92    0.12
  -2   6   2    0.83    0.11
   1  -6  -2   94.14    2.63
   1  -6  -2   93.35    2.43
  -1   6   2   88.95    2.68
  -1   6   2   92.09    2.69
   0  -6  -2    3.27    0.30
   0   6   2    2.85    0.23
   0   6   2    3.14    0.23
  -1  -6  -2   97.36    2.80
   1   6   2   99.02    2.92
  -2  -6  -2    0.39    0.13
   2   6   2    0.38    0.14
  -3  -6  -2   52.72    1.69
   3   6   2   51.96    1.73
  -4  -6  -2    0.51    0.15
   4   6   2    0.60    0.18
   5   6   2   55.85    1.91
   6   6   2    0.12    0.15
   7   6   2   28.89    1.23
  -7   7   2    1.29    0.10
   6  -7  -2   33.05    1.10
  -6   7   2   31.89    0.95
   5  -7  -2    0.11    0.10
  -5   7   2    0.03    0.04
   4  -7  -2   67.84    2.01
  -4   7   2   66.32    1.93
   3  -7  -2    8.71    0.45
   3  -7  -2    7.84    0.36
  -3   7   2    7.63    0.32
   2  -7  -2   54.44    1.51
   2  -7  -2   53.54    1.68
  -2   7   2   54.17    1.63
   1  -7  -2    1.40    0.22
  -1   7   2    1.33    0.16
   0  -7  -2   80.38    2.39
   0   7   2   80.52    2.43
  -1  -7  -2    1.18    0.21
   1   7   2    1.19    0.19
  -2  -7  -2   48.96    1.54
   2   7   2   44.72    1.56
   3   7   2    4.87    0.38
   4   7   2   48.87    1.72
   5   7   2    0.03    0.15
   6   7   2   29.06    1.24
   5  -8  -2   37.57    1.25
   5  -8  -2   39.10    1.32
   4  -8  -2    0.11    0.09
   4  -8  -2    0.12    0.13
  -4   8   2    0.22    0.07
   3  -8  -2   45.04    1.48
  -3   8   2   43.35    1.34
   2  -8  -2   -0.05    0.12
  -2   8   2    0.25    0.09
   1  -8  -2   49.37    1.58
  -1   8   2   45.52    1.50
   0  -8  -2    0.21    0.14
   0   8   2    0.10    0.11
  -1  -8  -2   61.65    1.95
   1   8   2   60.42    1.96
   2   8   2    0.01    0.12
   3   8   2   27.68    1.11
   4   8   2    0.11    0.16
   3  -9  -2    0.08    0.14
  -3   9   2    0.00    0.07
   2  -9  -2   37.41    1.33
  -2   9   2   35.67    1.18
   1  -9  -2    0.70    0.20
  -1   9   2    0.97    0.17
   0  -9  -2   36.25    1.33
   0   9   2   35.68    1.26
  -1  -9  -2    0.98    0.24
   1   9   2    1.10    0.21
   2   9   2   26.72    1.08
   1  10  -3    0.00    0.13
  -1 -10   3   -0.03    0.15
   0  10  -3    0.83    0.18
   0 -10   3    0.69    0.21
  -1  10  -3    0.37    0.13
   1 -10   3    0.39    0.19
  -2  10  -3    0.30    0.10
   2 -10   3    0.16    0.14
   4   9  -3    0.54    0.20
  -4  -9   3    0.41    0.16
   3   9  -3    1.24    0.25
  -3  -9   3    1.47    0.26
   2   9  -3    1.81    0.27
  -2  -9   3    1.69    0.26
   1   9  -3    1.41    0.22
  -1  -9   3    1.39    0.25
   0   9  -3    0.10    0.11
   0  -9   3   -0.05    0.11
  -1   9  -3    0.03    0.08
   1  -9   3    0.13    0.13
  -2   9  -3    0.14    0.08
   2  -9   3    0.25    0.14
  -3   9  -3    1.70    0.13
   3  -9   3    1.49    0.24
   4  -9   3   -0.20    0.10
   5  -9   3   -0.04    0.11
   5  -9   3    0.14    0.11
   5   8  -3    0.09    0.17
  -5  -8   3    0.27    0.15
   4   8  -3    2.97    0.37
  -4  -8   3    3.90    0.36
   3   8  -3    5.62    0.41
  -3  -8   3    6.05    0.41
   2   8  -3    2.37    0.28
  -2  -8   3    2.65    0.30
   1   8  -3    0.05    0.11
  -1  -8   3   -0.01    0.12
   0   8  -3    1.15    0.17
   0  -8   3    1.30    0.22
  -1   8  -3    0.22    0.10
   1  -8   3    0.32    0.15
  -2   8  -3    1.51    0.15
   2  -8   3    1.35    0.22
  -3   8  -3    0.34    0.07
  -3   8  -3    0.33    0.07
   3  -8   3    0.42    0.15
   4  -8   3   -0.03    0.10
   4  -8   3    0.05    0.10
   5  -8   3   -0.06    0.09
   5  -8   3    0.05    0.10
   6  -8   3   -0.10    0.08
   6  -8   3    0.10    0.11
   7   7  -3    1.65    0.31
   6   7  -3    0.67    0.23
  -6  -7   3    0.60    0.16
   5   7  -3    4.51    0.40
  -5  -7   3    3.69    0.31
   4   7  -3    0.89    0.21
  -4  -7   3    1.20    0.19
   3   7  -3    2.41    0.28
  -3  -7   3    3.26    0.27
   2   7  -3    0.15    0.11
  -2  -7   3    0.25    0.12
   1   7  -3    1.06    0.17
  -1  -7   3    1.12    0.19
   0   7  -3    0.22    0.10
   0  -7   3    0.42    0.14
  -1   7  -3    0.75    0.11
  -1   7  -3    0.90    0.13
   1  -7   3    0.94    0.18
  -2   7  -3    0.02    0.05
   2  -7   3    0.19    0.12
  -3   7  -3    0.03    0.04
   3  -7   3    0.08    0.08
   4  -7   3    0.12    0.10
   5  -7   3    0.11    0.11
   6  -7   3    0.15    0.10
   6  -7   3   -0.05    0.10
   7  -7   3    0.15    0.10
   7  -7   3    0.05    0.12
   7   6  -3    1.18    0.27
  -7  -6   3    1.20    0.26
   6   6  -3    3.56    0.41
  -6  -6   3    3.56    0.38
  -6  -6   3    3.02    0.27
   5   6  -3    0.00    0.13
  -5  -6   3    0.21    0.15
  -5  -6   3    0.07    0.09
   4   6  -3    1.33    0.21
  -4  -6   3    1.32    0.21
  -4  -6   3    1.30    0.18
   3   6  -3    0.00    0.10
  -3  -6   3    0.30    0.11
  -3  -6   3    0.04    0.09
   2   6  -3    0.35    0.08
   2   6  -3    0.25    0.11
  -2  -6   3    0.24    0.10
  -2  -6   3    0.33    0.11
   1   6  -3   -0.04    0.08
   1   6  -3    0.02    0.05
   1   6  -3   -0.07    0.07
  -1  -6   3   -0.05    0.08
  -1  -6   3   -0.08    0.06
   0   6  -3    1.94    0.17
   0   6  -3    1.99    0.15
   0   6  -3    2.25    0.18
   0  -6   3    1.92    0.13
  -1   6  -3    0.00    0.06
  -1   6  -3    0.01    0.05
  -2   6  -3    0.08    0.05
  -2   6  -3    0.04    0.05
  -3   6  -3    1.71    0.11
  -3   6  -3    1.76    0.10
   3  -6   3    1.63    0.18
  -4   6  -3   -0.01    0.03
  -4   6  -3   -0.01    0.03
   4  -6   3   -0.04    0.08
  -5   6  -3    0.00    0.03
  -5   6  -3    0.02    0.04
   5  -6   3    0.13    0.10
  -6   6  -3   -0.04    0.05
  -6   6  -3   -0.04    0.04
   6  -6   3   -0.04    0.10
  -7   6  -3    0.60    0.10
   7  -6   3    0.76    0.18
  -8   6  -3   -0.01    0.07
   8  -6   3    0.02    0.13
   8   5  -3    0.77    0.22
  -8  -5   3    0.22    0.18
   7   5  -3    1.00    0.24
  -7  -5   3    0.82    0.21
   6   5  -3    3.60    0.37
  -6  -5   3    4.07    0.25
  -6  -5   3    4.37    0.37
   5   5  -3    0.82    0.19
  -5  -5   3    1.68    0.18
  -5  -5   3    1.21    0.22
   4   5  -3    0.10    0.12
  -4  -5   3    0.29    0.10
  -4  -5   3    0.03    0.11
   3   5  -3    0.11    0.10
  -3  -5   3    0.32    0.12
  -3  -5   3    0.31    0.10
   2   5  -3    4.87    0.30
  -2  -5   3    5.51    0.29
  -2  -5   3    5.49    0.29
   1   5  -3   11.47    0.39
   1   5  -3   11.53    0.46
   1   5  -3   11.80    0.47
  -1  -5   3   11.25    0.44
   0   5  -3    0.07    0.06
   0   5  -3    0.22    0.06
   0   5  -3    0.08    0.06
   0  -5   3    0.14    0.05
  -1   5  -3    0.02    0.04
  -1   5  -3    0.02    0.05
  -2   5  -3    0.44    0.07
  -2   5  -3    0.48    0.07
   2  -5   3    0.52    0.10
  -3   5  -3    3.31    0.15
  -3   5  -3    3.45    0.15
   3  -5   3    2.89    0.22
  -4   5  -3    0.28    0.06
  -4   5  -3    0.34    0.06
   4  -5   3    0.36    0.11
  -5   5  -3    0.24    0.07
  -5   5  -3    0.22    0.06
   5  -5   3    0.08    0.10
  -6   5  -3    0.39    0.08
  -6   5  -3    0.31    0.08
   6  -5   3    0.20    0.11
  -7   5  -3   -0.01    0.07
   7  -5   3   -0.04    0.11
  -8   5  -3    0.13    0.09
   8  -5   3    0.21    0.14
  -9   5  -3    0.15    0.11
   9  -5   3    0.08    0.15
  -9  -4   3    1.27    0.28
   8   4  -3    0.78    0.23
  -8  -4   3    0.44    0.19
   7   4  -3    1.25    0.23
  -7  -4   3    1.02    0.22
   6   4  -3    1.23    0.22
  -6  -4   3    1.37    0.24
   5   4  -3    1.47    0.22
  -5  -4   3    1.32    0.21
  -5  -4   3    1.52    0.15
   4   4  -3    7.18    0.39
  -4  -4   3    6.65    0.38
  -4  -4   3    7.12    0.31
   3   4  -3    0.14    0.09
  -3  -4   3    0.32    0.11
  -3  -4   3    0.17    0.07
   2   4  -3    1.95    0.19
  -2  -4   3    2.28    0.18
   1   4  -3    0.49    0.09
   1   4  -3    0.46    0.09
  -1  -4   3    0.81    0.11
   0   4  -3    4.52    0.22
   0   4  -3    5.11    0.23
   0   4  -3    4.52    0.21
   0  -4   3    4.94    0.21
  -1   4  -3   -0.02    0.04
  -1   4  -3   -0.11    0.04
  -1   4  -3   -0.04    0.04
   1  -4   3   -0.03    0.02
  -2   4  -3    0.58    0.07
  -2   4  -3    0.80    0.08
   2  -4   3    0.66    0.11
  -3   4  -3    0.89    0.08
  -3   4  -3    0.75    0.08
   3  -4   3    0.94    0.13
  -4   4  -3    0.30    0.06
  -4   4  -3    0.37    0.07
   4  -4   3    0.23    0.09
  -5   4  -3    0.50    0.09
  -5   4  -3    0.42    0.08
   5  -4   3    0.40    0.12
  -6   4  -3    0.58    0.11
  -6   4  -3    0.45    0.10
   6  -4   3    0.92    0.17
  -7   4  -3    0.73    0.13
   7  -4   3    0.65    0.17
  -8   4  -3    1.25    0.19
   8  -4   3    1.31    0.22
  -9   4  -3   -0.02    0.10
   9  -4   3    0.12    0.14
  -9  -3   3    1.21    0.27
   8   3  -3    0.27    0.15
  -8  -3   3    0.09    0.16
   7   3  -3    3.82    0.33
  -7  -3   3    3.75    0.38
   6   3  -3    1.19    0.19
  -6  -3   3    1.12    0.21
   5   3  -3    6.45    0.37
  -5  -3   3    6.31    0.26
  -5  -3   3    6.22    0.38
   4   3  -3   -0.01    0.09
  -4  -3   3    0.07    0.09
  -4  -3   3    0.14    0.06
   3   3  -3    1.95    0.20
  -3  -3   3    1.94    0.14
  -3  -3   3    1.90    0.20
   2   3  -3    0.10    0.07
  -2  -3   3    0.02    0.06
   1   3  -3    5.67    0.26
   1   3  -3    6.12    0.27
  -1  -3   3    6.71    0.28
   0   3  -3   14.90    0.48
   0   3  -3   14.32    0.48
   0  -3   3   13.90    0.47
  -1   3  -3    0.07    0.04
  -1   3  -3    0.14    0.05
  -1   3  -3    0.13    0.05
   1  -3   3    0.15    0.04
  -2   3  -3    0.30    0.05
  -2   3  -3    0.37    0.06
   2  -3   3    0.41    0.08
   2  -3   3    0.42    0.05
  -3   3  -3    0.00    0.04
  -3   3  -3    0.05    0.04
   3  -3   3    0.01    0.03
   3  -3   3    0.00    0.06
  -4   3  -3    2.11    0.15
  -4   3  -3    2.22    0.15
   4  -3   3    2.22    0.18
  -5   3  -3    2.32    0.18
  -5   3  -3    2.06    0.17
   5  -3   3    1.76    0.19
  -6   3  -3    0.82    0.13
  -6   3  -3    0.86    0.13
  -7   3  -3    0.50    0.13
  -8   3  -3    0.88    0.18
  -9   3  -3    2.33    0.29
   9  -3   3    2.16    0.29
  -9  -2   3    1.50    0.28
   8   2  -3    2.92    0.33
  -8  -2   3    3.28    0.37
   7   2  -3    2.97    0.30
  -7  -2   3    3.33    0.35
   6   2  -3    1.35    0.20
  -6  -2   3    1.24    0.20
   5   2  -3    0.77    0.14
  -5  -2   3    1.21    0.19
   4   2  -3    4.85    0.28
  -4  -2   3    4.57    0.18
  -4  -2   3    4.64    0.29
   3   2  -3    0.69    0.12
  -3  -2   3    0.74    0.13
   2   2  -3    4.20    0.22
  -2  -2   3    5.07    0.25
   1   2  -3    1.61    0.13
   1   2  -3    1.87    0.14
  -1  -2   3    2.00    0.14
   0   2  -3    8.46    0.30
   0   2  -3    8.39    0.31
   0  -2   3    8.29    0.31
  -1   2  -3    0.04    0.03
  -1   2  -3    0.07    0.04
  -1   2  -3    0.00    0.04
   1  -2   3    0.06    0.04
  -2   2  -3    0.13    0.05
  -2   2  -3    0.24    0.05
   2  -2   3    0.15    0.06
   2  -2   3    0.17    0.05
  -3   2  -3   11.09    0.40
  -3   2  -3   11.62    0.40
   3  -2   3   10.73    0.41
   3  -2   3   11.48    0.39
  -4   2  -3    0.47    0.09
  -4   2  -3    0.46    0.09
   4  -2   3    0.28    0.09
   4  -2   3    0.50    0.08
  -5   2  -3    1.27    0.15
  -5   2  -3    1.62    0.17
   5  -2   3    1.58    0.14
  -6   2  -3    1.13    0.17
  -6   2  -3    1.21    0.16
   6  -2   3    1.00    0.13
  -7   2  -3    2.35    0.25
  -8   2  -3    0.35    0.14
  -9   2  -3    1.03    0.21
  -9  -1   3    1.12    0.25
  -8  -1   3    2.07    0.30
   7   1  -3    0.48    0.14
  -7  -1   3    0.52    0.15
   6   1  -3    3.95    0.28
  -6  -1   3    3.77    0.30
   5   1  -3    4.16    0.26
  -5  -1   3    3.60    0.26
   4   1  -3    0.03    0.07
  -4  -1   3    0.05    0.07
  -4  -1   3    0.12    0.02
   3   1  -3    0.41    0.09
  -3  -1   3    0.33    0.09
   2   1  -3    6.53    0.28
  -2  -1   3    7.01    0.29
   1   1  -3   20.69    0.66
  -1  -1   3   21.50    0.66
  -1  -1   3   20.77    0.66
   0   1  -3    0.98    0.10
   0   1  -3    0.95    0.09
   0  -1   3    0.73    0.08
   0  -1   3    0.96    0.10
  -1   1  -3    7.40    0.27
  -1   1  -3    6.91    0.25
  -1   1  -3    6.98    0.27
   1  -1   3    7.07    0.27
  -2   1  -3    2.17    0.14
  -2   1  -3    2.04    0.13
   2  -1   3    1.66    0.12
   2  -1   3    1.91    0.13
  -3   1  -3    0.03    0.06
  -3   1  -3    0.06    0.06
   3  -1   3    0.03    0.06
   3  -1   3    0.13    0.06
  -4   1  -3    3.92    0.23
  -4   1  -3    3.43    0.21
   4  -1   3    3.34    0.20
  -5   1  -3    0.11    0.09
  -5   1  -3    0.01    0.07
   5  -1   3    0.05    0.07
  -6   1  -3    0.19    0.11
   6  -1   3    0.36    0.10
  -7   1  -3    0.12    0.12
  -8   1  -3    2.13    0.28
  -9   1  -3    2.09    0.29
  -9   0   3    1.22    0.23
  -8   0   3    1.83    0.26
   7   0  -3   -0.03    0.08
  -7   0   3   -0.11    0.10
   6   0  -3    0.05    0.08
  -6   0   3    0.16    0.11
   5   0  -3    0.22    0.09
  -5   0   3    0.17    0.10
   4   0  -3    5.55    0.27
  -4   0   3    6.15    0.29
  -4   0   3    5.49    0.29
   3   0  -3    2.97    0.18
  -3   0   3    3.34    0.19
  -3   0   3    3.21    0.19
   2   0  -3    0.30    0.06
  -2   0   3    0.34    0.07
  -2   0   3    0.36    0.08
   1   0  -3    6.47    0.26
  -1   0   3    7.73    0.27
  -1   0   3    6.46    0.27
   0   0  -3    7.20    0.27
   0   0  -3    6.66    0.26
   0   0   3    7.20    0.26
   0   0   3    6.48    0.26
  -1   0  -3   11.08    0.34
  -1   0  -3   10.86    0.38
  -1   0  -3   11.54    0.39
   1   0   3   10.95    0.40
   1   0   3   10.06    0.38
  -2   0  -3    2.05    0.15
  -2   0  -3    2.37    0.16
   2   0   3    2.22    0.15
   2   0   3    2.00    0.12
  -3   0  -3    1.74    0.15
   3   0   3    1.47    0.12
   3   0   3    1.24    0.13
  -4   0  -3    0.08    0.08
   4   0   3    0.17    0.08
  -5   0  -3    0.74    0.14
   5   0   3    0.73    0.13
  -6   0  -3    2.80    0.28
   6   0   3    2.73    0.24
  -7   0  -3    0.16    0.12
   7   0   3    0.31    0.13
  -8   0  -3    0.57    0.17
  -9   0  -3    0.15    0.15
  -9   1   3    0.82    0.20
  -8   1   3    0.26    0.14
  -7   1   3    1.48    0.20
   6  -1  -3   -0.02    0.08
  -6   1   3   -0.04    0.08
  -6   1   3   -0.09    0.07
   5  -1  -3    1.40    0.14
  -5   1   3    1.07    0.15
  -5   1   3    1.41    0.16
  -4   1   3    0.49    0.10
  -4   1   3    0.43    0.09
   3  -1  -3   12.09    0.42
  -3   1   3   12.22    0.43
  -3   1   3   11.37    0.43
  -3   1   3   11.91    0.36
   2  -1  -3    0.09    0.05
  -2   1   3    0.07    0.04
  -2   1   3    0.13    0.05
  -2   1   3    0.15    0.06
   1  -1  -3    0.39    0.06
  -1   1   3    0.49    0.07
  -1   1   3    0.38    0.07
   0  -1  -3   30.31    0.89
   0   1   3   29.32    0.90
   0   1   3   29.00    0.90
  -1  -1  -3    0.25    0.04
  -1  -1  -3    0.25    0.07
   1   1   3    0.28    0.07
   1   1   3    0.28    0.07
  -2  -1  -3    2.42    0.17
   2   1   3    2.07    0.16
   2   1   3    2.11    0.11
  -3  -1  -3    7.32    0.34
   3   1   3    7.83    0.28
   3   1   3    7.52    0.35
  -4  -1  -3    2.63    0.22
   4   1   3    2.66    0.21
   4   1   3    2.59    0.16
  -5  -1  -3    8.56    0.43
   5   1   3    8.62    0.43
  -6  -1  -3    2.18    0.27
   6   1   3    1.96    0.24
  -7  -1  -3   -0.01    0.11
   7   1   3   -0.15    0.09
  -8  -1  -3    0.42    0.18
  -9  -1  -3    1.73    0.30
   9   1   3    1.80    0.25
  -9   2   3    0.84    0.20
  -8   2   3    0.86    0.17
  -7   2   3    1.02    0.18
  -6   2   3    0.24    0.10
   5  -2  -3    2.02    0.15
  -5   2   3    1.36    0.16
  -5   2   3    2.11    0.18
   4  -2  -3    7.76    0.30
  -4   2   3    7.54    0.33
  -4   2   3    8.25    0.33
   3  -2  -3    2.17    0.13
  -3   2   3    2.07    0.12
  -3   2   3    2.02    0.14
  -3   2   3    2.40    0.15
   2  -2  -3    0.03    0.04
  -2   2   3    0.01    0.05
  -2   2   3    0.04    0.04
  -2   2   3   -0.03    0.04
   1  -2  -3    0.54    0.07
  -1   2   3    0.48    0.07
  -1   2   3    0.51    0.08
   0  -2  -3   21.44    0.68
   0   2   3   20.77    0.69
   0   2   3   21.76    0.66
   0   2   3   22.02    0.70
  -1  -2  -3    2.04    0.09
  -1  -2  -3    2.08    0.15
   1   2   3    2.19    0.16
   1   2   3    2.18    0.16
  -2  -2  -3    0.21    0.08
   2   2   3    0.22    0.07
   2   2   3    0.20    0.08
  -3  -2  -3    2.98    0.21
   3   2   3    3.23    0.14
   3   2   3    3.49    0.21
   3   2   3    3.20    0.23
  -4  -2  -3    0.21    0.10
   4   2   3    0.07    0.09
   4   2   3    0.17    0.06
  -5  -2  -3    4.22    0.31
   5   2   3    4.30    0.22
   5   2   3    4.36    0.32
  -6  -2  -3    0.94    0.19
   6   2   3    0.67    0.17
  -7  -2  -3    1.40    0.23
   7   2   3    1.32    0.23
  -8  -2  -3    0.45    0.18
   8   2   3    0.49    0.14
   8   2   3    0.37    0.16
  -9  -2  -3    1.98    0.32
   9   2   3    2.08    0.27
  -9   3   3    0.23    0.13
  -8   3   3    0.80    0.16
  -7   3   3    0.60    0.13
  -6   3   3    1.94    0.19
  -5   3   3    0.00    0.07
  -5   3   3    0.09    0.07
   4  -3  -3    0.37    0.08
  -4   3   3    0.52    0.09
  -4   3   3    0.39    0.08
   3  -3  -3    0.06    0.06
  -3   3   3    0.07    0.05
  -3   3   3   -0.02    0.05
   2  -3  -3    0.21    0.04
   2  -3  -3    0.17    0.07
  -2   3   3    0.12    0.06
  -2   3   3    0.19    0.06
  -2   3   3    0.11    0.06
   1  -3  -3    0.07    0.07
   1  -3  -3    0.07    0.04
  -1   3   3   -0.04    0.05
  -1   3   3    0.00    0.05
  -1   3   3    0.02    0.04
   0  -3  -3    4.36    0.21
   0   3   3    4.45    0.23
   0   3   3    4.44    0.23
   0   3   3    4.85    0.23
  -1  -3  -3    0.10    0.06
   1   3   3    0.13    0.07
   1   3   3    0.01    0.07
  -2  -3  -3    7.70    0.35
   2   3   3    7.98    0.38
  -3  -3  -3    4.19    0.27
   3   3   3    4.28    0.29
  -4  -3  -3    6.99    0.38
   4   3   3    7.09    0.25
   4   3   3    6.81    0.40
  -5  -3  -3    0.71    0.17
   5   3   3    0.65    0.17
   5   3   3    0.67    0.09
  -6  -3  -3    1.03    0.21
   6   3   3    1.11    0.14
   6   3   3    0.73    0.19
  -7  -3  -3    2.64    0.33
   7   3   3    2.30    0.31
   7   3   3    2.69    0.21
  -8  -3  -3    4.39    0.46
   8   3   3    4.62    0.47
   8   3   3    4.99    0.34
  -9   4   3    0.36    0.14
  -8   4   3    0.98    0.16
  -7   4   3   -0.05    0.08
  -6   4   3    0.13    0.08
   5  -4  -3    0.18    0.08
  -5   4   3    0.18    0.07
  -5   4   3    0.21    0.08
   4  -4  -3    0.56    0.11
  -4   4   3    0.37    0.08
  -4   4   3    0.41    0.08
   3  -4  -3    2.37    0.21
  -3   4   3    2.50    0.16
  -3   4   3    2.40    0.16
   2  -4  -3   -0.06    0.07
  -2   4   3    0.11    0.06
  -2   4   3    0.09    0.06
   1  -4  -3    5.81    0.30
   1  -4  -3    5.56    0.23
  -1   4   3    5.55    0.26
  -1   4   3    5.60    0.27
   0  -4  -3    1.58    0.13
   0  -4  -3    1.33    0.16
   0   4   3    1.36    0.15
   0   4   3    1.39    0.15
  -1  -4  -3   12.41    0.49
   1   4   3   14.55    0.53
   1   4   3   12.72    0.52
  -2  -4  -3    5.96    0.31
   2   4   3    5.65    0.33
  -3  -4  -3    3.32    0.25
   3   4   3    3.02    0.27
  -4  -4  -3    0.79    0.16
   4   4   3    1.07    0.20
  -5  -4  -3    2.34    0.28
   5   4   3    1.95    0.12
   5   4   3    1.90    0.27
  -6  -4  -3    2.76    0.32
   6   4   3    3.25    0.37
  -7  -4  -3    3.36    0.39
   7   4   3    2.73    0.36
  -8  -4  -3    2.12    0.34
   8   4   3    2.50    0.35
  -8   5   3   -0.02    0.09
  -7   5   3    0.60    0.12
  -6   5   3    0.09    0.07
   5  -5  -3    0.94    0.14
  -5   5   3    1.08    0.12
  -5   5   3    0.75    0.11
   4  -5  -3   -0.01    0.08
  -4   5   3    0.14    0.06
  -4   5   3    0.16    0.07
   3  -5  -3    0.04    0.08
  -3   5   3    0.07    0.06
  -3   5   3    0.05    0.06
   2  -5  -3    1.02    0.16
  -2   5   3    1.24    0.14
  -2   5   3    1.34    0.14
   1  -5  -3    0.25    0.11
  -1   5   3    0.15    0.07
  -1   5   3    0.11    0.08
   0  -5  -3    0.43    0.08
   0  -5  -3    0.10    0.11
   0  -5  -3    0.28    0.04
   0   5   3    0.21    0.09
   0   5   3    0.28    0.09
  -1  -5  -3    0.11    0.07
   1   5   3    0.03    0.09
   1   5   3    0.38    0.11
  -2  -5  -3    1.13    0.16
   2   5   3    1.37    0.21
  -3  -5  -3    0.21    0.10
   3   5   3    0.20    0.13
  -4  -5  -3    1.73    0.23
   4   5   3    1.71    0.24
  -5  -5  -3   -0.03    0.11
   5   5   3   -0.02    0.13
  -6  -5  -3    0.49    0.19
   6   5   3    0.76    0.23
  -7  -5  -3    1.20    0.27
   7   5   3    0.84    0.24
  -7   6   3    0.19    0.08
  -6   6   3    0.01    0.07
   5  -6  -3    0.63    0.14
  -5   6   3    0.67    0.10
   4  -6  -3    0.03    0.09
  -4   6   3    0.11    0.06
   3  -6  -3    0.29    0.11
  -3   6   3    0.28    0.08
  -3   6   3    0.23    0.07
   2  -6  -3    0.12    0.10
  -2   6   3    0.12    0.07
  -2   6   3    0.00    0.06
   1  -6  -3    0.33    0.12
   1  -6  -3    0.29    0.06
  -1   6   3    0.20    0.09
   0  -6  -3    2.11    0.24
   0   6   3    2.07    0.22
   1   6   3    0.26    0.11
   2   6   3    0.37    0.14
   3   6   3    1.31    0.23
   4   6   3    0.39    0.17
   5   6   3    0.83    0.22
   6   6   3    0.45    0.21
  -6   7   3    0.34    0.08
   5  -7  -3    0.02    0.10
  -5   7   3    0.17    0.06
   4  -7  -3    0.50    0.16
  -4   7   3    0.40    0.09
   3  -7  -3    0.49    0.15
   3  -7  -3    0.25    0.09
  -3   7   3    0.17    0.07
   2  -7  -3    0.27    0.13
   2  -7  -3    0.16    0.07
  -2   7   3    0.13    0.08
   1  -7  -3   -0.07    0.10
  -1   7   3    0.11    0.10
   0  -7  -3    2.88    0.32
   0   7   3    2.44    0.25
   1   7   3    0.32    0.12
   2   7   3    0.41    0.15
   3   7   3    0.12    0.14
   4   7   3    1.79    0.32
   5   7   3    0.92    0.25
   5  -8  -3    0.02    0.13
  -5   8   3    0.08    0.06
   4  -8  -3    0.12    0.13
  -4   8   3    0.18    0.08
   3  -8  -3    0.37    0.16
  -3   8   3    0.22    0.09
   2  -8  -3   -0.02    0.12
  -2   8   3   -0.04    0.08
   1  -8  -3    0.99    0.21
  -1   8   3    1.00    0.17
   0   8   3    0.72    0.17
   1   8   3    1.99    0.27
   2   8   3    0.24    0.15
   3   8   3    0.62    0.21
  -1   9   3    0.53    0.15
   0   9   3    1.05    0.20
   1  10  -4    0.24    0.15
  -1 -10   4    0.30    0.17
   0  10  -4   29.17    1.07
   0 -10   4   29.04    1.14
  -1  10  -4    1.66    0.21
   1 -10   4    1.20    0.25
  -2  10  -4   39.27    1.24
   2 -10   4   37.88    1.40
   4   9  -4   -0.20    0.13
  -4  -9   4   -0.07    0.12
   3   9  -4   47.01    1.65
  -3  -9   4   46.78    1.57
   2   9  -4    2.68    0.31
  -2  -9   4    2.47    0.31
   1   9  -4   52.79    1.76
  -1  -9   4   55.15    1.77
   0   9  -4    0.48    0.13
   0  -9   4    0.39    0.15
  -1   9  -4   49.52    1.58
   1  -9   4   50.82    1.66
  -2   9  -4    1.31    0.15
   2  -9   4    1.40    0.25
  -3   9  -4   80.75    2.31
   3  -9   4   79.31    2.44
   4  -9   4    0.43    0.16
   5  -9   4   31.32    1.16
   5   8  -4    1.59    0.29
  -5  -8   4    2.40    0.28
   4   8  -4   49.26    1.71
  -4  -8   4   47.45    1.56
   3   8  -4    1.72    0.26
  -3  -8   4    1.74    0.25
   2   8  -4   98.99    3.01
  -2  -8   4   97.79    2.86
   1   8  -4    1.13    0.18
  -1  -8   4    1.54    0.24
   0   8  -4   67.49    2.06
   0  -8   4   66.44    2.04
  -1   8  -4    3.40    0.23
   1  -8   4    3.10    0.32
  -2   8  -4   96.62    2.81
   2  -8   4   97.55    2.83
  -4   8  -4   80.27    2.23
  -4   8  -4   78.10    2.23
   5  -8   4    3.51    0.35
   6  -8   4   39.99    1.36
   6  -8   4   40.00    1.35
   7   7  -4   26.45    1.16
   6   7  -4   -0.08    0.14
  -6  -7   4   -0.13    0.09
   5   7  -4   52.68    1.81
  -5  -7   4   51.13    1.61
   4   7  -4   -0.10    0.11
  -4  -7   4   -0.01    0.10
   3   7  -4   82.08    2.53
  -3  -7   4   79.98    2.36
   2   7  -4    0.77    0.17
  -2  -7   4    1.01    0.17
   1   7  -4   85.98    2.64
  -1  -7   4   90.41    2.55
   0   7  -4    0.11    0.08
  -1   7  -4   90.19    2.55
  -1   7  -4   83.63    2.54
  -2   7  -4    0.25    0.07
  -2   7  -4    0.23    0.08
  -3   7  -4   90.72    2.64
  -3   7  -4   94.25    2.64
  -4   7  -4    0.31    0.06
  -4   7  -4    0.30    0.06
   4  -7   4    0.15    0.11
  -5   7  -4   58.71    1.71
  -5   7  -4   60.88    1.71
   5  -7   4   59.60    1.82
  -6   7  -4    0.40    0.07
   6  -7   4    0.17    0.13
  -7   7  -4   31.94    0.97
   7  -7   4   31.47    1.15
   7   6  -4   -0.07    0.14
  -7  -6   4    0.06    0.14
   6   6  -4   57.97    1.99
  -6  -6   4   59.60    1.99
  -6  -6   4   58.56    1.73
   5   6  -4   -0.11    0.11
  -5  -6   4   -0.04    0.08
  -5  -6   4    0.05    0.12
   4   6  -4   55.35    1.84
  -4  -6   4   54.76    1.81
  -4  -6   4   57.98    1.68
   3   6  -4    2.06    0.23
  -3  -6   4    1.60    0.19
  -3  -6   4    2.45    0.26
   2   6  -4   52.52    1.73
  -2  -6   4   55.73    1.64
  -2  -6   4   55.91    1.70
   1   6  -4    3.54    0.25
   1   6  -4    3.63    0.25
   1   6  -4    3.34    0.20
  -1  -6   4    3.49    0.22
   0   6  -4  193.13    5.28
   0   6  -4  178.06    5.26
   0  -6   4  184.97    5.21
  -1   6  -4   -0.02    0.06
  -1   6  -4   -0.01    0.05
  -2   6  -4   74.49    2.10
  -2   6  -4   70.35    2.10
  -3   6  -4    6.54    0.27
  -3   6  -4    7.10    0.27
   3  -6   4    6.91    0.35
  -4   6  -4   68.29    2.01
  -4   6  -4   71.80    2.01
   4  -6   4   69.53    2.02
  -5   6  -4    5.62    0.24
  -5   6  -4    5.30    0.24
   5  -6   4    5.11    0.34
  -6   6  -4   73.37    2.16
   6  -6   4   75.39    2.20
  -7   6  -4    2.07    0.17
   7  -6   4    2.23    0.28
  -8   6  -4   23.63    0.84
   8  -6   4   25.84    0.99
   8   5  -4    2.64    0.37
  -8  -5   4    1.82    0.31
   7   5  -4   39.55    1.45
  -7  -5   4   38.47    1.45
   6   5  -4    0.93    0.21
  -6  -5   4    0.88    0.13
  -6  -5   4    0.88    0.21
   5   5  -4   82.68    2.59
  -5  -5   4   81.38    2.31
  -5  -5   4   84.43    2.58
   4   5  -4    3.37    0.29
  -4  -5   4    3.02    0.22
  -4  -5   4    2.69    0.28
   3   5  -4   55.91    1.81
  -3  -5   4   57.79    1.67
  -3  -5   4   58.73    1.80
   2   5  -4    5.60    0.31
  -2  -5   4    4.06    0.27
   1   5  -4  328.68    9.22
   1   5  -4  342.33    9.23
  -1  -5   4  315.23    9.19
   0   5  -4    0.05    0.06
   0   5  -4    0.07    0.06
   0   5  -4    0.03    0.06
   0  -5   4   -0.08    0.04
  -1   5  -4   83.34    2.38
  -1   5  -4   82.28    2.38
   1  -5   4   81.16    2.34
  -2   5  -4   11.24    0.40
  -2   5  -4   11.60    0.41
  -3   5  -4  176.78    4.90
  -3   5  -4  175.35    4.90
   3  -5   4  172.56    4.63
  -4   5  -4   -0.01    0.04
  -4   5  -4    0.13    0.05
   4  -5   4    0.02    0.09
  -5   5  -4  133.92    3.88
  -5   5  -4  142.41    3.88
   5  -5   4  133.05    3.72
  -6   5  -4    1.05    0.13
   6  -5   4    1.13    0.19
  -7   5  -4   63.21    1.92
   7  -5   4   63.60    1.94
  -8   5  -4    0.18    0.10
   8  -5   4    0.42    0.16
  -9  -4   4    0.11    0.19
   8   4  -4   31.60    1.25
  -8  -4   4   31.69    1.26
   7   4  -4    0.24    0.15
  -7  -4   4    0.20    0.15
   6   4  -4   73.14    2.35
  -6  -4   4   74.13    2.37
  -6  -4   4   75.41    2.04
   5   4  -4    0.34    0.14
  -5  -4   4    0.05    0.12
  -5  -4   4   -0.07    0.05
   4   4  -4  234.34    6.86
  -4  -4   4  239.79    6.87
  -4  -4   4  247.99    6.33
   3   4  -4    5.44    0.31
  -3  -4   4    5.24    0.31
   2   4  -4  152.87    4.42
  -2  -4   4  155.22    4.41
   1   4  -4    0.53    0.11
   1   4  -4    0.73    0.12
  -1  -4   4    0.46    0.10
   0   4  -4  422.20   11.68
   0   4  -4  433.60   10.76
   0   4  -4  414.95   11.92
   0  -4   4  407.42   11.75
  -1   4  -4    3.87    0.20
  -1   4  -4    3.67    0.19
  -1   4  -4    3.71    0.19
   1  -4   4    3.47    0.17
  -2   4  -4  252.47    7.36
  -2   4  -4  266.98    7.28
   2  -4   4  253.59    6.69
  -3   4  -4    1.21    0.11
  -3   4  -4    1.22    0.11
   3  -4   4    1.02    0.14
  -4   4  -4  286.34    7.84
  -4   4  -4  277.86    7.84
   4  -4   4  278.34    7.33
  -5   4  -4    0.49    0.10
  -5   4  -4    0.46    0.10
   5  -4   4    0.53    0.13
  -6   4  -4   64.06    1.91
   6  -4   4   62.03    1.87
  -7   4  -4    0.11    0.09
   7  -4   4    0.04    0.11
  -8   4  -4   80.39    2.47
   8  -4   4   81.61    2.41
  -9   4  -4    0.05    0.11
   9  -4   4    0.01    0.12
  -9  -3   4   31.03    1.26
   8   3  -4    0.39    0.17
  -8  -3   4    0.38    0.17
   7   3  -4   75.09    2.35
  -7  -3   4   71.50    2.35
   6   3  -4    0.00    0.10
  -6  -3   4    0.41    0.15
   5   3  -4  168.40    5.00
  -5  -3   4  175.04    5.02
  -5  -3   4  174.98    4.54
   4   3  -4   24.69    0.89
  -4  -3   4   25.32    0.75
  -4  -3   4   25.78    0.91
   3   3  -4  192.20    5.63
  -3  -3   4  204.04    5.65
   2   3  -4   -0.09    0.06
  -2  -3   4    0.05    0.08
   1   3  -4  331.01    9.51
   1   3  -4  343.71    9.37
  -1  -3   4  330.74    9.36
   0   3  -4   19.16    0.67
   0   3  -4   22.56    0.69
   0  -3   4   20.10    0.67
  -1   3  -4  602.54   16.89
  -1   3  -4  613.31   15.48
  -1   3  -4  610.05   16.95
   1  -3   4  573.87   16.87
  -2   3  -4   30.22    0.90
  -2   3  -4   30.11    0.87
  -2   3  -4   28.07    0.89
   2  -3   4   27.62    0.87
   2  -3   4   29.27    0.88
  -3   3  -4  154.39    4.40
  -3   3  -4  163.60    4.41
   3  -3   4  152.40    4.12
   3  -3   4  153.70    4.38
  -4   3  -4    5.90    0.28
  -4   3  -4    6.24    0.28
   4  -3   4    5.59    0.24
   4  -3   4    6.05    0.30
  -5   3  -4  172.52    4.69
  -5   3  -4  160.29    4.68
   5  -3   4  165.29    4.64
   5  -3   4  159.45    4.39
  -6   3  -4   -0.04    0.07
   6  -3   4   -0.08    0.08
  -7   3  -4   91.64    2.73
   7  -3   4   89.59    2.60
  -8   3  -4    1.12    0.19
   8  -3   4    1.28    0.22
  -9   3  -4   43.15    1.50
   9  -3   4   43.61    1.47
  -9  -2   4    0.18    0.17
  -8  -2   4   70.22    2.30
   7   2  -4    4.65    0.34
  -7  -2   4    3.91    0.34
   6   2  -4   62.28    1.98
  -6  -2   4   63.19    2.00
   5   2  -4    0.02    0.09
  -5  -2   4   -0.06    0.09
  -5  -2   4   -0.03    0.03
   4   2  -4  183.25    5.24
  -4  -2   4  184.15    5.26
   3   2  -4    9.98    0.42
  -3  -2   4   10.06    0.43
   2   2  -4  372.89   10.47
  -2  -2   4  367.69   10.34
   1   2  -4    0.11    0.07
   1   2  -4    0.18    0.08
  -1  -2   4    0.40    0.09
   0   2  -4  149.44    4.45
   0   2  -4  167.25    4.47
   0  -2   4  157.96    4.46
  -1   2  -4   42.29    1.24
  -1   2  -4   39.22    1.23
   1  -2   4   43.19    1.24
  -2   2  -4  325.29    8.76
  -2   2  -4  348.81    9.70
  -2   2  -4  352.26    9.67
   2  -2   4  339.07    9.66
   2  -2   4  339.35    8.90
  -3   2  -4    5.28    0.25
  -3   2  -4    4.91    0.24
   3  -2   4    4.91    0.25
   3  -2   4    4.82    0.23
  -4   2  -4  188.87    5.49
  -4   2  -4  209.85    5.50
   4  -2   4  184.53    5.47
   4  -2   4  193.43    5.10
  -5   2  -4    0.01    0.07
  -5   2  -4   -0.03    0.07
   5  -2   4    0.02    0.08
   5  -2   4    0.00    0.05
  -6   2  -4  104.53    3.12
   6  -2   4  103.88    2.92
   6  -2   4  108.17    3.09
  -7   2  -4   -0.05    0.08
   7  -2   4    0.14    0.11
  -8   2  -4   54.74    1.81
   8  -2   4   55.24    1.71
  -9   2  -4   -0.04    0.11
   9  -2   4    0.03    0.12
  -9  -1   4   37.58    1.40
  -8  -1   4    3.45    0.35
   7   1  -4   75.85    2.31
  -7  -1   4   72.96    2.34
   6   1  -4   13.74    0.59
  -6  -1   4   14.06    0.61
   5   1  -4  104.08    2.94
  -5  -1   4   94.94    2.94
   4   1  -4    5.59    0.30
  -4  -1   4    6.22    0.33
  -3  -1   4  306.84    8.61
   2   1  -4   10.45    0.41
  -2  -1   4   10.93    0.42
   1   1  -4  204.50    5.74
   0   1  -4  258.43    7.09
   0  -1   4  248.43    7.19
  -1   1  -4  312.30    7.89
  -1   1  -4  302.84    8.68
  -1   1  -4  323.43    8.68
   1  -1   4  290.61    8.56
  -2   1  -4    8.63    0.35
  -2   1  -4    8.70    0.32
  -2   1  -4    8.46    0.34
   2  -1   4    8.54    0.34
   2  -1   4    8.41    0.32
  -3   1  -4  375.19    9.94
  -3   1  -4  349.93    9.92
   3  -1   4  339.54    9.92
   3  -1   4  357.42    9.15
  -4   1  -4    7.97    0.35
  -4   1  -4    6.53    0.33
   4  -1   4    7.06    0.32
   4  -1   4    7.16    0.33
  -5   1  -4   93.03    2.81
   5  -1   4   95.35    2.80
   5  -1   4   96.63    2.60
  -6   1  -4    2.90    0.25
   6  -1   4    2.84    0.23
   6  -1   4    2.79    0.22
  -7   1  -4   98.75    2.95
   7  -1   4   94.49    2.71
  -8   1  -4    2.24    0.28
   8  -1   4    2.44    0.28
  -9   1  -4   41.37    1.54
   9  -1   4   45.66    1.46
  -9   0   4    0.08    0.14
  -8   0   4   78.98    2.49
  -7   0   4    2.71    0.28
   6   0  -4   49.55    1.55
  -6   0   4   48.04    1.57
   5   0  -4    0.47    0.11
  -5   0   4    0.49    0.12
   4   0  -4  242.78    7.14
  -4   0   4  262.50    7.18
  -4   0   4  257.50    6.58
   3   0  -4    0.16    0.07
  -3   0   4    0.15    0.08
  -3   0   4    0.08    0.07
   2   0  -4  242.25    6.75
  -2   0   4  240.29    6.76
  -2   0   4  240.67    6.76
   1   0  -4  126.14    3.65
  -1   0   4  133.01    3.66
  -1   0   4  127.63    3.66
   0   0  -4  484.75   14.22
   0   0   4  521.51   14.23
   0   0   4  501.92   14.37
  -1   0  -4   10.42    0.40
   1   0   4   10.76    0.41
  -2   0  -4  204.97    6.11
  -2   0  -4  226.01    5.61
   2   0   4  221.41    6.12
  -3   0  -4   14.73    0.54
   3   0   4   14.35    0.47
   3   0   4   14.13    0.54
  -4   0  -4  203.36    5.78
   4   0   4  202.72    5.78
   4   0   4  203.79    5.30
  -5   0  -4    0.85    0.15
   5   0   4    0.88    0.15
   5   0   4    0.81    0.12
  -6   0  -4  122.80    3.70
   6   0   4  126.45    3.39
   6   0   4  125.73    3.69
  -7   0  -4    0.75    0.18
   7   0   4    0.80    0.15
   7   0   4    0.61    0.16
  -8   0  -4   41.20    1.46
   8   0   4   39.99    1.31
  -9   0  -4   -0.13    0.13
   9   0   4   -0.02    0.12
  -9   1   4   26.48    1.04
  -8   1   4   -0.04    0.10
  -7   1   4   65.82    2.07
   6  -1  -4    2.88    0.22
  -6   1   4    3.12    0.25
   5  -1  -4  136.03    4.05
  -5   1   4  150.58    4.10
  -5   1   4  138.92    4.09
   4  -1  -4    3.80    0.21
  -4   1   4    3.73    0.15
  -4   1   4    3.46    0.23
  -4   1   4    3.59    0.22
   3  -1  -4  230.57    6.56
  -3   1   4  234.14    6.08
  -3   1   4  234.65    6.57
  -3   1   4  236.96    6.58
   2  -1  -4    6.38    0.27
  -2   1   4    6.94    0.29
  -2   1   4    6.57    0.29
  -2   1   4    6.55    0.25
   1  -1  -4  149.71    4.33
  -1   1   4  154.48    4.35
  -1   1   4  157.29    4.35
   0  -1  -4   37.39    1.13
   0   1   4   35.71    1.14
   0   1   4   38.75    1.14
  -1  -1  -4  479.12   13.31
   1   1   4  461.42   13.34
  -2  -1  -4    1.49    0.10
  -2  -1  -4    1.55    0.17
   2   1   4    1.10    0.15
  -3  -1  -4  132.58    3.77
   3   1   4  132.13    3.78
   3   1   4  127.62    3.41
  -4  -1  -4    1.09    0.16
   4   1   4    1.55    0.14
   4   1   4    1.30    0.18
  -5  -1  -4  144.74    4.34
   5   1   4  150.56    3.94
   5   1   4  151.48    4.34
  -6  -1  -4   13.14    0.61
   6   1   4   14.25    0.62
   6   1   4   13.44    0.52
  -7  -1  -4   64.44    2.13
   7   1   4   66.05    2.12
   7   1   4   67.08    1.91
  -8  -1  -4    1.55    0.26
   8   1   4    1.63    0.21
  -9  -1  -4   30.93    1.27
   9   1   4   32.72    1.12
  -9   2   4   -0.14    0.11
  -8   2   4   40.06    1.37
  -7   2   4    0.36    0.12
  -6   2   4  143.79    4.17
   5  -2  -4    2.31    0.17
  -5   2   4    2.57    0.20
  -5   2   4    2.12    0.19
   4  -2  -4   80.08    2.33
  -4   2   4   83.49    2.37
  -4   2   4   78.76    2.37
   3  -2  -4    0.71    0.09
  -3   2   4    0.81    0.12
  -3   2   4    0.76    0.11
   2  -2  -4  287.93    8.09
  -2   2   4  282.64    8.25
  -2   2   4  299.10    8.11
  -2   2   4  291.60    7.57
   1  -2  -4    5.68    0.25
  -1   2   4    6.31    0.26
  -1   2   4    5.83    0.27
  -1   2   4    5.85    0.26
   0  -2  -4  338.17    9.61
   0   2   4  362.17    9.63
   0   2   4  332.63    9.63
   0   2   4  346.45    8.99
  -1  -2  -4   -0.06    0.06
   1   2   4   -0.05    0.02
   1   2   4   -0.02    0.07
  -2  -2  -4  205.11    5.67
   2   2   4  194.96    5.68
  -3  -2  -4    0.51    0.12
   3   2   4    0.39    0.11
  -4  -2  -4  136.66    4.04
   4   2   4  139.11    4.05
   4   2   4  139.65    3.62
  -5  -2  -4    0.86    0.18
   5   2   4    0.63    0.16
   5   2   4    0.93    0.12
  -6  -2  -4  126.51    3.85
   6   2   4  131.60    3.44
   6   2   4  127.05    3.85
  -7  -2  -4    0.43    0.16
   7   2   4    0.26    0.15
   7   2   4    0.13    0.09
  -8  -2  -4   43.13    1.57
   8   2   4   42.39    1.59
   8   2   4   42.77    1.33
  -9  -2  -4    0.06    0.16
  -9   3   4   33.90    1.22
  -8   3   4    0.52    0.14
  -7   3   4   53.77    1.69
  -6   3   4    5.68    0.32
  -5   3   4  161.05    4.40
  -5   3   4  146.26    4.39
  -4   3   4    3.18    0.20
  -4   3   4    2.77    0.20
   3  -3  -4  189.35    5.22
  -3   3   4  181.19    5.27
  -3   3   4  182.01    4.93
  -3   3   4  194.24    5.27
   2  -3  -4    0.12    0.05
  -2   3   4    0.09    0.07
  -2   3   4    0.15    0.06
  -2   3   4    0.18    0.07
   1  -3  -4  368.96   10.18
  -1   3   4  381.26   10.21
  -1   3   4  347.79   10.20
   0  -3  -4    0.00    0.05
   0   3   4   -0.08    0.06
   0   3   4   -0.05    0.05
  -1  -3  -4  179.38    5.00
  -1  -3  -4  175.36    4.50
   1   3   4  173.32    5.02
  -2  -3  -4    0.03    0.07
   2   3   4   -0.04    0.08
  -3  -3  -4  267.78    7.56
   3   3   4  265.93    7.58
  -4  -3  -4    1.53    0.20
   4   3   4    1.41    0.21
  -5  -3  -4   96.12    2.97
   5   3   4   96.96    2.99
   5   3   4   99.01    2.58
  -6  -3  -4   -0.04    0.11
   6   3   4    0.01    0.12
   6   3   4    0.14    0.07
  -7  -3  -4   65.28    2.16
   7   3   4   63.25    1.83
   7   3   4   66.07    2.17
  -8  -3  -4   -0.03    0.14
   8   3   4    0.35    0.18
  -8   4   4   37.65    1.27
  -7   4   4    0.03    0.08
  -6   4   4   70.45    2.11
  -5   4   4    0.13    0.08
  -4   4   4  137.58    4.08
  -4   4   4  149.02    4.09
  -3   4   4    0.89    0.12
  -3   4   4    0.76    0.11
   2  -4  -4  123.10    3.50
  -2   4   4  118.52    3.54
  -2   4   4  130.31    3.56
   1  -4  -4    0.26    0.07
  -1   4   4    0.37    0.10
  -1   4   4    0.26    0.08
   0  -4  -4  188.38    5.32
   0   4   4  185.38    5.36
   0   4   4  190.92    5.36
  -1  -4  -4    1.71    0.18
   1   4   4    1.74    0.20
  -2  -4  -4  151.12    4.23
   2   4   4  141.74    4.26
  -3  -4  -4    3.22    0.26
   3   4   4    1.93    0.24
  -4  -4  -4   90.89    2.81
   4   4   4   94.43    2.86
  -5  -4  -4    1.64    0.25
   5   4   4    1.42    0.25
  -6  -4  -4   38.45    1.40
   6   4   4   38.63    1.42
  -7  -4  -4    0.18    0.15
   7   4   4    0.08    0.15
  -8  -4  -4   42.36    1.62
   8   4   4   43.32    1.64
  -8   5   4    0.15    0.10
  -7   5   4   42.00    1.34
  -6   5   4   -0.01    0.07
  -5   5   4   27.85    0.91
  -4   5   4    0.22    0.08
  -3   5   4   97.43    2.90
  -3   5   4  103.09    2.91
  -2   5   4    0.51    0.10
  -2   5   4    0.65    0.11
   1  -5  -4   67.09    1.97
  -1   5   4   68.87    2.03
  -1   5   4   66.10    2.03
   0  -5  -4    5.58    0.28
   0  -5  -4    5.71    0.18
   0   5   4    5.43    0.32
   0   5   4    5.72    0.32
  -1  -5  -4   58.16    1.76
   1   5   4   57.05    1.81
  -2  -5  -4    3.07    0.24
   2   5   4    3.06    0.27
  -3  -5  -4   73.33    2.28
   3   5   4   74.78    2.34
  -4  -5  -4    1.09    0.21
   4   5   4    1.13    0.22
  -5  -5  -4   33.49    1.21
   5   5   4   30.60    1.22
  -6  -5  -4    0.52    0.19
   6   5   4    0.22    0.17
  -7  -5  -4   34.38    1.37
   7   5   4   34.82    1.39
  -7   6   4    0.11    0.08
  -6   6   4   30.87    1.00
  -5   6   4    0.71    0.11
  -4   6   4   50.31    1.53
  -3   6   4    0.58    0.11
  -2   6   4   65.31    1.97
   1  -6  -4    0.09    0.05
  -1   6   4    0.15    0.09
   0   6   4   55.43    1.75
   1   6   4    3.78    0.30
   2   6   4   65.42    2.09
   3   6   4    0.20    0.15
   4   6   4   54.89    1.88
   5   6   4    0.64    0.21
   6   6   4   28.02    1.20
  -6   7   4    0.37    0.09
  -5   7   4   44.77    1.37
  -4   7   4    0.08    0.07
  -3   7   4   53.40    1.64
  -2   7   4    0.22    0.10
  -1   7   4   81.48    2.47
   0   7   4    0.08    0.11
   1   7   4   66.08    2.11
   2   7   4    0.06    0.12
   3   7   4   48.34    1.69
   4   7   4    0.11    0.16
   5   7   4   44.26    1.66
  -4   8   4   42.26    1.32
  -3   8   4    0.00    0.08
  -2   8   4   33.24    1.12
  -1   8   4    0.73    0.17
   0   8   4   53.19    1.75
   1   8   4    0.61    0.18
   2   8   4   28.58    1.13
   3   8   4    0.04    0.14
   1  10  -5    0.59    0.18
  -1 -10   5    0.79    0.22
   0  10  -5    1.24    0.21
   0 -10   5    1.15    0.26
  -1  10  -5    0.56    0.13
   1 -10   5    0.34    0.17
  -2  10  -5    0.54    0.13
   2 -10   5    0.66    0.21
   4   9  -5    0.34    0.19
  -4  -9   5    0.21    0.16
   3   9  -5    2.29    0.32
  -3  -9   5    1.92    0.30
   2   9  -5    0.99    0.21
  -2  -9   5    1.17    0.24
   1   9  -5    0.95    0.19
  -1  -9   5    1.55    0.26
   0   9  -5    0.30    0.12
   0  -9   5    0.25    0.15
  -1   9  -5    1.02    0.17
   1  -9   5    1.61    0.25
  -2   9  -5   -0.02    0.07
   2  -9   5    0.12    0.12
  -3   9  -5    0.27    0.09
   3  -9   5    0.29    0.16
  -4   9  -5    0.10    0.05
   4  -9   5   -0.05    0.11
   5  -9   5    0.15    0.13
   5   8  -5    0.58    0.21
  -5  -8   5    0.45    0.16
   4   8  -5    0.82    0.21
  -4  -8   5    0.50    0.16
   3   8  -5    1.30    0.24
  -3  -8   5    1.30    0.22
   2   8  -5    1.33    0.23
  -2  -8   5    1.73    0.25
   1   8  -5    0.29    0.13
  -1  -8   5    0.35    0.15
   0   8  -5    0.31    0.11
   0  -8   5    0.27    0.14
  -1   8  -5    0.51    0.12
  -2   8  -5    0.06    0.07
  -3   8  -5    0.15    0.07
  -4   8  -5    0.61    0.09
  -5   8  -5    1.12    0.10
   5  -8   5    1.05    0.21
   6  -8   5    0.49    0.17
   6   7  -5    0.14    0.17
  -6  -7   5    0.34    0.12
   5   7  -5   -0.10    0.13
  -5  -7   5    0.06    0.11
   4   7  -5    3.54    0.38
  -4  -7   5    3.37    0.31
   3   7  -5    2.88    0.31
  -3  -7   5    2.82    0.28
   2   7  -5   -0.05    0.09
  -2  -7   5    0.13    0.10
   1   7  -5    0.03    0.09
   0   7  -5    1.17    0.17
  -1   7  -5    2.19    0.19
  -2   7  -5    0.08    0.07
  -2   7  -5    0.12    0.07
  -3   7  -5    0.27    0.08
  -3   7  -5    0.20    0.07
  -4   7  -5    0.35    0.08
  -4   7  -5    0.33    0.07
  -5   7  -5    0.81    0.10
   5  -7   5    0.84    0.18
  -6   7  -5    0.32    0.08
   6  -7   5    0.48    0.16
  -7   7  -5    0.01    0.06
   7  -7   5    0.04    0.11
   7   6  -5    0.67    0.24
  -7  -6   5    0.43    0.20
   6   6  -5    1.25    0.26
  -6  -6   5    2.00    0.21
  -6  -6   5    1.85    0.29
   5   6  -5    1.64    0.27
  -5  -6   5    1.93    0.27
  -5  -6   5    2.05    0.22
   4   6  -5    2.48    0.29
  -4  -6   5    2.17    0.26
  -4  -6   5    2.10    0.22
   3   6  -5    0.77    0.16
  -3  -6   5    1.11    0.16
  -3  -6   5    1.01    0.18
   2   6  -5    0.60    0.15
  -2  -6   5    0.76    0.14
   1   6  -5    0.88    0.15
   1   6  -5    0.65    0.14
  -1  -6   5    0.76    0.12
   0   6  -5    4.23    0.26
   0   6  -5    4.30    0.26
   0  -6   5    4.39    0.23
  -1   6  -5    0.32    0.09
  -1   6  -5    0.32    0.09
  -2   6  -5    1.85    0.15
  -2   6  -5    1.68    0.15
  -3   6  -5    0.12    0.06
  -3   6  -5    0.20    0.07
  -4   6  -5    0.04    0.05
  -4   6  -5    0.03    0.05
   4  -6   5    0.03    0.09
  -5   6  -5    0.24    0.07
   5  -6   5    0.19    0.12
  -6   6  -5    0.13    0.07
   6  -6   5   -0.02    0.11
  -7   6  -5    0.01    0.07
   7  -6   5   -0.15    0.12
  -8   6  -5   -0.01    0.08
   8  -6   5   -0.02    0.11
   8   5  -5    0.67    0.22
  -8  -5   5    0.81    0.26
   7   5  -5    3.12    0.37
  -7  -5   5    2.54    0.33
   6   5  -5    0.74    0.20
  -6  -5   5    1.26    0.24
  -6  -5   5    0.97    0.14
   5   5  -5    1.58    0.24
  -5  -5   5    1.83    0.18
  -5  -5   5    1.90    0.27
   4   5  -5    0.57    0.16
  -4  -5   5    1.24    0.21
  -4  -5   5    1.04    0.15
   3   5  -5    4.01    0.29
  -3  -5   5    2.82    0.25
   2   5  -5    0.11    0.10
  -2  -5   5    0.15    0.10
   1   5  -5    1.79    0.19
   1   5  -5    1.68    0.19
  -1  -5   5    1.70    0.18
   0   5  -5    0.35    0.09
   0   5  -5    0.47    0.10
   0  -5   5    0.38    0.09
  -1   5  -5    1.47    0.15
  -1   5  -5    1.74    0.15
   1  -5   5    1.64    0.13
  -2   5  -5    0.11    0.06
  -2   5  -5    0.08    0.06
  -3   5  -5    0.07    0.06
  -3   5  -5   -0.03    0.04
   3  -5   5    0.01    0.08
  -4   5  -5    1.02    0.12
  -4   5  -5    0.93    0.12
   4  -5   5    1.27    0.19
  -5   5  -5    0.43    0.09
  -5   5  -5    0.38    0.09
   5  -5   5    0.24    0.12
  -6   5  -5    0.83    0.14
   6  -5   5    0.98    0.20
  -7   5  -5    0.16    0.10
   7  -5   5    0.31    0.15
  -8   5  -5    0.58    0.14
   8  -5   5    0.49    0.19
   8   4  -5    0.55    0.20
  -8  -4   5    0.77    0.21
   7   4  -5    1.65    0.25
  -7  -4   5    2.14    0.32
   6   4  -5    1.83    0.26
  -6  -4   5    1.73    0.14
  -6  -4   5    1.76    0.26
   5   4  -5    1.91    0.24
  -5  -4   5    2.43    0.27
  -5  -4   5    2.28    0.17
   4   4  -5    1.02    0.17
  -4  -4   5    1.43    0.20
  -4  -4   5    1.68    0.16
   3   4  -5    0.12    0.11
  -3  -4   5    0.21    0.11
   2   4  -5    0.34    0.10
  -2  -4   5    0.18    0.09
   1   4  -5    2.32    0.19
   1   4  -5    2.03    0.18
  -1  -4   5    2.14    0.18
   0   4  -5    0.50    0.10
   0   4  -5    0.62    0.11
   0  -4   5    0.58    0.10
  -1   4  -5    2.83    0.18
  -1   4  -5    2.59    0.17
   1  -4   5    2.92    0.17
  -2   4  -5    0.72    0.10
  -2   4  -5    0.85    0.11
   2  -4   5    0.92    0.10
  -3   4  -5    2.31    0.16
  -3   4  -5    1.63    0.14
   3  -4   5    2.04    0.13
   3  -4   5    1.77    0.18
  -4   4  -5    0.18    0.07
  -4   4  -5    0.09    0.07
   4  -4   5    0.04    0.09
  -5   4  -5    2.52    0.19
  -5   4  -5    2.38    0.19
   5  -4   5    2.34    0.24
  -6   4  -5    0.17    0.09
   6  -4   5    0.19    0.13
  -7   4  -5    2.20    0.23
   7  -4   5    2.50    0.28
  -8   4  -5    0.05    0.10
   8  -4   5   -0.10    0.12
  -9   4  -5    2.58    0.30
   9  -4   5    3.22    0.37
  -9  -3   5    0.46    0.22
   8   3  -5    2.53    0.32
  -8  -3   5    2.02    0.31
   7   3  -5    1.77    0.25
  -7  -3   5    2.39    0.31
   6   3  -5    1.49    0.23
  -6  -3   5    1.44    0.11
  -6  -3   5    1.11    0.20
   5   3  -5    0.04    0.11
  -5  -3   5    0.11    0.05
  -5  -3   5    0.42    0.15
   4   3  -5    7.53    0.40
  -4  -3   5    7.77    0.41
   3   3  -5    4.41    0.27
  -3  -3   5    4.46    0.28
   2   3  -5    0.95    0.13
  -2  -3   5    1.43    0.16
   1   3  -5    1.44    0.15
  -1  -3   5    1.96    0.16
   0   3  -5    0.02    0.06
   0   3  -5    0.02    0.06
   0  -3   5    0.09    0.07
  -1   3  -5    3.41    0.19
  -1   3  -5    3.65    0.19
  -1   3  -5    3.09    0.19
   1  -3   5    3.50    0.19
  -2   3  -5    0.24    0.06
  -2   3  -5    0.32    0.08
   2  -3   5    0.37    0.08
  -3   3  -5    0.18    0.06
  -3   3  -5    0.11    0.07
   3  -3   5    0.12    0.06
   3  -3   5    0.06    0.07
  -4   3  -5    0.47    0.10
  -4   3  -5    0.57    0.11
   4  -3   5    0.67    0.10
   4  -3   5    0.56    0.12
  -5   3  -5    0.46    0.11
  -5   3  -5    0.69    0.13
   5  -3   5    0.60    0.14
   5  -3   5    0.69    0.12
  -6   3  -5    2.43    0.24
   6  -3   5    2.34    0.25
  -7   3  -5    0.23    0.12
   7  -3   5    0.36    0.14
  -8   3  -5    1.97    0.26
   8  -3   5    1.56    0.24
  -9   3  -5   -0.02    0.12
   9  -3   5   -0.06    0.13
  -9  -2   5    0.16    0.17
  -8  -2   5    0.95    0.23
   7   2  -5    1.44    0.22
  -7  -2   5    1.63    0.26
   6   2  -5    2.14    0.24
  -6  -2   5    2.06    0.26
   5   2  -5    0.18    0.10
  -5  -2   5    0.16    0.10
  -5  -2   5    0.06    0.03
   4   2  -5    2.08    0.22
  -4  -2   5    1.90    0.22
   3   2  -5    0.49    0.11
  -3  -2   5    0.86    0.14
  -2  -2   5   13.47    0.52
   1   2  -5    0.45    0.09
  -1  -2   5    0.50    0.10
   0   2  -5    1.04    0.13
   0   2  -5    0.60    0.09
   0  -2   5    0.80    0.11
  -1   2  -5    1.16    0.12
  -1   2  -5    1.29    0.12
  -1   2  -5    1.35    0.13
   1  -2   5    1.50    0.13
  -2   2  -5    7.78    0.31
  -2   2  -5    8.01    0.33
  -2   2  -5    7.89    0.33
   2  -2   5    7.88    0.33
  -3   2  -5    0.01    0.06
  -3   2  -5    0.02    0.06
   3  -2   5   -0.01    0.05
   3  -2   5    0.00    0.06
  -4   2  -5    0.06    0.07
  -4   2  -5    0.04    0.07
   4  -2   5    0.05    0.06
   4  -2   5    0.02    0.07
  -5   2  -5    1.19    0.17
  -5   2  -5    1.74    0.20
   5  -2   5    1.33    0.17
   5  -2   5    1.12    0.15
  -6   2  -5    0.61    0.15
   6  -2   5    0.65    0.15
   6  -2   5    0.31    0.10
  -7   2  -5    0.55    0.15
   7  -2   5    0.68    0.16
  -8   2  -5    0.18    0.12
   8  -2   5    0.11    0.11
  -9   2  -5    1.19    0.24
   9  -2   5    1.14    0.23
  -9  -1   5    1.23    0.25
  -8  -1   5    0.06    0.13
   7   1  -5    1.67    0.22
  -7  -1   5    1.87    0.26
   6   1  -5    0.10    0.10
  -6  -1   5    0.09    0.11
   5   1  -5    2.68    0.22
  -5  -1   5    1.99    0.22
   4   1  -5   -0.02    0.07
  -4  -1   5    0.00    0.08
   3   1  -5   -0.09    0.05
  -3  -1   5    0.07    0.07
   2   1  -5    3.69    0.22
  -2  -1   5    3.76    0.23
   1   1  -5    0.85    0.11
  -1  -1   5    0.57    0.10
   0   1  -5    0.50    0.09
   0  -1   5    0.34    0.08
  -1   1  -5    7.55    0.32
   1  -1   5    7.79    0.33
  -2   1  -5    5.79    0.28
  -2   1  -5    5.91    0.25
   2  -1   5    5.36    0.27
  -3   1  -5    3.92    0.24
   3  -1   5    4.12    0.24
   3  -1   5    4.35    0.23
  -4   1  -5    1.20    0.17
   4  -1   5    1.52    0.16
   4  -1   5    1.60    0.18
  -5   1  -5    1.88    0.21
   5  -1   5    1.46    0.18
   5  -1   5    1.63    0.18
  -6   1  -5    1.08    0.18
   6  -1   5    1.17    0.17
   6  -1   5    0.84    0.15
  -7   1  -5    0.58    0.17
   7  -1   5    0.33    0.13
  -8   1  -5    1.15    0.22
   8  -1   5    1.46    0.23
  -9   1  -5   -0.12    0.12
   9  -1   5   -0.11    0.12
  -9   0   5    0.49    0.19
  -8   0   5    0.72    0.19
  -7   0   5    1.16    0.20
   6   0  -5    2.18    0.22
  -6   0   5    2.34    0.25
   5   0  -5    3.67    0.24
  -5   0   5    2.91    0.25
   4   0  -5    0.27    0.09
  -4   0   5    0.47    0.05
  -4   0   5    0.28    0.10
   3   0  -5    0.07    0.06
  -3   0   5    0.25    0.09
   2   0  -5   11.38    0.44
  -2   0   5   11.98    0.46
   1   0  -5    9.69    0.38
  -1   0   5    9.91    0.39
   0   0  -5    0.56    0.09
   0   0   5    0.69    0.11
  -1   0  -5    3.22    0.19
   1   0   5    2.65    0.19
  -2   0  -5    1.32    0.15
  -2   0  -5    1.55    0.12
   2   0   5    1.24    0.14
  -3   0  -5    1.31    0.16
   3   0   5    1.06    0.14
  -4   0  -5    0.03    0.08
   4   0   5    0.04    0.07
   4   0   5    0.01    0.07
  -5   0  -5    1.24    0.19
   5   0   5    1.70    0.18
   5   0   5    1.46    0.19
  -6   0  -5    0.08    0.11
   6   0   5    0.08    0.09
   6   0   5    0.04    0.09
  -7   0  -5    2.57    0.30
   7   0   5    1.81    0.22
  -8   0  -5    0.30    0.16
   8   0   5    0.65    0.17
  -9   0  -5    3.21    0.39
   9   0   5    3.61    0.36
  -9   1   5    0.57    0.18
  -8   1   5    2.14    0.27
  -7   1   5    0.97    0.18
   6  -1  -5    0.23    0.10
  -6   1   5    0.37    0.12
   5  -1  -5    0.39    0.10
  -5   1   5    0.28    0.11
  -5   1   5    0.27    0.10
   4  -1  -5    2.21    0.17
  -4   1   5    2.11    0.19
  -4   1   5    2.48    0.13
  -4   1   5    2.66    0.20
   3  -1  -5    3.85    0.22
  -3   1   5    4.25    0.24
  -3   1   5    4.15    0.24
   2  -1  -5    2.89    0.18
  -2   1   5    2.64    0.19
  -2   1   5    2.66    0.18
   1  -1  -5    1.16    0.12
  -1   1   5    1.41    0.14
  -1   1   5    0.94    0.12
   0  -1  -5    1.61    0.15
   0   1   5    1.79    0.16
  -1  -1  -5    0.09    0.07
   1   1   5    0.00    0.07
  -2  -1  -5    1.35    0.16
  -2  -1  -5    1.54    0.11
   2   1   5    1.88    0.19
  -3  -1  -5    0.84    0.13
   3   1   5    0.99    0.15
  -4  -1  -5    0.35    0.12
   4   1   5    0.31    0.11
   4   1   5    0.41    0.08
  -5  -1  -5    2.63    0.27
   5   1   5    2.39    0.26
   5   1   5    2.78    0.20
  -6  -1  -5    7.30    0.43
   6   1   5    6.80    0.34
   6   1   5    6.72    0.42
  -7  -1  -5    0.55    0.17
   7   1   5    0.49    0.17
   7   1   5    0.70    0.15
  -8  -1  -5    1.13    0.23
   8   1   5    0.96    0.18
  -9  -1  -5    0.11    0.17
   9   1   5    0.30    0.15
  -9   2   5    0.13    0.15
  -8   2   5    0.57    0.16
  -7   2   5    0.01    0.09
  -6   2   5    1.54    0.19
   5  -2  -5    0.08    0.06
  -5   2   5    0.10    0.08
  -5   2   5   -0.02    0.08
   4  -2  -5    0.24    0.07
  -4   2   5    0.36    0.10
  -4   2   5    0.19    0.09
  -4   2   5    0.29    0.07
   3  -2  -5    0.58    0.09
  -3   2   5    0.70    0.10
  -3   2   5    0.75    0.12
  -3   2   5    0.56    0.11
   2  -2  -5    0.05    0.05
  -2   2   5    0.05    0.05
  -2   2   5    0.05    0.06
  -2   2   5   -0.04    0.05
   1  -2  -5   13.35    0.48
  -1   2   5   13.07    0.49
  -1   2   5   12.46    0.47
  -1   2   5   13.57    0.50
   0  -2  -5    4.91    0.25
   0   2   5    4.91    0.27
   0   2   5    4.57    0.25
   0   2   5    5.22    0.29
  -1  -2  -5    5.10    0.27
   1   2   5    4.74    0.28
  -2  -2  -5    0.21    0.05
  -2  -2  -5    0.32    0.10
   2   2   5    0.31    0.11
  -3  -2  -5    2.80    0.23
   3   2   5    3.02    0.25
  -4  -2  -5    5.83    0.35
   4   2   5    5.21    0.35
  -5  -2  -5    8.92    0.48
   5   2   5    9.17    0.36
   5   2   5    8.96    0.49
  -6  -2  -5    1.99    0.27
   6   2   5    2.50    0.20
   6   2   5    1.84    0.26
  -7  -2  -5    0.24    0.16
   7   2   5    0.71    0.19
   7   2   5    0.59    0.13
  -8  -2  -5    0.69    0.21
   8   2   5    1.28    0.20
  -8   3   5    0.18    0.12
  -7   3   5    0.26    0.12
  -6   3   5    0.05    0.08
  -5   3   5    0.61    0.13
   4  -3  -5    0.03    0.05
  -4   3   5    0.15    0.06
  -4   3   5    0.00    0.07
  -4   3   5    0.07    0.08
   3  -3  -5    0.09    0.05
  -3   3   5    0.04    0.07
  -3   3   5    0.14    0.07
   2  -3  -5    4.17    0.21
  -2   3   5    3.68    0.23
  -2   3   5    3.84    0.23
   1  -3  -5    1.06    0.12
  -1   3   5    0.81    0.12
  -1   3   5    1.27    0.15
   0  -3  -5    0.52    0.10
   0   3   5    0.39    0.11
   0   3   5    0.54    0.11
  -1  -3  -5    0.13    0.07
   1   3   5   -0.01    0.08
  -2  -3  -5    4.41    0.28
   2   3   5    4.76    0.31
  -3  -3  -5    2.31    0.24
   3   3   5    2.32    0.26
  -4  -3  -5    2.33    0.25
   4   3   5    2.77    0.30
  -5  -3  -5    0.39    0.15
   5   3   5    0.20    0.13
  -6  -3  -5    1.26    0.23
   6   3   5    0.65    0.18
  -7  -3  -5    0.01    0.16
   7   3   5    0.40    0.19
  -8  -3  -5    1.44    0.28
   8   3   5    1.43    0.29
  -8   4   5    0.04    0.10
  -7   4   5    0.33    0.12
  -6   4   5    0.18    0.09
  -5   4   5    0.23    0.10
  -4   4   5    0.00    0.07
  -3   4   5    0.58    0.11
  -3   4   5    0.54    0.12
   2  -4  -5    1.60    0.13
  -2   4   5    1.39    0.17
  -2   4   5    1.67    0.18
   1  -4  -5    0.62    0.10
  -1   4   5    0.56    0.12
  -1   4   5    0.71    0.13
   0  -4  -5    0.01    0.06
   0   4   5    0.07    0.09
   0   4   5    0.00    0.06
  -1  -4  -5    0.02    0.08
   1   4   5    0.01    0.09
  -2  -4  -5    0.59    0.13
   2   4   5    0.62    0.15
  -3  -4  -5    0.25    0.12
   3   4   5    0.29    0.13
  -4  -4  -5    0.04    0.10
   4   4   5   -0.05    0.11
  -5  -4  -5    0.44    0.18
   5   4   5    0.56    0.19
  -6  -4  -5    0.25    0.17
   6   4   5   -0.01    0.15
  -7  -4  -5    1.16    0.26
   7   4   5    1.42    0.29
  -7   5   5   -0.09    0.08
  -6   5   5   -0.02    0.08
  -5   5   5    0.63    0.12
  -4   5   5    1.05    0.15
  -3   5   5    0.02    0.07
  -2   5   5    0.74    0.13
  -1   5   5    0.19    0.10
   0   5   5    0.42    0.12
  -1  -5  -5   -0.01    0.07
   1   5   5   -0.04    0.09
  -2  -5  -5    2.14    0.23
   2   5   5    1.49    0.22
  -3  -5  -5    0.22    0.13
   3   5   5    0.18    0.14
  -4  -5  -5    0.09    0.12
   4   5   5    0.13    0.13
  -5  -5  -5   -0.06    0.13
   5   5   5    0.30    0.16
  -6  -5  -5    0.56    0.20
   6   5   5    1.24    0.26
  -6   6   5    0.90    0.14
  -5   6   5    0.12    0.08
  -4   6   5    0.10    0.09
  -3   6   5    0.84    0.14
  -2   6   5    0.31    0.10
  -1   6   5    0.78    0.16
   0   6   5   -0.02    0.09
   1   6   5    0.84    0.18
   2   6   5    1.27    0.22
   3   6   5    2.50    0.32
   4   6   5    1.41    0.27
   5   6   5    0.70    0.23
  -5   7   5    0.04    0.08
  -4   7   5    0.19    0.10
  -3   7   5    0.00    0.09
  -2   7   5    0.13    0.10
  -1   7   5   -0.03    0.10
   0   7   5    0.43    0.14
   1   7   5    0.96    0.20
   2   7   5    1.97    0.28
   3   7   5    0.54    0.21
   4   7   5    0.78    0.24
  -3   8   5   -0.04    0.09
  -2   8   5    0.07    0.10
  -1   8   5    0.32    0.14
   0   8   5    1.27    0.22
   1   8   5    0.79    0.20
   2   8   5    0.06    0.15
   1  10  -6   33.32    1.25
  -1 -10   6   34.35    1.28
   0  10  -6    0.38    0.15
   0 -10   6    0.43    0.19
  -1  10  -6   49.51    1.62
   1 -10   6   50.46    1.72
  -2  10  -6    0.24    0.11
   2 -10   6    0.27    0.17
   4   9  -6   32.16    1.30
  -4  -9   6   33.87    1.22
   3   9  -6    0.04    0.15
  -3  -9   6    0.19    0.14
   2   9  -6   53.20    1.82
  -2  -9   6   55.06    1.77
   1   9  -6    1.47    0.23
  -1  -9   6    1.50    0.24
   0  -9   6   56.72    1.83
  -1   9  -6    0.10    0.09
  -2   9  -6   61.46    1.88
  -3   9  -6    1.15    0.15
  -4   9  -6   40.36    1.23
  -5   9  -6    1.35    0.11
   5   8  -6   31.86    1.29
  -5  -8   6   33.41    1.15
   4   8  -6    2.50    0.33
  -4  -8   6    3.13    0.31
   3   8  -6   75.40    2.47
  -3  -8   6   79.53    2.33
   2   8  -6    0.05    0.11
  -2  -8   6    0.07    0.10
   1   8  -6   66.50    2.10
   0   8  -6    7.21    0.39
  -1   8  -6   65.41    2.01
  -2   8  -6    1.71    0.18
  -3   8  -6   98.15    2.86
  -4   8  -6    0.90    0.12
  -5   8  -6   33.74    1.05
  -6   8  -6    1.95    0.15
   6   7  -6   25.39    1.07
  -6  -7   6   23.37    0.87
   5   7  -6    4.56    0.41
  -5  -7   6    5.13    0.34
   4   7  -6   63.48    2.10
  -4  -7   6   63.80    1.92
   3   7  -6    2.93    0.31
  -3  -7   6    3.08    0.29
   2   7  -6   82.78    2.55
   1   7  -6   13.66    0.59
   0   7  -6   63.18    1.95
  -1   7  -6   -0.03    0.06
  -2   7  -6   97.61    2.85
  -3   7  -6    0.01    0.06
  -4   7  -6   56.70    1.70
  -5   7  -6    0.16    0.07
   5  -7   6    0.16    0.12
  -6   7  -6   42.06    1.34
   6  -7   6   45.25    1.46
  -7   7  -6    0.70    0.13
   7  -7   6    0.86    0.20
   7   6  -6   29.75    1.22
  -7  -6   6   29.32    1.22
   6   6  -6    0.09    0.14
  -6  -6   6    0.04    0.08
  -6  -6   6   -0.12    0.12
   5   6  -6   59.16    1.98
  -5  -6   6   59.92    1.76
  -5  -6   6   59.32    1.98
   4   6  -6    0.81    0.19
  -4  -6   6    0.47    0.16
  -4  -6   6    0.80    0.15
   3   6  -6   92.05    2.85
  -3  -6   6   95.41    2.85
   2   6  -6    1.94    0.24
  -2  -6   6    1.91    0.22
   1   6  -6   89.93    2.73
  -1  -6   6   92.83    2.71
   0   6  -6    0.17    0.09
   0   6  -6    0.22    0.09
   0  -6   6    0.08    0.07
  -1   6  -6  148.82    4.43
  -1   6  -6  160.40    4.44
   1  -6   6  154.89    4.37
  -2   6  -6    1.09    0.14
  -2   6  -6    1.13    0.14
  -3   6  -6   98.25    2.80
  -3   6  -6   94.86    2.80
  -4   6  -6    5.97    0.29
  -5   6  -6   88.02    2.61
   5  -6   6   90.92    2.58
  -6   6  -6    3.15    0.23
   6  -6   6    3.37    0.34
  -7   6  -6   46.29    1.50
   7  -6   6   49.95    1.59
  -8   6  -6    0.73    0.15
   8  -6   6    0.82    0.21
   8   5  -6   32.29    1.28
  -8  -5   6   30.14    1.27
   7   5  -6    0.03    0.14
  -7  -5   6   -0.01    0.13
   6   5  -6   96.00    3.02
  -6  -5   6   97.56    2.66
  -6  -5   6   96.29    3.03
   5   5  -6    0.73    0.18
  -5  -5   6    0.42    0.16
  -5  -5   6    0.63    0.12
   4   5  -6   95.92    2.95
  -4  -5   6   98.06    2.96
   3   5  -6    2.10    0.25
  -3  -5   6    1.59    0.21
   2   5  -6  173.82    5.17
  -2  -5   6  186.28    5.18
   1   5  -6    4.86    0.29
  -1  -5   6    4.97    0.29
   0   5  -6  315.99    9.03
   0   5  -6  337.17    9.05
   0  -5   6  311.86    9.00
  -1   5  -6    6.02    0.30
  -1   5  -6    5.37    0.29
   1  -5   6    5.72    0.27
  -2   5  -6  220.11    6.08
  -2   5  -6  209.43    6.07
   2  -5   6  216.51    6.03
  -3   5  -6    1.48    0.15
  -3   5  -6    1.59    0.15
  -4   5  -6  136.21    3.97
  -4   5  -6  143.50    3.98
   4  -5   6  136.68    3.78
  -5   5  -6    0.50    0.11
   5  -5   6    0.73    0.16
  -6   5  -6  118.79    3.50
   6  -5   6  121.59    3.38
  -7   5  -6    0.21    0.10
   7  -5   6    0.38    0.15
  -8   5  -6   37.71    1.29
   8  -5   6   37.72    1.33
   8   4  -6    1.93    0.31
  -8  -4   6    2.17    0.33
   7   4  -6   71.38    2.31
  -7  -4   6   69.45    2.32
   6   4  -6    0.69    0.18
  -6  -4   6    0.83    0.10
  -6  -4   6    0.53    0.17
   5   4  -6  121.88    3.70
  -5  -4   6  123.96    3.71
  -5  -4   6  124.74    3.32
   4   4  -6    0.41    0.14
  -4  -4   6    0.36    0.14
   3   4  -6  172.49    4.84
  -3  -4   6  161.60    4.82
   2   4  -6    0.59    0.13
  -2  -4   6    0.89    0.15
   1   4  -6  459.74   12.94
  -1  -4   6  450.59   12.71
   0   4  -6    0.16    0.08
   0   4  -6   -0.03    0.07
   0  -4   6   -0.03    0.07
  -1   4  -6  176.85    4.74
  -1   4  -6  164.17    4.72
   1  -4   6  157.36    4.70
  -2   4  -6    1.65    0.16
  -2   4  -6    1.76    0.17
   2  -4   6    1.59    0.14
  -3   4  -6  254.04    7.29
  -3   4  -6  266.50    7.30
   3  -4   6  258.38    7.27
  -4   4  -6    0.73    0.13
  -4   4  -6    0.66    0.12
   4  -4   6    0.86    0.11
   4  -4   6    0.78    0.15
  -5   4  -6  125.91    3.64
   5  -4   6  124.59    3.44
  -6   4  -6    1.52    0.19
   6  -4   6    1.44    0.21
  -7   4  -6   67.79    2.12
   7  -4   6   68.67    2.06
  -8   4  -6    0.23    0.13
   8  -4   6    0.05    0.13
  -9  -3   6    0.63    0.23
  -8  -3   6   29.09    1.18
   7   3  -6    0.02    0.12
  -7  -3   6    0.03    0.14
   6   3  -6   81.24    2.57
  -6  -3   6   83.16    2.60
  -6  -3   6   83.41    2.20
   5   3  -6    0.29    0.13
  -5  -3   6    0.01    0.10
   4   3  -6  180.13    5.10
  -4  -3   6  172.04    5.09
   3   3  -6    3.05    0.24
  -3  -3   6    3.76    0.27
   2   3  -6  111.96    3.27
   1   3  -6    1.02    0.15
  -1  -3   6    0.65    0.13
   0   3  -6  181.19    5.34
   0  -3   6  196.38    5.36
  -1   3  -6    0.17    0.08
  -1   3  -6    0.17    0.08
   1  -3   6    0.27    0.09
  -2   3  -6  208.71    5.63
  -2   3  -6  196.06    5.62
   2  -3   6  192.35    5.61
  -3   3  -6    2.84    0.20
  -3   3  -6    3.06    0.20
   3  -3   6    2.54    0.18
  -4   3  -6  129.38    3.81
  -4   3  -6  140.83    3.82
   4  -3   6  127.34    3.78
   4  -3   6  129.87    3.56
  -5   3  -6    0.07    0.08
   5  -3   6    0.15    0.11
   5  -3   6    0.00    0.07
  -6   3  -6   48.31    1.57
   6  -3   6   49.82    1.52
  -7   3  -6   -0.01    0.09
   7  -3   6    0.01    0.12
  -8   3  -6   59.23    1.94
  -9   3  -6    0.20    0.14
   9  -3   6   -0.15    0.12
  -9  -2   6   23.88    1.05
  -8  -2   6    2.29    0.31
   7   2  -6   66.32    2.14
  -7  -2   6   66.80    2.17
   6   2  -6    0.31    0.13
  -6  -2   6    0.21    0.12
   5   2  -6   96.08    2.96
  -5  -2   6  101.94    3.00
   4   2  -6    5.87    0.33
  -4  -2   6    5.67    0.35
   3   2  -6   99.37    2.94
  -3  -2   6  100.29    2.95
   2   2  -6    0.63    0.12
  -2  -2   6    0.69    0.14
   1   2  -6  275.86    7.62
  -1  -2   6  266.09    7.63
   0   2  -6   57.15    1.70
   0  -2   6   55.35    1.70
  -1   2  -6  175.73    4.92
   1  -2   6  171.25    4.93
  -2   2  -6    0.26    0.09
  -2   2  -6    0.27    0.08
   2  -2   6    0.25    0.09
  -3   2  -6  196.96    5.79
  -3   2  -6  210.84    5.81
   3  -2   6  205.31    5.79
  -4   2  -6    4.40    0.28
   4  -2   6    4.92    0.28
   4  -2   6    5.32    0.29
  -5   2  -6   74.07    2.28
   5  -2   6   76.96    2.14
   5  -2   6   74.52    2.26
  -6   2  -6    4.05    0.31
   6  -2   6    4.48    0.30
  -7   2  -6   90.38    2.81
   7  -2   6   92.39    2.62
  -8   2  -6    0.27    0.14
   8  -2   6    0.25    0.14
  -9   2  -6   28.29    1.15
   9  -2   6   30.47    1.11
  -9  -1   6    0.56    0.20
  -8  -1   6   60.86    2.04
   7   1  -6    0.27    0.13
  -7  -1   6    0.07    0.11
   6   1  -6   64.40    1.96
  -6  -1   6   58.49    1.96
   5   1  -6    5.49    0.33
  -5  -1   6    4.93    0.33
   4   1  -6  190.02    5.39
  -4  -1   6  187.45    5.41
   3   1  -6   10.46    0.44
  -3  -1   6   10.38    0.46
   2   1  -6  397.21   11.31
  -2  -1   6  412.75   11.33
   1   1  -6    0.47    0.10
  -1  -1   6    0.32    0.10
   0   1  -6  251.04    6.98
   0  -1   6  245.37    6.99
  -1   1  -6   31.79    1.00
   1  -1   6   29.53    0.99
  -2   1  -6  314.47    8.88
  -2   1  -6  319.42    8.16
   2  -1   6  315.48    8.88
  -3   1  -6    0.25    0.10
   3  -1   6    0.17    0.09
  -4   1  -6  277.06    7.82
   4  -1   6  274.57    7.19
   4  -1   6  277.48    7.81
  -5   1  -6    7.99    0.42
   5  -1   6    7.75    0.37
   5  -1   6    7.37    0.39
  -6   1  -6   67.11    2.13
   6  -1   6   68.73    2.11
   6  -1   6   66.18    1.95
  -7   1  -6    0.09    0.12
   7  -1   6    0.20    0.12
  -8   1  -6   70.27    2.25
   8  -1   6   66.63    2.05
  -9   1  -6   -0.24    0.12
   9  -1   6   -0.07    0.12
  -9   0   6   40.35    1.48
  -8   0   6    0.83    0.20
  -7   0   6   65.79    2.10
   6   0  -6    8.70    0.44
  -6   0   6    9.20    0.47
   5   0  -6  148.66    4.26
  -5   0   6  141.78    4.29
  -5   0   6  151.30    3.83
   4   0  -6    0.98    0.14
  -4   0   6    0.99    0.16
   3   0  -6  242.70    6.74
  -3   0   6  234.46    6.75
   2   0  -6   -0.02    0.06
  -2   0   6    0.07    0.07
   1   0  -6  315.99    8.65
  -1   0   6  301.23    8.65
   0   0  -6    0.92    0.13
   0   0   6    0.90    0.13
  -1   0  -6  318.59    8.91
   1   0   6  317.14    8.92
  -2   0  -6    3.73    0.25
  -2   0  -6    4.47    0.21
   2   0   6    4.43    0.27
  -3   0  -6  238.28    6.73
   3   0   6  236.20    6.73
  -4   0  -6    7.99    0.41
   4   0   6    8.47    0.42
  -5   0  -6  108.67    3.31
   5   0   6  114.31    3.01
   5   0   6  109.60    3.30
  -6   0  -6    0.39    0.14
   6   0   6    0.34    0.13
   6   0   6    0.44    0.12
  -7   0  -6   65.18    2.17
   7   0   6   68.25    1.96
  -8   0  -6    0.12    0.14
   8   0   6    0.08    0.12
  -9   0  -6   39.00    1.49
   9   0   6   39.02    1.32
  -9   1   6    0.12    0.14
  -8   1   6   63.73    2.08
  -7   1   6   -0.08    0.09
  -6   1   6   66.62    2.09
   5  -1  -6    1.44    0.17
  -5   1   6    1.50    0.10
  -5   1   6    1.00    0.16
   4  -1  -6  182.90    5.39
  -4   1   6  204.52    5.52
  -4   1   6  183.03    5.43
   3  -1  -6    2.05    0.17
  -3   1   6    1.99    0.20
  -3   1   6    2.13    0.15
  -3   1   6    2.29    0.23
   2  -1  -6  174.29    4.91
  -2   1   6  171.56    4.93
   1  -1  -6    5.96    0.29
  -1   1   6    5.78    0.30
   0  -1  -6  298.55    8.49
   0   1   6  307.66    8.52
  -1  -1  -6   29.71    0.97
   1   1   6   28.81    0.98
  -2  -1  -6  123.19    3.21
  -2  -1  -6  119.33    3.55
   2   1   6  124.28    3.57
  -3  -1  -6    3.48    0.26
   3   1   6    3.74    0.27
  -4  -1  -6  152.48    4.45
   4   1   6  152.94    4.46
  -5  -1  -6    5.54    0.37
   5   1   6    5.05    0.36
  -6  -1  -6   82.29    2.64
   6   1   6   87.53    2.66
   6   1   6   84.19    2.35
  -7  -1  -6    0.78    0.20
   7   1   6    0.16    0.13
   7   1   6    0.55    0.14
  -8  -1  -6   30.94    1.24
   8   1   6   31.55    1.07
  -9   2   6   29.13    1.13
  -8   2   6   -0.10    0.10
  -7   2   6   54.73    1.78
  -6   2   6    1.42    0.20
  -5   2   6  137.59    4.01
   4  -2  -6    2.92    0.20
  -4   2   6    3.03    0.23
  -4   2   6    2.76    0.23
  -4   2   6    3.02    0.18
   3  -2  -6  144.84    4.19
  -3   2   6  143.58    4.22
  -3   2   6  144.76    3.91
  -3   2   6  154.31    4.23
   2  -2  -6    0.45    0.09
  -2   2   6    0.43    0.11
  -2   2   6    0.28    0.09
   1  -2  -6  203.10    6.06
  -1   2   6  206.42    6.09
  -1   2   6  235.69    6.16
   0  -2  -6    2.94    0.21
   0   2   6    2.93    0.22
  -1  -2  -6  262.87    7.51
   1   2   6  269.60    7.54
  -2  -2  -6    3.17    0.25
  -2  -2  -6    3.45    0.17
   2   2   6    3.76    0.27
  -3  -2  -6  116.79    3.44
   3   2   6  116.55    3.47
  -4  -2  -6    1.20    0.20
   4   2   6    0.92    0.19
  -5  -2  -6  120.83    3.66
   5   2   6  122.93    3.68
  -6  -2  -6    1.54    0.26
   6   2   6    1.94    0.29
  -7  -2  -6   46.44    1.63
   7   2   6   43.88    1.36
  -8  -2  -6    2.18    0.33
  -8   3   6   36.33    1.27
  -7   3   6    2.54    0.27
  -6   3   6   77.77    2.37
  -5   3   6    0.32    0.11
  -4   3   6   99.04    2.92
   3  -3  -6    9.22    0.38
  -3   3   6    9.43    0.43
  -3   3   6    9.72    0.43
   2  -3  -6  123.49    3.60
  -2   3   6  124.32    3.65
  -2   3   6  129.81    3.65
   1  -3  -6    2.44    0.19
  -1   3   6    2.69    0.22
  -1   3   6    2.94    0.21
   0  -3  -6  271.54    7.62
   0   3   6  269.62    7.66
  -1  -3  -6    2.65    0.22
   1   3   6    3.13    0.26
  -2  -3  -6   94.21    2.85
   2   3   6   96.81    2.89
  -3  -3  -6    6.59    0.38
   3   3   6    5.92    0.39
  -4  -3  -6   93.74    2.85
   4   3   6   92.49    2.87
  -5  -3  -6   -0.18    0.11
   5   3   6    0.18    0.14
  -6  -3  -6   67.30    2.24
   6   3   6   68.91    2.26
  -7  -3  -6    1.32    0.26
   7   3   6    1.54    0.28
  -8   4   6    0.78    0.17
  -7   4   6   34.02    1.18
  -6   4   6    0.19    0.10
  -5   4   6   58.18    1.81
  -4   4   6    1.91    0.20
  -3   4   6   87.39    2.60
  -2   4   6    5.70    0.32
   1  -4  -6   75.35    2.21
  -1   4   6   73.87    2.26
   0  -4  -6    0.85    0.14
   0   4   6    0.85    0.16
  -1  -4  -6   86.23    2.55
  -1  -4  -6   85.35    2.21
   1   4   6   84.01    2.59
  -2  -4  -6    1.02    0.17
   2   4   6    1.13    0.21
  -3  -4  -6   66.05    2.05
   3   4   6   63.02    2.08
  -4  -4  -6    1.45    0.23
   4   4   6    2.17    0.30
  -5  -4  -6   45.92    1.63
   5   4   6   48.41    1.68
  -6  -4  -6   -0.08    0.11
   6   4   6    0.04    0.16
  -7  -4  -6   28.46    1.19
   7   4   6   27.90    1.20
  -7   5   6    0.07    0.10
  -6   5   6   38.65    1.28
  -5   5   6    1.56    0.19
  -4   5   6   55.97    1.74
  -3   5   6    2.51    0.22
  -2   5   6   69.25    2.12
  -1   5   6    1.59    0.20
   0   5   6   58.01    1.85
   1   5   6    0.08    0.11
   2   5   6   82.88    2.60
   3   5   6    0.41    0.17
   4   5   6   39.07    1.44
   5   5   6    0.61    0.22
   6   5   6   33.93    1.37
  -6   6   6    0.17    0.11
  -5   6   6   37.65    1.25
  -4   6   6    0.02    0.09
  -3   6   6   80.39    2.43
  -2   6   6    0.67    0.15
  -1   6   6   73.58    2.28
   0   6   6    1.63    0.24
   1   6   6   69.96    2.23
   2   6   6    2.51    0.30
   3   6   6   69.38    2.29
   4   6   6    1.01    0.24
   5   6   6   33.68    1.37
  -4   7   6   46.59    1.50
  -3   7   6    0.10    0.11
  -2   7   6   49.54    1.62
  -1   7   6    0.02    0.11
   0   7   6   48.34    1.63
   1   7   6    0.61    0.18
   2   7   6   45.94    1.64
   3   7   6    0.08    0.16
   0  10  -7    0.00    0.11
   0 -10   7    0.19    0.16
  -1  10  -7    1.07    0.19
   1 -10   7    0.93    0.23
   3   9  -7   -0.04    0.13
  -3  -9   7   -0.08    0.11
   2   9  -7    2.24    0.31
  -2  -9   7    1.81    0.27
   1   9  -7    0.05    0.12
  -1  -9   7    0.10    0.13
   0   9  -7    0.18    0.13
  -1   9  -7    0.04    0.09
  -2   9  -7    0.60    0.14
  -3   9  -7    0.17    0.09
  -4   9  -7   -0.01    0.07
   5   8  -7    0.43    0.20
  -5  -8   7    0.62    0.17
   4   8  -7    0.15    0.14
  -4  -8   7    0.19    0.13
   3   8  -7    1.94    0.29
  -3  -8   7    1.73    0.25
   2   8  -7    1.48    0.23
   1   8  -7    0.60    0.16
   0   8  -7   -0.04    0.09
  -1   8  -7    0.86    0.16
  -2   8  -7    0.08    0.08
  -3   8  -7    0.83    0.14
  -4   8  -7    0.03    0.07
  -5   8  -7    0.21    0.08
  -6   8  -7    0.06    0.07
   6   7  -7    1.16    0.26
   5   7  -7    1.35    0.26
  -5  -7   7    1.13    0.18
   4   7  -7    1.29    0.26
  -4  -7   7    0.67    0.16
   3   7  -7    1.75    0.25
   2   7  -7    2.16    0.27
   1   7  -7    0.90    0.17
   0   7  -7    1.46    0.20
  -1   7  -7    0.01    0.08
  -2   7  -7    0.29    0.10
  -3   7  -7    0.35    0.10
  -4   7  -7    0.33    0.10
  -5   7  -7    0.30    0.10
  -6   7  -7    0.12    0.08
  -7   7  -7    0.09    0.08
   7  -7   7    0.11    0.15
   7   6  -7    1.01    0.25
  -7  -6   7    1.56    0.28
   6   6  -7    0.25    0.17
  -6  -6   7    0.60    0.13
  -6  -6   7    0.24    0.18
   5   6  -7    2.40    0.33
  -5  -6   7    1.84    0.20
  -5  -6   7    2.08    0.30
   4   6  -7    0.28    0.14
  -4  -6   7    0.40    0.15
   3   6  -7    5.15    0.37
  -3  -6   7    5.37    0.36
   2   6  -7    0.18    0.12
  -2  -6   7    0.17    0.10
   1   6  -7    0.67    0.14
  -1  -6   7    0.37    0.11
   0   6  -7    0.02    0.08
   0  -6   7    0.01    0.07
  -1   6  -7    0.40    0.11
  -2   6  -7    0.13    0.08
  -3   6  -7    0.01    0.08
  -4   6  -7   -0.09    0.06
  -5   6  -7    0.07    0.08
  -6   6  -7    0.21    0.10
   6  -6   7    0.24    0.13
  -7   6  -7    0.26    0.11
   7  -6   7    0.44    0.19
   8   5  -7    1.84    0.33
  -8  -5   7    1.91    0.34
   7   5  -7    0.03    0.14
  -7  -5   7    0.16    0.15
   6   5  -7    5.47    0.43
  -6  -5   7    5.18    0.28
  -6  -5   7    5.87    0.45
   5   5  -7    0.97    0.21
  -5  -5   7    1.17    0.23
  -5  -5   7    0.98    0.14
   4   5  -7    2.13    0.27
  -4  -5   7    2.54    0.28
   3   5  -7   -0.02    0.09
  -3  -5   7    0.10    0.11
   2   5  -7    1.43    0.20
  -2  -5   7    2.35    0.25
   1   5  -7    0.67    0.14
  -1  -5   7    0.86    0.15
   0   5  -7    1.11    0.16
   0   5  -7    1.55    0.19
   0  -5   7    1.60    0.18
  -1   5  -7    0.80    0.13
  -1   5  -7    1.02    0.15
   1  -5   7    0.87    0.13
  -2   5  -7    0.25    0.10
  -2   5  -7    0.30    0.09
   2  -5   7    0.42    0.09
  -3   5  -7    0.19    0.09
  -3   5  -7    0.31    0.09
  -4   5  -7   -0.14    0.06
  -5   5  -7    1.44    0.18
   5  -5   7    1.47    0.21
  -6   5  -7    0.28    0.11
   6  -5   7    0.10    0.12
  -7   5  -7    0.36    0.13
   7  -5   7    0.45    0.16
  -8   5  -7    0.01    0.10
   8  -5   7    0.05    0.14
   8   4  -7    0.42    0.19
  -8  -4   7    0.82    0.24
   7   4  -7    1.07    0.24
  -7  -4   7    1.12    0.25
   6   4  -7    2.09    0.29
  -6  -4   7    1.78    0.15
  -6  -4   7    2.10    0.30
   5   4  -7    2.39    0.29
  -5  -4   7    1.99    0.26
   4   4  -7    2.60    0.28
  -4  -4   7    2.81    0.30
   3   4  -7    0.77    0.16
  -3  -4   7    0.89    0.18
   2   4  -7    0.17    0.10
  -2  -4   7    0.20    0.11
   1   4  -7    1.75    0.19
  -1  -4   7    2.45    0.21
   0   4  -7    5.80    0.31
   0  -4   7    5.87    0.31
  -1   4  -7    1.30    0.16
  -1   4  -7    1.60    0.18
   1  -4   7    1.37    0.15
  -2   4  -7    0.01    0.07
  -2   4  -7    0.18    0.09
   2  -4   7    0.11    0.07
  -3   4  -7    0.00    0.07
  -3   4  -7   -0.02    0.07
   3  -4   7    0.06    0.07
  -4   4  -7    0.87    0.14
   4  -4   7    0.74    0.12
  -5   4  -7    0.25    0.11
   5  -4   7    0.30    0.12
  -6   4  -7    0.13    0.10
   6  -4   7    0.25    0.13
  -7   4  -7   -0.02    0.09
   7  -4   7   -0.05    0.10
  -8   4  -7    0.72    0.17
   8  -4   7    0.92    0.22
  -8  -3   7    0.43    0.20
   7   3  -7    0.87    0.21
  -7  -3   7    0.92    0.22
   6   3  -7    1.68    0.24
  -6  -3   7    1.79    0.27
  -6  -3   7    2.01    0.12
   5   3  -7    0.62    0.15
  -5  -3   7    0.43    0.15
   4   3  -7    1.54    0.21
  -4  -3   7    1.50    0.22
   3   3  -7    0.06    0.09
  -3  -3   7   -0.13    0.08
   2   3  -7    0.09    0.09
  -2  -3   7   -0.04    0.07
   1   3  -7    2.08    0.21
  -1  -3   7    1.92    0.20
   0   3  -7    1.11    0.15
   0  -3   7    1.11    0.15
  -1   3  -7    1.31    0.16
   1  -3   7    1.02    0.14
  -2   3  -7    0.08    0.08
  -2   3  -7   -0.04    0.06
   2  -3   7    0.01    0.07
  -3   3  -7   -0.02    0.07
  -3   3  -7    0.00    0.06
   3  -3   7   -0.02    0.06
  -4   3  -7    0.01    0.08
  -4   3  -7    0.07    0.08
   4  -3   7    0.17    0.09
  -5   3  -7    0.16    0.10
   5  -3   7    0.05    0.10
  -6   3  -7    0.07    0.10
   6  -3   7    0.01    0.10
  -7   3  -7    0.06    0.10
   7  -3   7    0.24    0.14
  -8   3  -7    0.52    0.17
   8  -3   7    0.17    0.16
  -9  -2   7    1.48    0.29
  -8  -2   7    0.16    0.16
   7   2  -7    3.77    0.33
  -7  -2   7    2.88    0.34
   6   2  -7    0.32    0.13
  -6  -2   7    0.32    0.15
   5   2  -7    1.00    0.18
  -5  -2   7    0.93    0.19
   4   2  -7    0.60    0.14
  -4  -2   7    0.61    0.15
   3   2  -7    7.08    0.37
  -3  -2   7    7.25    0.39
   2   2  -7    0.71    0.13
  -2  -2   7    0.65    0.13
   1   2  -7    0.21    0.09
  -1  -2   7    0.13    0.08
   0   2  -7    0.07    0.08
   0  -2   7    0.06    0.08
  -1   2  -7    0.15    0.08
   1  -2   7    0.23    0.09
  -2   2  -7    0.01    0.07
   2  -2   7    0.08    0.08
  -3   2  -7    0.08    0.08
   3  -2   7    0.09    0.08
  -4   2  -7    0.01    0.08
   4  -2   7    0.04    0.08
  -5   2  -7   -0.07    0.07
   5  -2   7   -0.01    0.09
   5  -2   7   -0.05    0.08
  -6   2  -7    0.63    0.15
   6  -2   7    0.71    0.16
  -7   2  -7    1.34    0.23
   7  -2   7    1.46    0.22
  -8   2  -7    0.08    0.14
   8  -2   7    0.03    0.13
  -9  -1   7    0.11    0.16
  -8  -1   7    1.63    0.28
  -7  -1   7    0.17    0.12
   6   1  -7    2.15    0.25
  -6  -1   7    2.47    0.29
   5   1  -7    1.07    0.17
  -5  -1   7    1.03    0.18
  -4  -1   7    6.78    0.39
   3   1  -7    0.09    0.08
  -3  -1   7   -0.05    0.09
   2   1  -7    1.15    0.16
  -2  -1   7    1.42    0.18
   1   1  -7    0.35    0.10
  -1  -1   7    0.29    0.10
   0   1  -7    1.09    0.15
   0  -1   7    1.17    0.16
  -1   1  -7    1.68    0.18
   1  -1   7    1.47    0.17
  -2   1  -7    1.05    0.16
   2  -1   7    1.15    0.16
  -3   1  -7    1.07    0.16
   3  -1   7    1.39    0.19
  -4   1  -7    0.71    0.15
   4  -1   7    0.89    0.15
  -5   1  -7    0.24    0.12
   5  -1   7    0.16    0.10
  -6   1  -7    0.54    0.16
   6  -1   7    0.51    0.15
   6  -1   7    0.34    0.12
  -7   1  -7    1.21    0.22
   7  -1   7    1.46    0.22
  -8   1  -7    0.90    0.21
   8  -1   7    0.71    0.19
  -9   0   7    0.61    0.21
  -8   0   7    0.68    0.19
  -7   0   7    1.21    0.22
   6   0  -7    0.41    0.13
  -6   0   7    0.37    0.15
   5   0  -7    1.10    0.16
  -5   0   7    1.43    0.10
  -5   0   7    1.25    0.19
   4   0  -7    1.32    0.17
  -4   0   7    1.50    0.20
   3   0  -7    0.36    0.10
  -3   0   7    0.13    0.10
   2   0  -7    0.31    0.10
  -2   0   7    0.35    0.12
   1   0  -7    0.03    0.07
  -1   0   7    0.14    0.09
   0   0  -7    0.53    0.11
   0   0   7    0.44    0.11
  -1   0  -7    0.05    0.08
   1   0   7   -0.06    0.07
  -2   0  -7    2.87    0.23
  -2   0  -7    2.78    0.18
   2   0   7    2.69    0.23
  -3   0  -7    7.10    0.39
   3   0   7    7.43    0.39
  -4   0  -7    1.84    0.22
   4   0   7    1.88    0.23
  -5   0  -7    0.04    0.10
   5   0   7   -0.02    0.08
  -6   0  -7    1.61    0.25
   6   0   7    1.60    0.25
   6   0   7    1.69    0.21
  -7   0  -7    2.01    0.29
   7   0   7    1.44    0.20
  -8   0  -7    1.67    0.28
   8   0   7    1.97    0.26
  -8   1   7    1.39    0.25
  -7   1   7    0.63    0.17
  -6   1   7    0.39    0.14
   5  -1  -7    0.15    0.09
  -5   1   7    0.22    0.11
   4  -1  -7    0.29    0.10
  -4   1   7    0.32    0.08
  -4   1   7    0.35    0.13
   3  -1  -7    0.73    0.13
  -3   1   7    0.67    0.14
   2  -1  -7    0.89    0.14
  -2   1   7    0.58    0.13
   1  -1  -7    0.14    0.08
  -1   1   7    0.27    0.10
   0  -1  -7    6.25    0.32
   0   1   7    6.87    0.36
  -1  -1  -7    7.53    0.38
   1   1   7    7.58    0.38
  -2  -1  -7    1.79    0.14
  -2  -1  -7    1.57    0.19
   2   1   7    1.49    0.19
  -3  -1  -7    0.50    0.14
   3   1   7    0.43    0.14
  -4  -1  -7    1.33    0.20
   4   1   7    1.39    0.22
  -5  -1  -7    1.99    0.26
   5   1   7    2.25    0.28
  -6  -1  -7    2.28    0.29
   6   1   7    2.02    0.28
  -7  -1  -7    0.33    0.17
   7   1   7    0.18    0.14
  -8  -1  -7    0.50    0.21
   8   1   7    0.99    0.19
  -8   2   7    0.01    0.12
  -7   2   7    2.05    0.27
  -6   2   7    0.52    0.15
  -5   2   7    0.72    0.15
   4  -2  -7    0.01    0.06
  -4   2   7    0.01    0.06
  -4   2   7    0.08    0.10
   3  -2  -7    4.66    0.27
  -3   2   7    5.20    0.34
  -3   2   7    4.42    0.30
   2  -2  -7   -0.04    0.07
  -2   2   7    0.07    0.09
   1  -2  -7    0.06    0.07
  -1   2   7   -0.01    0.08
   0  -2  -7    0.88    0.14
   0   2   7    1.22    0.18
  -1  -2  -7    0.07    0.09
   1   2   7    0.18    0.11
  -2  -2  -7    0.06    0.05
  -2  -2  -7   -0.01    0.08
   2   2   7    0.09    0.11
  -3  -2  -7    0.10    0.11
   3   2   7    0.02    0.11
  -4  -2  -7   -0.06    0.09
   4   2   7    0.21    0.13
  -5  -2  -7    1.41    0.23
   5   2   7    1.34    0.23
  -6  -2  -7    1.85    0.29
   6   2   7    1.33    0.25
  -7  -2  -7    0.38    0.19
   7   2   7    0.63    0.21
  -8  -2  -7   -0.13    0.14
  -8   3   7    0.60    0.17
  -7   3   7    0.05    0.11
  -6   3   7    1.93    0.24
  -5   3   7    0.23    0.12
  -4   3   7    0.32    0.12
  -3   3   7    0.68    0.15
   2  -3  -7    3.34    0.22
  -2   3   7    2.81    0.24
   1  -3  -7    0.04    0.07
  -1   3   7   -0.08    0.08
   0  -3  -7    0.04    0.07
   0   3   7   -0.09    0.09
  -1  -3  -7    0.77    0.15
   1   3   7    0.88    0.17
  -2  -3  -7    1.71    0.21
  -2  -3  -7    1.63    0.11
   2   3   7    1.30    0.21
  -3  -3  -7    0.11    0.12
   3   3   7    0.06    0.12
  -4  -3  -7    0.63    0.17
   4   3   7    1.00    0.22
  -5  -3  -7    1.07    0.23
   5   3   7    1.38    0.27
  -6  -3  -7    0.15    0.15
   6   3   7    0.31    0.19
  -7  -3  -7   -0.03    0.14
   7   3   7   -0.07    0.15
  -7   4   7    0.22    0.13
  -6   4   7    0.13    0.11
  -5   4   7   -0.02    0.09
  -4   4   7    0.02    0.09
  -3   4   7    0.09    0.10
  -2   4   7    0.03    0.09
  -1   4   7    0.20    0.11
   0  -4  -7    0.39    0.12
   0   4   7    0.23    0.13
  -1  -4  -7    0.39    0.12
   1   4   7    0.43    0.15
  -2  -4  -7    0.75    0.16
   2   4   7    0.65    0.18
  -3  -4  -7    0.79    0.18
   3   4   7    0.86    0.21
  -4  -4  -7    0.90    0.21
   4   4   7    1.02    0.23
  -5  -4  -7    1.13    0.23
   5   4   7    1.05    0.24
  -6  -4  -7    0.99    0.24
   6   4   7    0.34    0.19
  -6   5   7    0.31    0.13
  -5   5   7   -0.09    0.09
  -4   5   7    0.05    0.10
  -3   5   7    0.38    0.13
  -2   5   7   -0.01    0.09
  -1   5   7    0.47    0.14
   0   5   7    0.53    0.16
   1   5   7    1.37    0.24
   2   5   7    1.96    0.29
   3   5   7    1.06    0.24
   4   5   7    1.82    0.30
   5   5   7    0.03    0.17
  -5   6   7    0.44    0.14
  -4   6   7    0.11    0.11
  -3   6   7    0.04    0.10
  -2   6   7    1.40    0.21
  -1   6   7    0.01    0.10
   0   6   7    0.00    0.12
   1   6   7    0.19    0.15
   2   6   7    2.08    0.30
   3   6   7    1.99    0.32
   4   6   7    0.16    0.18
  -3   7   7    0.29    0.13
  -2   7   7    0.06    0.12
  -1   7   7    0.06    0.12
   0   7   7    0.27    0.15
   1   7   7    0.14    0.14
   2   7   7    0.94    0.24
   3   9  -8   22.50    1.00
  -3  -9   8   23.95    0.96
   2   9  -8    1.46    0.26
  -2  -9   8    0.96    0.21
   1   9  -8   44.83    1.55
   0   9  -8    0.28    0.13
  -1   9  -8   48.32    1.60
  -2   9  -8    0.66    0.15
  -3   9  -8   41.15    1.35
  -4   9  -8    0.88    0.15
   5   8  -8    0.64    0.22
  -5  -8   8    0.86    0.19
   4   8  -8   32.17    1.29
  -4  -8   8   34.55    1.19
   3   8  -8    0.60    0.20
  -3  -8   8    0.86    0.18
   2   8  -8   63.20    2.07
   1   8  -8    0.25    0.14
   0   8  -8   56.85    1.83
  -1   8  -8    0.63    0.15
  -2   8  -8   50.13    1.61
  -3   8  -8    0.23    0.10
  -4   8  -8   54.54    1.70
  -5   8  -8    0.83    0.15
   6   7  -8    1.43    0.30
   5   7  -8   34.44    1.32
  -5  -7   8   33.36    1.14
   4   7  -8    0.07    0.15
  -4  -7   8   -0.07    0.09
   3   7  -8   83.44    2.64
   2   7  -8    2.76    0.31
   1   7  -8   58.29    1.88
   0   7  -8   -0.01    0.08
  -1   7  -8   66.00    2.05
  -2   7  -8    0.72    0.14
  -3   7  -8   86.05    2.58
  -4   7  -8    4.43    0.28
  -5   7  -8   37.73    1.24
  -6   7  -8    0.18    0.09
   7   6  -8    0.15    0.18
  -7  -6   8    0.14    0.17
   6   6  -8   35.85    1.38
  -6  -6   8   34.98    1.36
   5   6  -8    0.09    0.15
  -5  -6   8    0.06    0.13
  -5  -6   8    0.18    0.10
   4   6  -8   85.99    2.65
  -4  -6   8   81.00    2.63
   3   6  -8    8.19    0.48
  -3  -6   8    7.97    0.46
   2   6  -8   91.44    2.86
  -2  -6   8   95.58    2.85
   1   6  -8    1.79    0.22
  -1  -6   8    2.01    0.23
   0   6  -8  114.94    3.41
  -1   6  -8    6.61    0.36
  -2   6  -8  121.81    3.56
  -3   6  -8    0.20    0.10
  -4   6  -8   64.38    1.98
  -5   6  -8    1.23    0.17
  -6   6  -8   59.25    1.87
  -7   6  -8    0.43    0.14
   7   5  -8   34.70    1.37
  -7  -5   8   36.21    1.40
   6   5  -8    0.22    0.16
  -6  -5   8    0.29    0.17
   5   5  -8   81.79    2.60
  -5  -5   8   81.62    2.61
   4   5  -8    0.83    0.18
  -4  -5   8    0.58    0.17
   3   5  -8   95.61    2.94
  -3  -5   8   97.67    2.94
   2   5  -8    2.95    0.26
  -2  -5   8    2.67    0.28
   1   5  -8  141.13    4.20
  -1  -5   8  146.68    4.20
   0   5  -8    2.41    0.24
   0  -5   8    2.38    0.24
  -1   5  -8  141.31    4.18
  -1   5  -8  152.82    4.25
   1  -5   8  139.41    4.16
  -2   5  -8    1.59    0.19
   2  -5   8    1.65    0.18
  -3   5  -8   93.52    2.78
  -4   5  -8    2.25    0.22
  -5   5  -8   91.34    2.75
  -6   5  -8    1.25    0.19
  -7   5  -8   38.30    1.35
   7  -5   8   41.17    1.39
  -8   5  -8    0.97    0.19
   8  -5   8    1.06    0.23
  -8  -4   8   27.76    1.19
   7   4  -8    0.31    0.17
  -7  -4   8    0.14    0.16
   6   4  -8   66.53    2.18
  -6  -4   8   66.27    2.20
   5   4  -8    2.32    0.28
  -5  -4   8    1.96    0.26
   4   4  -8   73.27    2.35
  -4  -4   8   76.73    2.37
   3   4  -8    3.02    0.31
  -3  -4   8    3.53    0.29
   2   4  -8   66.69    2.12
  -2  -4   8   70.64    2.14
   1   4  -8    0.07    0.09
  -1  -4   8    0.15    0.10
   0   4  -8  191.38    5.56
   0  -4   8  197.45    5.56
  -1   4  -8    1.53    0.18
   1  -4   8    2.14    0.22
  -2   4  -8   62.86    1.84
  -2   4  -8   56.73    1.82
   2  -4   8   57.83    1.81
  -3   4  -8    7.14    0.36
   3  -4   8    6.70    0.34
  -4   4  -8   78.66    2.39
  -5   4  -8    4.90    0.32
  -6   4  -8   60.64    1.93
  -7   4  -8    1.53    0.23
   7  -4   8    1.15    0.22
  -8   4  -8   20.91    0.87
   8  -4   8   19.73    0.86
  -8  -3   8    1.83    0.32
   7   3  -8   39.78    1.44
  -7  -3   8   38.93    1.46
   6   3  -8    0.05    0.11
  -6  -3   8    0.30    0.15
   5   3  -8   65.19    2.06
  -5  -3   8   62.05    2.06
   4   3  -8    0.00    0.10
  -4  -3   8   -0.06    0.10
   3   3  -8   86.41    2.68
  -3  -3   8   90.75    2.70
   2   3  -8    2.97    0.26
  -2  -3   8    3.55    0.27
   1   3  -8  112.95    3.37
  -1  -3   8  116.29    3.38
   0   3  -8    2.01    0.21
   0  -3   8    1.55    0.19
  -1   3  -8  119.30    3.51
   1  -3   8  121.58    3.52
  -2   3  -8    0.95    0.15
   2  -3   8    0.97    0.15
  -3   3  -8   61.93    1.98
   3  -3   8   67.24    1.99
  -4   3  -8    0.02    0.09
   4  -3   8    0.04    0.08
  -5   3  -8   91.95    2.79
  -6   3  -8    1.31    0.22
  -7   3  -8   36.45    1.33
   7  -3   8   38.65    1.29
  -8   3  -8    0.00    0.11
   8  -3   8   -0.02    0.13
  -8  -2   8   24.29    1.05
  -7  -2   8    0.05    0.13
   6   2  -8   75.32    2.34
  -6  -2   8   72.21    2.36
   5   2  -8    0.24    0.12
  -5  -2   8    0.44    0.15
   4   2  -8  121.12    3.55
  -4  -2   8  117.98    3.56
   3   2  -8    0.58    0.14
  -3  -2   8    0.63    0.15
   2   2  -8  152.18    4.31
  -2  -2   8  144.79    4.31
   1   2  -8    0.08    0.09
  -1  -2   8    0.04    0.09
   0   2  -8  120.72    3.62
   0  -2   8  128.17    3.64
  -1   2  -8    4.67    0.29
   1  -2   8    5.08    0.31
  -2   2  -8  271.16    7.57
   2  -2   8  263.32    7.57
  -3   2  -8    0.10    0.10
   3  -2   8    0.04    0.09
  -4   2  -8   77.44    2.45
   4  -2   8   83.58    2.46
  -5   2  -8   -0.01    0.09
   5  -2   8   -0.14    0.07
  -6   2  -8   75.26    2.38
  -7   2  -8    1.07    0.22
   7  -2   8    1.71    0.25
  -8   2  -8   41.83    1.52
   8  -2   8   42.15    1.42
  -8  -1   8    0.43    0.18
  -7  -1   8   66.35    2.19
   6   1  -8    0.02    0.10
  -6  -1   8   -0.01    0.11
   5   1  -8   94.77    2.81
  -5  -1   8   90.11    2.83
   4   1  -8    0.03    0.09
  -4  -1   8    0.05    0.10
   3   1  -8  149.27    4.27
  -3  -1   8  144.22    4.28
   2   1  -8    5.35    0.31
  -2  -1   8    5.04    0.32
   1   1  -8  240.68    6.71
  -1  -1   8  232.24    6.72
   0   1  -8   17.10    0.66
   0  -1   8   17.56    0.67
  -1   1  -8  142.17    4.29
   1  -1   8  155.24    4.32
  -2   1  -8   15.45    0.63
   2  -1   8   15.91    0.64
  -3   1  -8  218.49    6.29
   3  -1   8  220.88    6.29
  -4   1  -8    0.31    0.13
   4  -1   8    0.30    0.12
  -5   1  -8   50.52    1.69
   5  -1   8   51.86    1.68
  -6   1  -8    0.03    0.12
  -7   1  -8   86.75    2.75
  -8   1  -8    1.69    0.29
   8  -1   8    1.37    0.23
  -8   0   8   53.90    1.85
  -7   0   8    1.05    0.23
  -6   0   8   43.79    1.50
   5   0  -8    0.44    0.13
  -5   0   8    0.50    0.14
   4   0  -8  143.55    4.11
  -4   0   8  137.76    4.13
   3   0  -8    3.30    0.26
  -3   0   8    3.16    0.27
   2   0  -8  187.80    5.28
  -2   0   8  180.38    5.29
   1   0  -8    0.73    0.13
  -1   0   8    0.59    0.13
   0   0  -8  103.79    3.05
   0   0   8  102.67    3.06
  -1   0  -8    0.22    0.11
   1   0   8    0.44    0.12
  -2   0  -8  153.53    4.54
   2   0   8  160.03    4.56
  -3   0  -8    7.77    0.42
   3   0   8    7.50    0.42
  -4   0  -8  103.84    3.18
   4   0   8  106.76    3.18
  -5   0  -8    0.42    0.14
   5   0   8    0.60    0.18
  -6   0  -8   39.10    1.41
   6   0   8   39.39    1.40
  -7   0  -8    2.14    0.30
  -8   0  -8   39.70    1.51
  -8   1   8    0.10    0.14
  -7   1   8   48.64    1.66
  -6   1   8    0.55    0.16
  -5   1   8   60.66    1.94
   4  -1  -8    0.73    0.14
  -4   1   8    0.53    0.10
  -4   1   8    0.56    0.15
   3  -1  -8  113.36    3.34
  -3   1   8  114.21    3.37
   2  -1  -8    9.43    0.43
  -2   1   8    9.28    0.46
   1  -1  -8  105.35    3.08
  -1   1   8  104.03    3.11
   0  -1  -8    0.22    0.10
   0   1   8    0.25    0.11
  -1  -1  -8  108.38    3.26
   1   1   8  112.38    3.29
  -2  -1  -8    2.64    0.27
   2   1   8    2.33    0.26
  -3  -1  -8  104.92    3.16
   3   1   8  105.23    3.17
  -4  -1  -8    1.72    0.25
   4   1   8    1.71    0.25
  -5  -1  -8   42.33    1.52
   5   1   8   46.22    1.55
  -6  -1  -8   -0.02    0.11
   6   1   8    0.06    0.14
  -7  -1  -8   38.17    1.44
  -8  -1  -8    0.09    0.16
  -8   2   8   31.24    1.19
  -7   2   8    0.21    0.14
  -6   2   8   41.75    1.43
  -5   2   8   -0.02    0.10
  -4   2   8   56.70    1.81
   3  -2  -8    2.03    0.21
  -3   2   8    1.96    0.23
   2  -2  -8  108.07    3.12
  -2   2   8  104.37    3.16
   1  -2  -8    0.55    0.12
  -1   2   8    0.59    0.14
   0  -2  -8   96.74    2.89
   0   2   8   98.15    2.94
  -1  -2  -8    1.06    0.17
   1   2   8    0.87    0.18
  -2  -2  -8   67.60    2.12
  -2  -2  -8   67.43    1.85
   2   2   8   68.14    2.14
  -3  -2  -8    0.79    0.18
   3   2   8    0.52    0.16
  -4  -2  -8   78.08    2.50
   4   2   8   81.14    2.53
  -5  -2  -8    0.14    0.14
   5   2   8    0.14    0.14
  -6  -2  -8   38.02    1.43
   6   2   8   39.34    1.45
  -7  -2  -8    0.16    0.16
   7   2   8    0.49    0.19
  -7   3   8   25.25    0.98
  -6   3   8   -0.07    0.10
  -5   3   8   74.91    2.33
  -4   3   8    3.59    0.29
  -3   3   8   38.58    1.30
  -2   3   8    2.51    0.27
   1  -3  -8  109.82    3.19
  -1   3   8  106.30    3.23
   0  -3  -8    0.44    0.13
   0   3   8    0.54    0.15
  -1  -3  -8   70.94    2.18
   1   3   8   69.84    2.22
  -2  -3  -8    6.70    0.39
   2   3   8    6.32    0.42
  -3  -3  -8   60.37    1.96
   3   3   8   60.58    2.00
  -4  -3  -8    0.30    0.16
   4   3   8    0.00    0.15
  -5  -3  -8   50.93    1.78
   5   3   8   51.34    1.80
  -6  -3  -8   -0.02    0.14
   6   3   8   -0.12    0.12
  -7   4   8    0.27    0.14
  -6   4   8   40.30    1.39
  -5   4   8    1.66    0.22
  -4   4   8   52.40    1.70
  -3   4   8    0.24    0.12
  -2   4   8   46.32    1.53
  -1   4   8    2.23    0.26
   0   4   8  107.58    3.25
   1   4   8    1.65    0.25
  -2  -4  -8   34.02    1.21
   2   4   8   34.28    1.26
  -3  -4  -8    0.47    0.16
   3   4   8    0.24    0.16
  -4  -4  -8   52.83    1.84
   4   4   8   55.93    1.89
  -5  -4  -8    2.42    0.33
   5   4   8    2.90    0.37
  -6  -4  -8   26.82    1.17
   6   4   8   29.36    1.22
  -6   5   8    1.24    0.20
  -5   5   8   35.15    1.24
  -4   5   8    0.13    0.11
  -3   5   8   53.40    1.74
  -2   5   8    1.23    0.21
  -1   5   8   52.11    1.73
   0   5   8    1.69    0.25
   1   5   8   54.27    1.83
   2   5   8    1.20    0.24
   3   5   8   41.29    1.52
   4   5   8    0.17    0.17
   5   5   8   30.22    1.27
  -4   6   8   32.68    1.17
  -3   6   8    0.06    0.12
  -2   6   8   35.43    1.26
  -1   6   8    0.73    0.19
   0   6   8   37.82    1.36
   1   6   8    0.09    0.15
   2   6   8   37.50    1.42
   3   6   8    0.12    0.18
   2   9  -9    0.56    0.20
   1   9  -9    0.53    0.18
   0   9  -9    0.39    0.15
  -1   9  -9    0.60    0.16
  -2   9  -9    0.68    0.16
  -3   9  -9    0.02    0.09
   4   8  -9    0.81    0.24
  -4  -8   9    0.53    0.16
   3   8  -9    0.99    0.23
   2   8  -9    0.34    0.17
   1   8  -9    1.04    0.21
   0   8  -9   -0.03    0.10
  -1   8  -9    0.75    0.16
  -2   8  -9    0.27    0.12
  -3   8  -9    0.23    0.11
  -4   8  -9    0.23    0.11
  -5   8  -9    0.21    0.10
   5   7  -9    0.25    0.19
  -5  -7   9    0.49    0.14
   4   7  -9    1.40    0.26
   3   7  -9    1.11    0.23
   2   7  -9    1.77    0.26
   1   7  -9   -0.02    0.10
   0   7  -9    0.63    0.16
  -1   7  -9    0.84    0.17
  -2   7  -9    0.17    0.10
  -3   7  -9    0.42    0.13
  -4   7  -9   -0.03    0.09
  -5   7  -9   -0.19    0.08
  -6   7  -9   -0.07    0.09
   6   6  -9    1.08    0.25
  -6  -6   9    1.15    0.27
   5   6  -9    0.79    0.22
  -5  -6   9    0.72    0.20
   4   6  -9    0.29    0.17
  -4  -6   9    0.52    0.17
   3   6  -9    1.77    0.25
  -3  -6   9    1.91    0.27
   2   6  -9    1.95    0.25
  -2  -6   9    2.50    0.28
   1   6  -9    0.30    0.13
  -1  -6   9    0.42    0.14
   0   6  -9    0.11    0.10
  -1   6  -9    0.08    0.10
  -2   6  -9   -0.06    0.09
  -3   6  -9    0.28    0.11
  -4   6  -9    0.09    0.10
  -5   6  -9    0.08    0.10
  -6   6  -9   -0.03    0.09
  -7   6  -9    0.04    0.10
   7   5  -9    1.24    0.28
  -7  -5   9    1.02    0.27
   6   5  -9    0.78    0.22
  -6  -5   9    1.43    0.28
   5   5  -9    0.06    0.13
  -5  -5   9    0.69    0.19
   4   5  -9    0.59    0.18
  -4  -5   9    0.34    0.15
   3   5  -9    3.77    0.32
  -3  -5   9    2.89    0.32
   2   5  -9    3.24    0.29
  -2  -5   9    3.27    0.29
   1   5  -9    0.17    0.11
  -1  -5   9    0.10    0.10
   0   5  -9    0.00    0.09
   0  -5   9   -0.12    0.08
  -1   5  -9    0.14    0.10
   1  -5   9    0.08    0.10
  -2   5  -9    0.37    0.13
  -3   5  -9    0.30    0.11
  -4   5  -9    0.07    0.09
  -5   5  -9    0.02    0.10
  -6   5  -9    0.09    0.11
  -7   5  -9   -0.04    0.10
   7   4  -9    0.67    0.21
  -7  -4   9    0.63    0.22
   6   4  -9    1.11    0.23
  -6  -4   9    0.63    0.21
   5   4  -9    3.12    0.35
  -5  -4   9    2.89    0.34
   4   4  -9   -0.08    0.11
  -4  -4   9    0.02    0.12
   3   4  -9    1.52    0.23
  -3  -4   9    1.77    0.25
   2   4  -9    0.07    0.11
  -2  -4   9   -0.01    0.10
   1   4  -9    1.32    0.20
  -1  -4   9    1.27    0.19
   0   4  -9    0.16    0.10
   0  -4   9    0.10    0.10
  -1   4  -9    0.16    0.10
   1  -4   9    0.05    0.09
  -2   4  -9    0.03    0.10
   2  -4   9    0.21    0.09
  -3   4  -9    1.34    0.18
   3  -4   9    0.95    0.15
  -4   4  -9    0.39    0.13
  -5   4  -9    1.02    0.19
  -6   4  -9    0.08    0.11
  -7   4  -9   -0.13    0.10
  -8  -3   9    0.92    0.26
   7   3  -9    1.27    0.24
  -7  -3   9    1.23    0.26
   6   3  -9    3.76    0.39
  -6  -3   9    3.50    0.39
   5   3  -9    0.07    0.12
  -5  -3   9    0.09    0.14
   4   3  -9    1.41    0.23
  -4  -3   9    1.25    0.22
   3   3  -9    0.38    0.13
  -3  -3   9    0.22    0.12
   2   3  -9    0.70    0.16
  -2  -3   9    0.91    0.17
   1   3  -9    0.47    0.13
  -1  -3   9    0.29    0.12
   0   3  -9    2.87    0.25
   0  -3   9    2.18    0.23
  -1   3  -9    0.07    0.10
   1  -3   9    0.08    0.09
  -2   3  -9    0.19    0.12
   2  -3   9    0.22    0.11
  -3   3  -9    0.18    0.11
   3  -3   9    0.13    0.09
  -4   3  -9    0.20    0.11
   4  -3   9    0.03    0.08
  -5   3  -9    0.70    0.17
  -6   3  -9   -0.14    0.09
  -7   3  -9    0.24    0.14
  -8   3  -9    0.47    0.18
  -8  -2   9    0.40    0.20
  -7  -2   9    1.08    0.24
   6   2  -9    2.01    0.27
  -6  -2   9    2.32    0.32
   5   2  -9    0.48    0.16
  -5  -2   9    0.22    0.13
   4   2  -9    0.42    0.13
  -4  -2   9    0.29    0.14
   3   2  -9    1.00    0.18
  -3  -2   9    1.07    0.19
   2   2  -9    1.74    0.22
  -2  -2   9    1.77    0.23
   1   2  -9    3.40    0.27
  -1  -2   9    3.47    0.28
   0   2  -9   -0.02    0.09
   0  -2   9   -0.10    0.07
  -1   2  -9    1.27    0.19
   1  -2   9    1.11    0.17
  -2   2  -9    0.13    0.10
   2  -2   9    0.20    0.11
  -3   2  -9    0.73    0.16
   3  -2   9    0.58    0.14
  -4   2  -9    0.40    0.13
   4  -2   9    0.37    0.14
  -5   2  -9    0.85    0.18
   5  -2   9    0.77    0.21
  -6   2  -9    0.99    0.20
  -7   2  -9    0.25    0.16
  -8   2  -9    0.20    0.16
  -8  -1   9    0.56    0.20
  -7  -1   9    0.37    0.18
  -6  -1   9    0.42    0.16
   5   1  -9    0.07    0.10
  -5  -1   9   -0.09    0.09
   4   1  -9    2.15    0.25
  -4  -1   9    1.74    0.24
   3   1  -9    0.02    0.10
  -3  -1   9   -0.01    0.10
   2   1  -9    0.32    0.12
  -2  -1   9    0.38    0.13
   1   1  -9    1.15    0.17
  -1  -1   9    0.93    0.17
   0   1  -9   -0.04    0.08
   0  -1   9   -0.07    0.09
  -1   1  -9    0.80    0.15
   1  -1   9    1.31    0.19
  -2   1  -9    0.37    0.13
   2  -1   9    0.74    0.17
  -3   1  -9    2.80    0.29
   3  -1   9    2.26    0.25
  -4   1  -9    0.61    0.17
   4  -1   9    0.70    0.17
  -5   1  -9   -0.10    0.10
   5  -1   9    0.05    0.11
  -6   1  -9    0.93    0.21
  -7   1  -9    1.96    0.30
  -8   1  -9    1.04    0.25
  -8   0   9   -0.05    0.13
  -7   0   9    0.24    0.17
  -6   0   9    0.05    0.12
   5   0  -9    3.50    0.28
  -5   0   9    3.01    0.31
   4   0  -9   -0.12    0.07
  -4   0   9    0.13    0.12
   3   0  -9    0.20    0.11
  -3   0   9    0.13    0.11
   2   0  -9    2.91    0.25
  -2   0   9    3.01    0.27
   1   0  -9    2.39    0.25
  -1   0   9    1.79    0.23
   0   0  -9    0.05    0.09
   0   0   9    0.05    0.10
  -1   0  -9   -0.07    0.09
   1   0   9    0.04    0.10
  -2   0  -9    1.11    0.19
   2   0   9    0.90    0.19
  -3   0  -9    0.66    0.17
   3   0   9    0.83    0.19
  -4   0  -9    0.94    0.19
   4   0   9    0.96    0.20
  -5   0  -9   -0.03    0.12
   5   0   9    0.01    0.11
  -6   0  -9    0.09    0.14
   6   0   9    0.05    0.12
  -7   0  -9    0.60    0.20
  -8   1   9    0.40    0.18
  -7   1   9    0.82    0.21
  -6   1   9    0.35    0.15
  -5   1   9    0.72    0.18
   4  -1  -9    1.62    0.20
  -4   1   9    1.54    0.22
   3  -1  -9    0.12    0.09
  -3   1   9    0.05    0.11
   2  -1  -9    0.71    0.15
  -2   1   9    0.60    0.15
   1  -1  -9    1.34    0.18
  -1   1   9    1.82    0.23
   0  -1  -9    4.27    0.30
   0   1   9    4.06    0.31
  -1  -1  -9    0.14    0.11
   1   1   9   -0.06    0.09
  -2  -1  -9   -0.01    0.10
   2   1   9   -0.02    0.10
  -3  -1  -9    0.50    0.16
   3   1   9    0.59    0.16
  -4  -1  -9    0.65    0.18
   4   1   9    0.31    0.15
  -5  -1  -9    0.14    0.14
   5   1   9   -0.07    0.12
  -6  -1  -9    0.22    0.15
   6   1   9   -0.04    0.13
  -7  -1  -9    0.80    0.23
  -7   2   9    0.30    0.16
  -6   2   9    0.33    0.16
  -5   2   9    0.30    0.13
  -4   2   9    0.51    0.15
  -3   2   9    0.15    0.12
   2  -2  -9    0.66    0.14
  -2   2   9    0.79    0.17
   1  -2  -9    0.60    0.14
  -1   2   9    0.60    0.15
   0  -2  -9    0.16    0.10
   0   2   9    0.11    0.11
  -1  -2  -9    0.10    0.10
   1   2   9   -0.03    0.10
  -2  -2  -9    0.05    0.11
   2   2   9   -0.14    0.10
  -3  -2  -9    0.13    0.13
   3   2   9   -0.15    0.11
  -4  -2  -9    0.39    0.16
   4   2   9    0.06    0.14
  -5  -2  -9    0.42    0.18
   5   2   9    0.26    0.18
  -6  -2  -9    1.41    0.28
   6   2   9    1.24    0.28
  -7   3   9    0.05    0.13
  -6   3   9    0.01    0.11
  -5   3   9    0.11    0.12
  -4   3   9    0.26    0.14
  -3   3   9    0.01    0.11
  -2   3   9   -0.10    0.10
  -1   3   9    3.50    0.31
   0  -3  -9    0.78    0.16
   0   3   9    0.84    0.19
  -1  -3  -9    0.97    0.19
   1   3   9    0.92    0.20
  -2  -3  -9    0.05    0.13
   2   3   9    0.24    0.15
  -3  -3  -9    1.86    0.27
   3   3   9    1.51    0.26
  -4  -3  -9    1.15    0.25
   4   3   9    1.01    0.24
  -5  -3  -9    1.49    0.28
   5   3   9    2.42    0.35
  -6  -3  -9    1.96    0.33
   6   3   9    2.42    0.37
  -6   4   9   -0.01    0.11
  -5   4   9    0.12    0.12
  -4   4   9    0.22    0.14
  -3   4   9    0.44    0.16
  -2   4   9    0.01    0.11
  -1   4   9    0.31    0.14
   0   4   9    4.32    0.36
   1   4   9    0.23    0.15
   2   4   9    0.01    0.13
   3   4   9    0.10    0.15
   4   4   9    3.13    0.39
   5   4   9    2.75    0.41
  -5   5   9   -0.13    0.10
  -4   5   9    0.05    0.11
  -3   5   9    0.02    0.11
  -2   5   9    0.02    0.11
  -1   5   9    0.28    0.15
   0   5   9   -0.12    0.12
   1   5   9    0.31    0.17
   2   5   9    0.21    0.16
   3   5   9    0.98    0.25
  -2   6   9    0.19    0.14
  -1   6   9   -0.13    0.13
   0   6   9   -0.05    0.13
   1   6   9    0.05    0.15
   2   9 -10   33.19    1.29
   1   9 -10    0.13    0.14
   0   9 -10   43.56    1.53
  -1   9 -10   -0.03    0.11
  -2   9 -10   47.91    1.61
   4   8 -10    0.27    0.18
   3   8 -10   33.47    1.30
   2   8 -10    0.06    0.14
   1   8 -10   61.03    2.02
   0   8 -10    0.28    0.15
  -1   8 -10   57.03    1.87
  -2   8 -10    0.28    0.14
  -3   8 -10   54.32    1.77
  -4   8 -10    0.01    0.10
   5   7 -10    0.08    0.16
  -5  -7  10    0.01    0.09
   4   7 -10   34.59    1.34
   3   7 -10    1.90    0.28
   2   7 -10   77.95    2.50
   1   7 -10    0.05    0.12
   0   7 -10   45.11    1.54
  -1   7 -10    0.42    0.15
  -2   7 -10   59.97    1.92
  -3   7 -10    2.30    0.26
  -4   7 -10   48.70    1.61
  -5   7 -10    0.43    0.14
   6   6 -10    1.16    0.27
  -6  -6  10    1.47    0.30
   5   6 -10   30.17    1.22
  -5  -6  10   30.42    1.22
   4   6 -10    0.05    0.15
  -4  -6  10   -0.02    0.13
   3   6 -10   75.42    2.37
  -3  -6  10   70.60    2.33
   2   6 -10    0.96    0.19
   1   6 -10   51.24    1.71
   0   6 -10    5.33    0.36
  -1   6 -10   61.62    1.97
  -2   6 -10    0.19    0.12
  -3   6 -10   93.92    2.85
  -4   6 -10    0.32    0.14
  -5   6 -10   27.09    1.01
  -6   6 -10    1.12    0.20
   6   5 -10   30.13    1.21
  -6  -5  10   29.33    1.22
   5   5 -10    0.78    0.21
  -5  -5  10    0.71    0.21
   4   5 -10   50.67    1.75
  -4  -5  10   51.48    1.76
   3   5 -10    0.28    0.15
  -3  -5  10    0.38    0.16
   2   5 -10   73.84    2.32
  -2  -5  10   72.32    2.31
   1   5 -10    4.26    0.34
  -1  -5  10    4.82    0.34
   0   5 -10   80.93    2.47
   0  -5  10   78.12    2.45
  -1   5 -10    3.16    0.27
   1  -5  10    3.07    0.27
  -2   5 -10   80.42    2.47
  -3   5 -10   -0.09    0.09
  -4   5 -10   63.68    2.03
  -5   5 -10    1.63    0.24
  -6   5 -10   39.95    1.41
  -7   5 -10    0.43    0.16
   7   4 -10   25.38    1.08
  -7  -4  10   23.49    1.07
   6   4 -10   -0.04    0.13
  -6  -4  10    0.17    0.15
   5   4 -10   56.65    1.93
  -5  -4  10   57.17    1.94
   4   4 -10    0.41    0.15
  -4  -4  10    0.52    0.17
   3   4 -10   59.44    1.93
  -3  -4  10   58.28    1.93
   2   4 -10    0.99    0.19
  -2  -4  10    1.50    0.23
   1   4 -10  121.53    3.70
  -1  -4  10  128.21    3.73
   0   4 -10    7.23    0.41
   0  -4  10    7.47    0.43
  -1   4 -10   73.44    2.28
   1  -4  10   73.16    2.27
  -2   4 -10    4.22    0.31
   2  -4  10    4.29    0.31
  -3   4 -10   77.58    2.40
  -4   4 -10    2.21    0.26
  -5   4 -10   72.86    2.31
  -6   4 -10   -0.01    0.10
  -7   4 -10   25.27    1.02
  -7  -3  10    0.02    0.15
   6   3 -10   54.47    1.85
  -6  -3  10   53.54    1.87
   5   3 -10    1.01    0.21
  -5  -3  10    1.14    0.24
   4   3 -10   68.27    2.20
  -4  -3  10   68.68    2.22
   3   3 -10    0.04    0.10
  -3  -3  10    0.13    0.12
   2   3 -10   63.66    2.04
  -2  -3  10   64.65    2.05
   1   3 -10    5.00    0.34
  -1  -3  10    5.12    0.36
   0   3 -10  188.06    5.56
   0  -3  10  197.47    5.59
  -1   3 -10    2.34    0.26
   1  -3  10    2.49    0.26
  -2   3 -10   53.52    1.75
   2  -3  10   55.42    1.76
  -3   3 -10    1.45    0.21
   3  -3  10    1.53    0.22
  -4   3 -10   93.53    2.87
  -5   3 -10   13.46    0.64
  -6   3 -10   52.32    1.77
  -7   3 -10    1.57    0.26
  -7  -2  10   34.38    1.34
   6   2 -10    2.94    0.34
  -6  -2  10    3.02    0.35
   5   2 -10   75.74    2.37
  -5  -2  10   73.23    2.40
   4   2 -10    0.30    0.14
  -4  -2  10    0.18    0.13
   3   2 -10   82.80    2.51
  -3  -2  10   78.31    2.51
   2   2 -10    0.49    0.14
  -2  -2  10    0.57    0.16
   1   2 -10  145.82    4.28
  -1  -2  10  146.38    4.30
   0   2 -10    1.77    0.23
   0  -2  10    1.78    0.24
  -1   2 -10  136.69    4.05
   1  -2  10  138.65    4.07
  -2   2 -10    0.23    0.13
   2  -2  10    0.19    0.12
  -3   2 -10   80.78    2.56
   3  -2  10   84.41    2.57
  -4   2 -10    0.26    0.13
   4  -2  10    0.00    0.10
  -5   2 -10   97.47    3.02
  -6   2 -10    0.14    0.14
  -7   2 -10   35.18    1.34
  -7  -1  10    0.34    0.18
  -6  -1  10   52.10    1.79
   5   1 -10    0.01    0.10
  -5  -1  10   -0.09    0.11
   4   1 -10   91.17    2.82
  -4  -1  10   93.19    2.86
   3   1 -10    0.13    0.11
  -3  -1  10   -0.03    0.11
   2   1 -10   99.55    2.97
  -2  -1  10   96.74    2.98
   1   1 -10    0.06    0.10
  -1  -1  10   -0.05    0.09
   0   1 -10  118.19    3.56
   0  -1  10  121.87    3.59
  -1   1 -10    0.16    0.11
   1  -1  10   -0.04    0.10
  -2   1 -10  130.26    3.85
   2  -1  10  128.59    3.85
  -3   1 -10    0.83    0.18
   3  -1  10    0.57    0.16
  -4   1 -10   67.45    2.19
   4  -1  10   69.03    2.20
  -5   1 -10   -0.06    0.11
   5  -1  10    0.05    0.12
  -6   1 -10   49.79    1.74
  -7   1 -10   -0.05    0.14
  -7   0  10   32.32    1.26
  -6   0  10    0.41    0.16
  -5   0  10   41.83    1.48
   4   0 -10    0.97    0.19
  -4   0  10    1.09    0.22
   3   0 -10   77.64    2.38
  -3   0  10   76.50    2.42
   2   0 -10    0.01    0.09
  -2   0  10    0.04    0.11
   1   0 -10   74.78    2.28
  -1   0  10   71.92    2.30
   0   0 -10    0.38    0.13
   0   0  10    0.54    0.15
  -1   0 -10   86.20    2.70
   1   0  10   90.84    2.73
  -2   0 -10    2.39    0.28
   2   0  10    2.76    0.32
  -3   0 -10   64.91    2.09
   3   0  10   64.38    2.10
  -4   0 -10    0.15    0.13
   4   0  10    0.14    0.13
  -5   0 -10   34.32    1.29
   5   0  10   34.36    1.28
  -6   0 -10   -0.01    0.14
  -7   0 -10   37.37    1.46
  -7   1  10   -0.05    0.13
  -6   1  10   17.15    0.78
  -5   1  10    2.46    0.30
  -4   1  10   53.75    1.79
   3  -1 -10    2.03    0.25
  -3   1  10    1.46    0.22
   2  -1 -10   61.37    1.91
  -2   1  10   58.44    1.93
   1  -1 -10    4.87    0.34
  -1   1  10    4.76    0.36
   0  -1 -10   38.02    1.32
   0   1  10   39.76    1.36
  -1  -1 -10    0.71    0.17
   1   1  10    0.54    0.17
  -2  -1 -10   82.23    2.57
   2   1  10   82.77    2.60
  -3  -1 -10    0.56    0.17
   3   1  10    0.18    0.14
  -4  -1 -10   39.89    1.44
   4   1  10   40.67    1.45
  -5  -1 -10    0.04    0.14
   5   1  10    0.18    0.16
  -6  -1 -10   35.20    1.38
   6   1  10   36.66    1.39
  -6   2  10    0.23    0.15
  -5   2  10   33.89    1.25
  -4   2  10    0.18    0.13
  -3   2  10   70.06    2.23
  -2   2  10    0.89    0.19
   1  -2 -10   63.26    2.01
  -1   2  10   64.32    2.07
   0  -2 -10    4.95    0.34
   0   2  10    4.55    0.36
  -1  -2 -10   79.66    2.48
   1   2  10   79.72    2.53
  -2  -2 -10    0.84    0.19
   2   2  10    0.85    0.21
  -3  -2 -10   72.52    2.31
   3   2  10   70.20    2.32
  -4  -2 -10    0.62    0.20
   4   2  10    0.44    0.18
  -5  -2 -10   38.70    1.45
   5   2  10   38.01    1.45
  -6  -2 -10    0.10    0.18
   6   2  10   -0.23    0.15
  -6   3  10   29.72    1.15
  -5   3  10    0.67    0.19
  -4   3  10   52.66    1.77
  -3   3  10    0.11    0.13
  -2   3  10   72.22    2.31
  -1   3  10    0.88    0.20
   0   3  10   79.52    2.53
   1   3  10    0.60    0.19
  -2  -3 -10   58.62    1.91
   2   3  10   56.52    1.94
  -3  -3 -10    0.48    0.18
   3   3  10    0.73    0.21
  -4  -3 -10   46.93    1.67
   4   3  10   47.38    1.71
  -5  -3 -10    0.12    0.16
   5   3  10    0.19    0.19
  -5   4  10   36.81    1.34
  -4   4  10    0.09    0.13
  -3   4  10   29.97    1.14
  -2   4  10    0.81    0.21
  -1   4  10   49.45    1.70
   0   4  10    2.00    0.28
   1   4  10   37.72    1.40
   2   4  10   -0.03    0.14
   3   4  10   30.28    1.23
   4   4  10    0.45    0.22
  -3   5  10   -0.01    0.14
  -2   5  10   28.94    1.13
  -1   5  10    0.08    0.14
   0   5  10   34.01    1.31
   1   5  10    0.35    0.18
   2   5  10   17.79    0.87
   3   8 -11    0.45    0.21
   2   8 -11    0.96    0.23
   1   8 -11    1.01    0.23
   0   8 -11    0.13    0.13
  -1   8 -11    0.24    0.13
  -2   8 -11    0.09    0.12
  -3   8 -11    0.21    0.13
   4   7 -11    2.05    0.34
   3   7 -11    0.17    0.16
   2   7 -11    0.24    0.15
   1   7 -11    0.00    0.11
   0   7 -11    1.22    0.22
  -1   7 -11    0.02    0.11
  -2   7 -11    0.25    0.13
  -3   7 -11    0.06    0.11
  -4   7 -11    0.37    0.15
  -5   7 -11    0.12    0.12
   5   6 -11    2.00    0.31
   4   6 -11    0.11    0.16
   3   6 -11    0.94    0.22
   2   6 -11   -0.06    0.12
   1   6 -11    0.85    0.20
   0   6 -11    0.18    0.13
  -1   6 -11    2.29    0.27
  -2   6 -11    0.22    0.12
  -3   6 -11    0.02    0.11
  -4   6 -11    0.06    0.12
  -5   6 -11    1.02    0.21
   6   5 -11    0.55    0.22
  -6  -5  11    0.81    0.24
   5   5 -11    0.46    0.19
  -5  -5  11    0.53    0.20
   4   5 -11    0.77    0.21
  -4  -5  11    0.61    0.22
   3   5 -11    0.65    0.19
  -3  -5  11    0.50    0.18
   2   5 -11    1.55    0.25
  -2  -5  11    1.05    0.21
   1   5 -11    0.22    0.13
  -1  -5  11    0.16    0.12
   0   5 -11    0.85    0.19
   0  -5  11    0.71    0.17
  -1   5 -11   -0.04    0.10
  -2   5 -11    0.07    0.11
  -3   5 -11    0.23    0.13
  -4   5 -11    1.34    0.23
  -5   5 -11    0.32    0.14
  -6   5 -11    0.08    0.12
   6   4 -11    0.57    0.21
  -6  -4  11    0.75    0.23
   5   4 -11    0.66    0.19
  -5  -4  11    0.58    0.21
   4   4 -11    1.56    0.26
  -4  -4  11    1.22    0.24
   3   4 -11    3.32    0.35
  -3  -4  11    2.29    0.31
   2   4 -11    0.57    0.16
  -2  -4  11    0.50    0.17
   1   4 -11   -0.10    0.09
  -1  -4  11    0.05    0.11
   0   4 -11    0.08    0.11
   0  -4  11    0.11    0.12
  -1   4 -11    1.49    0.23
   1  -4  11    1.69    0.24
  -2   4 -11    0.16    0.12
   2  -4  11    0.08    0.11
  -3   4 -11   -0.03    0.11
  -4   4 -11    0.68    0.18
  -5   4 -11    0.02    0.11
  -6   4 -11    0.48    0.18
  -7  -3  11    0.29    0.19
   6   3 -11    1.91    0.30
  -6  -3  11    1.19    0.25
   5   3 -11    0.68    0.19
  -5  -3  11    0.44    0.19
   4   3 -11    0.62    0.18
  -4  -3  11    0.97    0.22
   3   3 -11    0.07    0.12
  -3  -3  11    0.22    0.14
   2   3 -11    0.49    0.15
  -2  -3  11    0.48    0.17
   1   3 -11    0.49    0.15
  -1  -3  11    0.25    0.13
   0   3 -11    0.29    0.14
   0  -3  11    0.40    0.14
  -1   3 -11    0.05    0.11
   1  -3  11    0.07    0.11
  -2   3 -11    0.35    0.14
   2  -3  11    0.18    0.12
  -3   3 -11    0.05    0.12
   3  -3  11   -0.05    0.09
  -4   3 -11    0.62    0.18
  -5   3 -11    2.69    0.33
  -6   3 -11    0.06    0.13
  -7   3 -11    0.01    0.14
  -7  -2  11    2.31    0.36
  -6  -2  11    0.27    0.17
   5   2 -11   -0.06    0.11
  -5  -2  11   -0.09    0.11
   4   2 -11    0.07    0.11
  -4  -2  11    0.01    0.13
   3   2 -11    2.14    0.28
  -3  -2  11    2.27    0.28
   2   2 -11    0.09    0.12
  -2  -2  11    0.24    0.14
   1   2 -11   -0.02    0.09
  -1  -2  11    0.00    0.11
   0   2 -11    0.80    0.18
   0  -2  11    0.96    0.20
  -1   2 -11    0.27    0.13
   1  -2  11    0.06    0.10
  -2   2 -11    0.73    0.18
   2  -2  11    0.30    0.13
  -3   2 -11    0.09    0.11
   3  -2  11   -0.04    0.09
  -4   2 -11    1.48    0.24
   4  -2  11    1.66    0.25
  -5   2 -11    0.17    0.15
  -6   2 -11    0.98    0.23
  -7   2 -11   -0.02    0.15
  -7  -1  11    0.40    0.20
  -6  -1  11    0.88    0.22
  -5  -1  11    0.09    0.14
   4   1 -11    0.20    0.12
  -4  -1  11    0.29    0.16
   3   1 -11    0.78    0.19
  -3  -1  11    1.19    0.22
   2   1 -11    1.55    0.23
  -2  -1  11    1.03    0.20
   1   1 -11    0.02    0.10
  -1  -1  11    0.02    0.10
   0   1 -11    0.05    0.11
   0  -1  11    0.11    0.13
  -1   1 -11    0.40    0.16
   1  -1  11    0.18    0.14
  -2   1 -11    0.84    0.19
   2  -1  11    0.51    0.16
  -3   1 -11    0.04    0.12
   3  -1  11   -0.02    0.10
  -4   1 -11    0.09    0.13
   4  -1  11    0.10    0.12
  -5   1 -11    0.72    0.21
  -6   1 -11    0.12    0.15
  -7   0  11    0.65    0.22
  -6   0  11    1.11    0.25
  -5   0  11    0.82    0.21
  -4   0  11    0.96    0.22
   3   0 -11    0.84    0.18
  -3   0  11    0.97    0.21
   2   0 -11    0.21    0.12
  -2   0  11    0.22    0.13
   1   0 -11    0.58    0.16
  -1   0  11    1.00    0.20
   0   0 -11    0.39    0.14
   0   0  11    0.46    0.16
  -1   0 -11    0.74    0.19
   1   0  11    0.85    0.20
  -2   0 -11   -0.02    0.11
   2   0  11    0.11    0.12
  -3   0 -11   -0.04    0.12
   3   0  11   -0.24    0.09
  -4   0 -11    0.23    0.15
   4   0  11   -0.04    0.14
  -5   0 -11    0.28    0.16
   5   0  11    0.57    0.21
  -6   0 -11    0.54    0.21
  -6   1  11    1.19    0.24
  -5   1  11    0.34    0.17
  -4   1  11    0.19    0.14
  -3   1  11    0.99    0.22
   2  -1 -11    0.03    0.11
  -2   1  11    0.00    0.13
   1  -1 -11    0.25    0.13
  -1   1  11    0.13    0.13
   0  -1 -11    0.11    0.12
   0   1  11    0.38    0.16
  -1  -1 -11    1.66    0.24
   1   1  11    0.81    0.20
  -2  -1 -11    0.04    0.12
   2   1  11    0.37    0.17
  -3  -1 -11    0.66    0.20
   3   1  11    0.53    0.19
  -4  -1 -11    0.14    0.14
   4   1  11   -0.01    0.14
  -5  -1 -11    0.29    0.17
   5   1  11    0.31    0.18
  -6  -1 -11    0.56    0.21
  -6   2  11   -0.04    0.14
  -5   2  11    0.22    0.16
  -4   2  11    0.11    0.14
  -3   2  11    0.33    0.15
  -2   2  11    0.78    0.20
  -1   2  11   -0.02    0.14
   0  -2 -11    0.31    0.15
   0   2  11    0.20    0.15
  -1  -2 -11    0.65    0.18
   1   2  11    0.58    0.18
  -2  -2 -11    3.27    0.35
   2   2  11    3.00    0.39
  -3  -2 -11    0.76    0.21
   3   2  11    0.97    0.23
  -4  -2 -11    0.44    0.19
   4   2  11    0.46    0.21
  -5  -2 -11    0.04    0.17
   5   2  11    0.04    0.17
  -5   3  11    0.09    0.14
  -4   3  11    0.05    0.13
  -3   3  11   -0.04    0.12
  -2   3  11    0.02    0.13
  -1   3  11    0.05    0.14
   0   3  11    0.27    0.16
   1   3  11    0.67    0.22
   2   3  11    0.14    0.17
   3   3  11    0.32    0.19
   4   3  11    0.42    0.22
  -3   4  11   -0.05    0.13
  -2   4  11    0.14    0.15
  -1   4  11    0.11    0.14
   0   4  11    0.49    0.21
   1   4  11   -0.02    0.15
   2   4  11    0.09    0.16
   2   8 -12   30.45    1.23
   1   8 -12    0.16    0.15
   0   8 -12   47.84    1.68
  -1   8 -12    0.16    0.14
  -2   8 -12   34.46    1.28
   3   7 -12   29.33    1.20
   2   7 -12    0.38    0.18
   1   7 -12   36.98    1.37
   0   7 -12    0.41    0.17
  -1   7 -12   45.43    1.58
  -2   7 -12    0.17    0.13
  -3   7 -12   29.59    1.13
  -4   7 -12    0.12    0.13
   5   6 -12    2.10    0.35
   4   6 -12   35.72    1.39
   3   6 -12    0.07    0.15
   2   6 -12   61.99    2.08
   1   6 -12    5.05    0.41
   0   6 -12   38.85    1.40
  -1   6 -12   -0.19    0.10
  -2   6 -12   71.93    2.31
  -3   6 -12    0.18    0.14
  -4   6 -12   33.87    1.26
  -5   6 -12    1.21    0.23
   5   5 -12   36.85    1.44
  -5  -5  12   37.67    1.45
   4   5 -12    0.03    0.15
  -4  -5  12   -0.08    0.14
   3   5 -12   81.29    2.61
  -3  -5  12   80.64    2.62
   2   5 -12    0.17    0.14
  -2  -5  12    0.52    0.18
   1   5 -12   55.38    1.86
  -1  -5  12   55.33    1.86
   0   5 -12    3.72    0.38
  -1   5 -12   68.10    2.19
  -2   5 -12    2.01    0.27
  -3   5 -12   95.36    2.97
  -4   5 -12    0.79    0.20
  -5   5 -12   26.23    1.06
   6   4 -12   30.55    1.25
  -6  -4  12   30.40    1.26
   5   4 -12    0.38    0.18
  -5  -4  12    0.10    0.15
   4   4 -12   55.39    1.90
  -4  -4  12   55.14    1.91
   3   4 -12    1.63    0.27
  -3  -4  12    1.49    0.26
   2   4 -12   74.82    2.46
  -2  -4  12   78.39    2.48
   1   4 -12   -0.06    0.10
  -1  -4  12    0.05    0.11
   0   4 -12   68.52    2.25
   0  -4  12   72.42    2.28
  -1   4 -12    0.05    0.13
   1  -4  12    0.09    0.13
  -2   4 -12   73.71    2.36
  -3   4 -12    2.17    0.29
  -4   4 -12   48.90    1.69
  -5   4 -12    0.15    0.15
  -6   4 -12   35.66    1.36
  -6  -3  12    0.36    0.19
   5   3 -12   48.44    1.71
  -5  -3  12   48.79    1.74
   4   3 -12   -0.11    0.12
  -4  -3  12   -0.06    0.13
   3   3 -12   59.08    1.96
  -3  -3  12   57.59    1.97
   2   3 -12    0.09    0.12
  -2  -3  12    0.01    0.12
   1   3 -12   87.44    2.75
  -1  -3  12   88.02    2.76
   0   3 -12    1.49    0.23
   0  -3  12    2.18    0.28
  -1   3 -12   63.13    2.06
   1  -3  12   63.84    2.08
  -2   3 -12    0.35    0.15
   2  -3  12    0.38    0.16
  -3   3 -12   58.47    1.95
  -4   3 -12    0.45    0.18
  -5   3 -12   49.91    1.75
  -6   3 -12    0.06    0.15
  -6  -2  12   48.78    1.77
   5   2 -12    0.11    0.14
  -5  -2  12   -0.02    0.13
   4   2 -12   42.46    1.51
  -4  -2  12   43.20    1.55
   3   2 -12    1.48    0.24
  -3  -2  12    1.20    0.24
   2   2 -12   69.96    2.25
  -2  -2  12   70.40    2.28
   1   2 -12    0.33    0.14
  -1  -2  12    0.08    0.12
   0   2 -12   96.74    2.97
   0  -2  12   94.89    2.97
  -1   2 -12    1.54    0.24
   1  -2  12    2.05    0.28
  -2   2 -12   55.56    1.88
   2  -2  12   56.94    1.89
  -3   2 -12    1.09    0.22
   3  -2  12    1.00    0.21
  -4   2 -12   63.17    2.12
  -5   2 -12    0.24    0.16
  -6   2 -12   34.31    1.35
  -6  -1  12    0.35    0.20
  -5  -1  12   44.77    1.62
   4   1 -12    1.98    0.27
  -4  -1  12    2.57    0.34
   3   1 -12   36.73    1.32
  -3  -1  12   35.92    1.35
   2   1 -12    1.19    0.23
  -2  -1  12    0.90    0.20
   1   1 -12   87.59    2.74
  -1  -1  12   89.10    2.78
   0   1 -12    0.05    0.12
   0  -1  12    0.19    0.14
  -1   1 -12   42.52    1.48
   1  -1  12   41.23    1.49
  -2   1 -12    1.69    0.26
   2  -1  12    1.77    0.27
  -3   1 -12   58.15    1.93
   3  -1  12   55.88    1.93
  -4   1 -12    0.11    0.16
   4  -1  12    0.06    0.14
  -5   1 -12   37.08    1.42
  -6   1 -12    0.22    0.18
  -6   0  12   26.26    1.11
  -5   0  12    0.11    0.15
  -4   0  12   44.05    1.58
   3   0 -12    0.43    0.17
  -3   0  12    0.56    0.20
   2   0 -12   37.21    1.32
  -2   0  12   35.85    1.34
   1   0 -12   -0.05    0.11
  -1   0  12   -0.09    0.11
   0   0 -12   56.88    1.89
   0   0  12   56.67    1.92
  -1   0 -12   -0.20    0.11
   1   0  12   -0.03    0.12
  -2   0 -12   42.66    1.51
   2   0  12   41.79    1.51
  -3   0 -12   -0.03    0.14
   3   0  12   -0.06    0.12
  -4   0 -12   44.88    1.61
   4   0  12   42.67    1.60
  -5   0 -12    0.47    0.20
  -5   1  12   32.39    1.27
  -4   1  12    0.41    0.19
  -3   1  12   51.57    1.78
  -2   1  12    0.02    0.13
   1  -1 -12   54.42    1.82
  -1   1  12   55.20    1.88
   0  -1 -12   -0.06    0.11
   0   1  12   -0.08    0.13
  -1  -1 -12   66.31    2.14
   1   1  12   62.97    2.15
  -2  -1 -12    1.20    0.23
   2   1  12    0.53    0.19
  -3  -1 -12   48.02    1.68
   3   1  12   45.85    1.69
  -4  -1 -12   -0.11    0.14
   4   1  12   -0.01    0.15
  -5  -1 -12   32.65    1.31
   5   1  12   30.78    1.30
  -5   2  12    0.07    0.15
  -4   2  12   50.04    1.76
  -3   2  12    0.80    0.21
  -2   2  12   60.75    2.05
  -1   2  12    0.38    0.18
   0   2  12   52.40    1.83
   1   2  12    0.32    0.17
  -2  -2 -12   58.17    1.99
   2   2  12   59.68    2.05
  -3  -2 -12    0.25    0.17
   3   2  12   -0.02    0.15
  -4  -2 -12   35.56    1.39
   4   2  12   34.85    1.41
  -3   3  12   32.66    1.27
  -2   3  12   -0.02    0.14
  -1   3  12   33.60    1.31
   0   3  12    0.08    0.15
   1   3  12   33.94    1.35
   2   3  12    0.06    0.18
   2   7 -13    0.63    0.21
   1   7 -13    0.72    0.22
   0   7 -13   -0.12    0.13
  -1   7 -13    0.25    0.17
  -2   7 -13    0.39    0.17
  -3   7 -13    0.28    0.16
   4   6 -13    1.84    0.32
   3   6 -13    0.08    0.16
   2   6 -13    0.92    0.23
   1   6 -13    0.08    0.14
   0   6 -13    1.09    0.24
  -1   6 -13   -0.09    0.11
  -2   6 -13   -0.03    0.12
  -3   6 -13    0.02    0.13
  -4   6 -13    0.09    0.14
   4   5 -13    0.14    0.17
  -4  -5  13   -0.29    0.12
   3   5 -13   -0.01    0.15
  -3  -5  13    0.27    0.18
   2   5 -13    0.10    0.16
   1   5 -13    0.68    0.20
   0   5 -13    0.23    0.15
  -1   5 -13    0.05    0.13
  -2   5 -13    0.13    0.14
  -3   5 -13   -0.15    0.12
  -4   5 -13    0.05    0.14
   5   4 -13    0.72    0.24
  -5  -4  13    0.83    0.25
   4   4 -13    0.27    0.17
  -4  -4  13    0.35    0.21
   3   4 -13   -0.04    0.14
  -3  -4  13   -0.07    0.14
   2   4 -13    0.12    0.14
  -2  -4  13    0.26    0.17
   1   4 -13    0.19    0.14
  -1  -4  13    0.16    0.16
   0   4 -13    0.11    0.14
   0  -4  13    0.03    0.14
  -1   4 -13    0.12    0.13
  -2   4 -13    0.81    0.22
  -3   4 -13   -0.05    0.13
  -4   4 -13   -0.04    0.12
  -5   4 -13   -0.09    0.13
   5   3 -13    1.24    0.26
  -5  -3  13    0.73    0.24
   4   3 -13    0.06    0.15
  -4  -3  13    0.28    0.17
   3   3 -13    0.71    0.20
  -3  -3  13    0.50    0.21
   2   3 -13    0.10    0.13
  -2  -3  13   -0.03    0.13
   1   3 -13    0.15    0.15
  -1  -3  13    0.06    0.14
   0   3 -13    0.02    0.12
   0  -3  13   -0.07    0.10
  -1   3 -13    0.14    0.15
   1  -3  13    0.08    0.13
  -2   3 -13   -0.04    0.12
  -3   3 -13    0.07    0.13
  -4   3 -13   -0.01    0.13
  -5   3 -13    0.01    0.15
  -5  -2  13    0.32    0.18
   4   2 -13    1.14    0.24
  -4  -2  13    0.93    0.24
   3   2 -13    0.39    0.17
  -3  -2  13    0.07    0.16
   2   2 -13    0.94    0.21
  -2  -2  13    0.47    0.19
   1   2 -13    0.05    0.12
  -1  -2  13   -0.02    0.13
   0   2 -13    0.52    0.19
   0  -2  13    1.03    0.23
  -1   2 -13    0.24    0.15
   1  -2  13    0.21    0.15
  -2   2 -13    0.38    0.18
   2  -2  13    0.11    0.15
  -3   2 -13    0.06    0.16
  -4   2 -13   -0.05    0.13
  -5   2 -13    0.00    0.16
  -5  -1  13    0.27    0.18
  -4  -1  13    0.93    0.24
   3   1 -13    1.69    0.28
  -3  -1  13    1.38    0.27
   2   1 -13    0.33    0.16
  -2  -1  13    0.19    0.17
   1   1 -13    0.06    0.13
  -1  -1  13    0.06    0.13
   0   1 -13    0.26    0.15
   0  -1  13    0.21    0.17
  -1   1 -13    0.48    0.19
   1  -1  13    0.04    0.13
  -2   1 -13    0.13    0.15
   2  -1  13    0.34    0.17
  -3   1 -13   -0.15    0.13
   3  -1  13    0.16    0.16
  -4   1 -13    0.36    0.19
  -5   1 -13   -0.04    0.14
  -5   0  13    0.06    0.16
  -4   0  13    0.37    0.17
  -3   0  13    0.05    0.14
   2   0 -13   -0.09    0.11
  -2   0  13    0.15    0.15
   1   0 -13    0.13    0.14
  -1   0  13    0.02    0.13
   0   0 -13    0.21    0.13
   0   0  13    0.40    0.17
  -1   0 -13    0.12    0.14
   1   0  13    0.11    0.15
  -2   0 -13    0.20    0.17
   2   0  13    0.26    0.16
  -3   0 -13    0.22    0.17
   3   0  13    0.15    0.17
  -4   0 -13    1.05    0.26
   4   0  13    1.24    0.27
  -4   1  13   -0.10    0.14
  -3   1  13    0.11    0.15
  -2   1  13    0.41    0.18
  -1   1  13    0.23    0.16
   0  -1 -13    0.05    0.15
   0   1  13    0.18    0.15
  -1  -1 -13    0.25    0.16
   1   1  13    0.23    0.17
  -2  -1 -13    0.72    0.21
   2   1  13    0.46    0.21
  -3  -1 -13    1.00    0.25
   3   1  13    1.00    0.26
  -3   2  13    0.04    0.16
  -2   2  13   -0.16    0.14
  -1   2  13    0.26    0.18
   0   2  13   -0.06    0.15
   1   2  13    0.24    0.18
   2   2  13    0.45    0.21
   2   6 -14    0.07    0.15
   1   6 -14   42.65    1.59
   0   6 -14    0.44    0.19
  -1   6 -14   49.48    1.77
  -2   6 -14   -0.09    0.13
   3   5 -14    0.91    0.24
   2   5 -14   45.91    1.68
   1   5 -14   -0.04    0.15
   0   5 -14   34.52    1.33
  -1   5 -14    0.79    0.23
  -2   5 -14   47.87    1.71
  -3   5 -14    0.55    0.21
   4   4 -14    0.46    0.21
  -4  -4  14    0.47    0.20
   3   4 -14   42.15    1.58
  -3  -4  14   43.05    1.60
   2   4 -14    0.49    0.20
  -2  -4  14    0.24    0.18
   1   4 -14   24.97    1.06
  -1  -4  14   26.28    1.09
   0   4 -14    0.00    0.13
  -1   4 -14   36.86    1.39
  -2   4 -14    1.09    0.24
  -3   4 -14   33.68    1.32
  -4   4 -14    0.22    0.17
   4   3 -14   30.69    1.25
  -4  -3  14   31.08    1.27
   3   3 -14    0.69    0.22
  -3  -3  14    0.68    0.23
   2   3 -14   30.26    1.20
  -2  -3  14   30.32    1.23
   1   3 -14    0.77    0.21
  -1  -3  14    0.63    0.20
   0   3 -14   36.14    1.36
   0  -3  14   35.89    1.38
  -1   3 -14    0.79    0.22
   1  -3  14    0.43    0.18
  -2   3 -14   35.94    1.38
  -3   3 -14    0.14    0.17
  -4   3 -14   21.86    0.99
  -4  -2  14    0.49    0.22
   3   2 -14   31.44    1.24
  -3  -2  14   29.87    1.25
   2   2 -14    0.28    0.16
  -2  -2  14    0.29    0.19
   1   2 -14   37.45    1.43
  -1  -2  14   39.65    1.47
   0   2 -14    0.03    0.14
   0  -2  14    0.09    0.14
  -1   2 -14   37.62    1.43
   1  -2  14   38.92    1.45
  -2   2 -14   -0.12    0.15
   2  -2  14    0.07    0.15
  -3   2 -14   28.86    1.20
  -4   2 -14    0.18    0.17
  -4  -1  14   21.72    1.00
  -3  -1  14   -0.37    0.12
   2   1 -14   36.07    1.36
  -2  -1  14   36.06    1.41
   1   1 -14    1.05    0.24
  -1  -1  14    1.13    0.24
   0   1 -14   40.15    1.49
   0  -1  14   41.04    1.53
  -1   1 -14   -0.09    0.13
   1  -1  14    0.16    0.16
  -2   1 -14   32.02    1.27
   2  -1  14   31.05    1.27
  -3   1 -14    0.31    0.19
   3  -1  14    0.66    0.23
  -3   0  14   27.96    1.19
  -2   0  14    1.40    0.29
  -1   0  14   45.48    1.67
   0   0 -14    2.04    0.31
   0   0  14    1.97    0.32
  -1   0 -14   26.91    1.13
   1   0  14   28.21    1.18
  -2   0 -14    1.11    0.26
   2   0  14    1.27    0.28
  -3   0 -14   32.53    1.31
   3   0  14   31.87    1.33
  -2   1  14   31.84    1.30
  -1   1  14    0.05    0.18
   0   1  14   29.68    1.25
   1   1  14    0.22    0.19
   1   5 -15    0.56    0.21
   0   5 -15    0.01    0.15
  -1   5 -15    0.14    0.17
   2   4 -15    0.61    0.23
  -2  -4  15    1.31    0.30
   1   4 -15    0.15    0.17
   0   4 -15    0.13    0.17
  -1   4 -15    0.37    0.18
  -2   4 -15    0.13    0.16
   2   3 -15    0.71    0.23
  -2  -3  15    0.91    0.25
   1   3 -15    0.66    0.21
  -1  -3  15    0.88    0.25
   0   3 -15    0.22    0.18
   0  -3  15    0.24    0.17
  -1   3 -15   -0.08    0.14
  -2   3 -15   -0.24    0.12
   2   2 -15    0.36    0.21
  -2  -2  15    0.32    0.20
   1   2 -15   -0.09    0.14
  -1  -2  15   -0.13    0.13
   0   2 -15   -0.21    0.13
   0  -2  15    0.00    0.15
  -1   2 -15    0.11    0.15
   1  -2  15    0.21    0.17
  -2   2 -15    0.09    0.16
  -2  -1  15    0.09    0.18
   1   1 -15   -0.23    0.12
  -1  -1  15    0.10    0.17
   0   1 -15    0.53    0.20
   0  -1  15    0.51    0.20
  -1   1 -15   -0.04    0.15
   1  -1  15    0.17    0.19
   0   0   0    0.00    0.00
;
_shelx_hkl_checksum              75519
loop_
_space_group_symop_operation_xyz
'x, y, z'
'-x, -y, -z'
loop_
_atom_site_label
_atom_site_type_symbol
_atom_site_fract_x
_atom_site_fract_y
_atom_site_fract_z
_atom_site_U_iso_or_equiv
_atom_site_adp_type
_atom_site_occupancy
_atom_site_site_symmetry_order
_atom_site_calc_flag
_atom_site_refinement_flags_posn
_atom_site_refinement_flags_adp
_atom_site_refinement_flags_occupancy
_atom_site_disorder_assembly
_atom_site_disorder_group
Pd2 Pd 0.0000 0.0000 0.5000 0.01984(8) Uani 1 2 d S . P . .
Pd1 Pd 0.0000 0.0000 0.0000 0.02176(8) Uani 1 2 d S . P . .
Ru3 Ru 0.49479(2) 0.49647(2) 0.24996(2) 0.01908(7) Uani 1 1 d . . . . .
O1 O 0.4833(3) 0.3130(2) 0.10195(17) 0.0293(4) Uani 1 1 d . . . . .
H1 H 0.4902 0.3589 0.0482 0.035 Uiso 1 1 calc R U . . .
N32 N 0.6952(3) 0.6331(3) 0.1897(2) 0.0263(5) Uani 1 1 d . . . . .
N31 N 0.3198(3) 0.6339(3) 0.1790(2) 0.0281(5) Uani 1 1 d . . . . .
N35 N 0.5010(3) 0.6687(3) 0.3824(2) 0.0326(5) Uani 1 1 d . . . . .
N34 N 0.2959(3) 0.3440(3) 0.2972(2) 0.0282(5) Uani 1 1 d . . . . .
N33 N 0.6722(3) 0.3529(3) 0.3132(2) 0.0322(6) Uani 1 1 d . . . . .
N22 N -0.0045(3) 0.2694(3) 0.5425(2) 0.0318(5) Uani 1 1 d . . . . .
H22A H 0.0983 0.3157 0.5313 0.048 Uiso 1 1 calc R U . . .
H22B H -0.0305 0.3114 0.6172 0.048 Uiso 1 1 calc R U . . .
H22C H -0.0832 0.2988 0.4974 0.048 Uiso 1 1 calc R U . . .
O311 O 0.2894(3) 0.5949(3) 0.0721(2) 0.0434(6) Uani 1 1 d . . . . .
N11 N 0.0297(3) 0.2683(3) 0.0333(2) 0.0353(6) Uani 1 1 d . . . . .
H11A H 0.0017 0.3198 0.1066 0.053 Uiso 1 1 calc R U . . .
H11B H -0.0382 0.3031 -0.0158 0.053 Uiso 1 1 calc R U . . .
H11C H 0.1387 0.2995 0.0237 0.053 Uiso 1 1 calc R U . . .
O332 O 0.7254(3) 0.4118(3) 0.4162(2) 0.0534(7) Uani 1 1 d . . . . .
O321 O 0.8452(3) 0.5924(3) 0.1947(2) 0.0470(6) Uani 1 1 d . . . . .
O312 O 0.2495(3) 0.7579(3) 0.2432(2) 0.0609(8) Uani 1 1 d . . . . .
O322 O 0.6658(3) 0.7591(3) 0.1528(3) 0.0568(7) Uani 1 1 d . . . . .
O331 O 0.7249(4) 0.2157(3) 0.2524(2) 0.0678(9) Uani 1 1 d . . . . .
O342 O 0.1532(3) 0.3956(4) 0.3153(3) 0.0798(7) Uani 1 1 d . . . . .
N21 N -0.0176(3) -0.0031(3) 0.3281(2) 0.0273(5) Uani 1 1 d . . . . .
H21A H 0.0787 0.0465 0.3092 0.041 Uiso 1 1 calc R U . . .
H21B H -0.1063 0.0575 0.3170 0.041 Uiso 1 1 calc R U . . .
H21C H -0.0329 -0.1147 0.2834 0.041 Uiso 1 1 calc R U . . .
N12 N 0.2593(3) -0.0199(3) 0.0159(2) 0.0361(6) Uani 1 1 d . . . . .
H12A H 0.3117 0.0882 0.0377 0.054 Uiso 1 1 calc R U . . .
H12B H 0.2981 -0.0809 -0.0526 0.054 Uiso 1 1 calc R U . . .
H12C H 0.2809 -0.0757 0.0696 0.054 Uiso 1 1 calc R U . . .
O341 O 0.3185(3) 0.1934(3) 0.2978(3) 0.0798(7) Uani 1 1 d . . . . .
O351 O 0.5061(4) 0.7915(3) 0.4607(2) 0.0752(9) Uani 1 1 d . . . . .
loop_
_atom_site_aniso_label
_atom_site_aniso_U_11
_atom_site_aniso_U_22
_atom_site_aniso_U_33
_atom_site_aniso_U_23
_atom_site_aniso_U_13
_atom_site_aniso_U_12
Pd2 0.01869(14) 0.01870(14) 0.02410(16) 0.00893(11) 0.00098(11) 0.00296(10)
Pd1 0.02263(15) 0.01827(14) 0.02490(16) 0.00707(12) 0.00070(11) 0.00066(10)
Ru3 0.01893(12) 0.01908(11) 0.01990(12) 0.00667(9) -0.00050(8) 0.00116(8)
O1 0.0401(11) 0.0228(9) 0.0242(11) 0.0054(8) 0.0019(9) 0.0010(8)
N32 0.0239(12) 0.0277(11) 0.0255(13) 0.0055(10) -0.0006(9) -0.0034(9)
N31 0.0229(11) 0.0270(11) 0.0389(15) 0.0162(11) 0.0028(10) 0.0031(9)
N35 0.0402(14) 0.0296(12) 0.0260(14) 0.0054(11) 0.0022(11) -0.0028(10)
N34 0.0275(12) 0.0295(12) 0.0306(14) 0.0137(10) 0.0006(10) -0.0004(9)
N33 0.0271(12) 0.0350(13) 0.0404(16) 0.0201(12) -0.0043(11) 0.0032(10)
N22 0.0420(14) 0.0214(11) 0.0323(14) 0.0075(10) -0.0015(11) 0.0058(10)
O311 0.0464(13) 0.0502(13) 0.0378(14) 0.0195(11) -0.0133(11) 0.0066(10)
N11 0.0353(13) 0.0228(11) 0.0474(17) 0.0099(11) -0.0015(11) 0.0008(10)
O332 0.0548(15) 0.0635(16) 0.0469(16) 0.0247(13) -0.0210(12) 0.0068(12)
O321 0.0261(11) 0.0573(14) 0.0643(17) 0.0276(12) 0.0054(11) 0.0029(10)
O312 0.0661(17) 0.0570(15) 0.0617(18) 0.0127(13) 0.0091(13) 0.0417(13)
O322 0.0399(13) 0.0537(14) 0.095(2) 0.0513(15) 0.0073(13) -0.0019(11)
O331 0.0797(19) 0.0561(16) 0.0655(19) 0.0080(14) -0.0163(15) 0.0432(14)
O342 0.0467(11) 0.0594(11) 0.153(2) 0.0585(13) 0.0351(12) 0.0086(9)
N21 0.0280(12) 0.0269(11) 0.0298(13) 0.0119(10) 0.0023(10) 0.0046(9)
N12 0.0269(12) 0.0286(12) 0.0507(17) 0.0077(11) -0.0008(11) 0.0015(9)
O341 0.0467(11) 0.0594(11) 0.153(2) 0.0585(13) 0.0351(12) 0.0086(9)
O351 0.121(3) 0.0496(15) 0.0384(16) -0.0132(13) 0.0115(16) -0.0066(16)
loop_
_atom_type_symbol
_atom_type_description
_atom_type_scat_dispersion_real
_atom_type_scat_dispersion_imag
_atom_type_scat_source
N N 0.0061 0.0033 'International Tables Vol C Tables 4.2.6.8 and 6.1.1.4'
H H 0.0000 0.0000 'International Tables Vol C Tables 4.2.6.8 and 6.1.1.4'
O O 0.0106 0.0060 'International Tables Vol C Tables 4.2.6.8 and 6.1.1.4'
Ru Ru -1.2594 0.8363 'International Tables Vol C Tables 4.2.6.8 and 6.1.1.4'
Pd Pd -0.9988 1.0072 'International Tables Vol C Tables 4.2.6.8 and 6.1.1.4'
loop_
_geom_angle_atom_site_label_1
_geom_angle_atom_site_label_2
_geom_angle_atom_site_label_3
_geom_angle
_geom_angle_site_symmetry_1
_geom_angle_site_symmetry_3
_geom_angle_publ_flag
N22 Pd2 N22 180.0 2_556 . ?
N22 Pd2 N21 92.22(9) 2_556 . ?
N22 Pd2 N21 87.78(9) . . ?
N22 Pd2 N21 87.78(9) 2_556 2_556 ?
N22 Pd2 N21 92.22(9) . 2_556 ?
N21 Pd2 N21 180.0 . 2_556 ?
N11 Pd1 N11 180.0 . 2 ?
N11 Pd1 N12 88.24(9) . 2 ?
N11 Pd1 N12 91.76(9) 2 2 ?
N11 Pd1 N12 91.76(9) . . ?
N11 Pd1 N12 88.24(9) 2 . ?
N12 Pd1 N12 180.0 2 . ?
N35 Ru3 O1 177.88(9) . . ?
N35 Ru3 N33 93.09(11) . . ?
O1 Ru3 N33 88.99(9) . . ?
N35 Ru3 N34 95.13(10) . . ?
O1 Ru3 N34 85.29(9) . . ?
N33 Ru3 N34 89.10(9) . . ?
N35 Ru3 N31 89.32(11) . . ?
O1 Ru3 N31 88.59(9) . . ?
N33 Ru3 N31 177.42(9) . . ?
N34 Ru3 N31 91.60(9) . . ?
N35 Ru3 N32 89.52(10) . . ?
O1 Ru3 N32 90.06(9) . . ?
N33 Ru3 N32 90.49(9) . . ?
N34 Ru3 N32 175.34(8) . . ?
N31 Ru3 N32 88.62(9) . . ?
Ru3 O1 H1 109.5 . . ?
O322 N32 O321 118.7(2) . . ?
O322 N32 Ru3 120.30(18) . . ?
O321 N32 Ru3 120.90(18) . . ?
O312 N31 O311 119.0(2) . . ?
O312 N31 Ru3 119.8(2) . . ?
O311 N31 Ru3 121.16(17) . . ?
O351 N35 Ru3 172.8(3) . . ?
O342 N34 O341 117.8(3) . . ?
O342 N34 Ru3 122.26(19) . . ?
O341 N34 Ru3 119.66(19) . . ?
O331 N33 O332 119.5(2) . . ?
O331 N33 Ru3 122.4(2) . . ?
O332 N33 Ru3 118.17(19) . . ?
Pd2 N22 H22A 109.5 . . ?
Pd2 N22 H22B 109.5 . . ?
H22A N22 H22B 109.5 . . ?
Pd2 N22 H22C 109.5 . . ?
H22A N22 H22C 109.5 . . ?
H22B N22 H22C 109.5 . . ?
Pd1 N11 H11A 109.5 . . ?
Pd1 N11 H11B 109.5 . . ?
H11A N11 H11B 109.5 . . ?
Pd1 N11 H11C 109.5 . . ?
H11A N11 H11C 109.5 . . ?
H11B N11 H11C 109.5 . . ?
Pd2 N21 H21A 109.5 . . ?
Pd2 N21 H21B 109.5 . . ?
H21A N21 H21B 109.5 . . ?
Pd2 N21 H21C 109.5 . . ?
H21A N21 H21C 109.5 . . ?
H21B N21 H21C 109.5 . . ?
Pd1 N12 H12A 109.5 . . ?
Pd1 N12 H12B 109.5 . . ?
H12A N12 H12B 109.5 . . ?
Pd1 N12 H12C 109.5 . . ?
H12A N12 H12C 109.5 . . ?
H12B N12 H12C 109.5 . . ?
loop_
_geom_bond_atom_site_label_1
_geom_bond_atom_site_label_2
_geom_bond_distance
_geom_bond_site_symmetry_2
_geom_bond_publ_flag
Pd2 N22 2.039(2) 2_556 ?
Pd2 N22 2.039(2) . ?
Pd2 N21 2.043(2) . ?
Pd2 N21 2.043(2) 2_556 ?
Pd1 N11 2.035(2) . ?
Pd1 N11 2.035(2) 2 ?
Pd1 N12 2.047(2) 2 ?
Pd1 N12 2.047(2) . ?
Ru3 N35 1.764(2) . ?
Ru3 O1 1.9355(18) . ?
Ru3 N33 2.091(2) . ?
Ru3 N34 2.092(2) . ?
Ru3 N31 2.093(2) . ?
Ru3 N32 2.100(2) . ?
O1 H1 0.8200 . ?
N32 O322 1.223(3) . ?
N32 O321 1.235(3) . ?
N31 O312 1.222(3) . ?
N31 O311 1.238(3) . ?
N35 O351 1.137(3) . ?
N34 O342 1.207(3) . ?
N34 O341 1.209(3) . ?
N33 O331 1.216(3) . ?
N33 O332 1.238(3) . ?
N22 H22A 0.8900 . ?
N22 H22B 0.8900 . ?
N22 H22C 0.8900 . ?
N11 H11A 0.8900 . ?
N11 H11B 0.8900 . ?
N11 H11C 0.8900 . ?
N21 H21A 0.8900 . ?
N21 H21B 0.8900 . ?
N21 H21C 0.8900 . ?
N12 H12A 0.8900 . ?
N12 H12B 0.8900 . ?
N12 H12C 0.8900 . ?
loop_
_geom_hbond_atom_site_label_D
_geom_hbond_atom_site_label_H
_geom_hbond_atom_site_label_A
_geom_hbond_distance_DH
_geom_hbond_distance_HA
_geom_hbond_distance_DA
_geom_hbond_angle_DHA
_geom_hbond_site_symmetry_A
O1 H1 O311 0.82 2.45 2.850(3) 110.9 .
O1 H1 O311 0.82 2.34 2.969(3) 134.4 2_665
O1 H1 O322 0.82 2.57 3.117(3) 125.6 2_665
N22 H22A O332 0.89 2.40 3.153(3) 142.2 2_666
N22 H22B O321 0.89 2.55 3.213(4) 132.1 2_666
N22 H22B O312 0.89 2.55 3.266(4) 138.1 2_566
N22 H22B O342 0.89 2.47 3.008(4) 119.4 2_566
N22 H22C O332 0.89 2.13 3.008(3) 169.4 1_455
N11 H11A O321 0.89 2.50 3.163(3) 131.7 1_455
N11 H11A O342 0.89 2.63 3.332(5) 136.4 .
N11 H11B O311 0.89 2.32 3.142(3) 154.4 2_565
N11 H11C O311 0.89 2.46 3.106(3) 130.1 .
N11 H11C O322 0.89 2.57 3.253(4) 134.1 2_665
N21 H21A O341 0.89 2.17 3.050(3) 169.2 .
N21 H21B O331 0.89 2.13 3.000(3) 163.9 1_455
N21 H21C O321 0.89 2.38 3.243(3) 162.3 1_445
N21 H21C O312 0.89 2.47 2.886(3) 109.2 1_545
N12 H12A O1 0.89 2.11 2.981(3) 166.4 .
N12 H12B O1 0.89 2.52 3.178(3) 131.1 2_655
N12 H12B O331 0.89 2.32 3.141(4) 154.1 2_655
N12 H12C O311 0.89 2.61 3.303(3) 135.9 1_545
O1 H1 O311 0.82 2.45 2.850(3) 110.9 .
O1 H1 O311 0.82 2.34 2.969(3) 134.4 2_665
O1 H1 O322 0.82 2.57 3.117(3) 125.6 2_665
N22 H22A O332 0.89 2.40 3.153(3) 142.2 2_666
N22 H22B O321 0.89 2.55 3.213(4) 132.1 2_666
N22 H22B O312 0.89 2.55 3.266(4) 138.1 2_566
N22 H22B O342 0.89 2.47 3.008(4) 119.4 2_566
N22 H22C O332 0.89 2.13 3.008(3) 169.4 1_455
N11 H11A O321 0.89 2.50 3.163(3) 131.7 1_455
N11 H11A O342 0.89 2.63 3.332(5) 136.4 .
N11 H11B O311 0.89 2.32 3.142(3) 154.4 2_565
N11 H11C O311 0.89 2.46 3.106(3) 130.1 .
N11 H11C O322 0.89 2.57 3.253(4) 134.1 2_665
N21 H21A O341 0.89 2.17 3.050(3) 169.2 .
N21 H21B O331 0.89 2.13 3.000(3) 163.9 1_455
N21 H21C O321 0.89 2.38 3.243(3) 162.3 1_445
N12 H12A O1 0.89 2.11 2.981(3) 166.4 .
N12 H12B O1 0.89 2.52 3.178(3) 131.1 2_655
N12 H12B O331 0.89 2.32 3.141(4) 154.1 2_655
N12 H12C O311 0.89 2.61 3.303(3) 135.9 1_545
