#------------------------------------------------------------------------------
#$Date: 2020-06-16 04:24:09 +0300 (Tue, 16 Jun 2020) $
#$Revision: 253165 $
#$URL: file:///home/coder/svn-repositories/cod/cif/7/24/07/7240727.cif $
#------------------------------------------------------------------------------
#
# This file is available in the Crystallography Open Database (COD),
# http://www.crystallography.net/
#
# All data on this site have been placed in the public domain by the
# contributors.
#
data_7240727
loop_
_publ_author_name
'Malaspina, Lorraine Andrade'
'Hoser, Anna A.'
'Edwards, Alison'
'Woinska, Magdalena'
'Turner, Michael J.'
'Price, Jason R.'
'Sugimoto, Kunihisa'
'Nishibori, Eiji'
'Burgi, Hans-Beat'
'Jayatilaka, Dylan'
'Grabowsky, Simon'
_publ_section_title
;
 Hydrogen atoms in bridging positions from quantum crystallographic
 refinements: Influence of hydrogen atom displacement parameters on
 geometry and electron density
;
_journal_name_full               CrystEngComm
_journal_paper_doi               10.1039/D0CE00378F
_journal_year                    2020
_chemical_absolute_configuration syn
_chemical_formula_moiety         'C4 H3 O4, C9 H12 N O2'
_chemical_formula_sum            'C13 H15 N O6'
_chemical_formula_weight         281.2676
_chemical_name_common            'L-phenylalaninium hydrogen maleate'
_space_group_IT_number           4
_space_group_name_Hall           'P 2yb'
_space_group_name_H-M_alt        'P 1 21 1'
_symmetry_cell_setting           monoclinic
_symmetry_Int_Tables_number      4
_symmetry_space_group_name_Hall  'P 2yb'
_symmetry_space_group_name_H-M   'P 1 21 1'
_atom_sites_solution_hydrogens   HAR
_atom_sites_solution_primary     direct
_atom_sites_solution_secondary   difmap
_audit_creation_date             2019-05-02T17:25:29-00:00
_audit_creation_method           'WinGX routine CIF_UPDATE'
_audit_update_record
;
2020-03-10 deposited with the CCDC.	2020-06-15 downloaded from the CCDC.
;
_cell_angle_alpha                90
_cell_angle_beta                 101.36(3)
_cell_angle_gamma                90
_cell_formula_units_Z            2
_cell_length_a                   10.905(2)
_cell_length_b                   5.2338(10)
_cell_length_c                   11.439(2)
_cell_measurement_reflns_used    124185
_cell_measurement_temperature    25
_cell_measurement_theta_max      26.3
_cell_measurement_theta_min      0.9
_cell_volume                     640.1(2)
_diffrn_ambient_temperature      25
_diffrn_detector                 'SPring-8 BL02B1 Curved Imaging Plate'
_diffrn_measured_fraction_theta_full 0.998
_diffrn_measured_fraction_theta_max 0.998
_diffrn_measurement_device       'quarter \C-circle diffractometer'
_diffrn_measurement_device_type  IPDSC-Q
_diffrn_measurement_method       'phi or omega oscillation scans'
_diffrn_radiation_monochromator  graphite
_diffrn_radiation_probe          x-ray
_diffrn_radiation_type           synchrotron
_diffrn_radiation_wavelength     0.354
_diffrn_reflns_av_R_equivalents  0.022
_diffrn_reflns_av_unetI/netI     0.063
_diffrn_reflns_limit_h_max       23
_diffrn_reflns_limit_h_min       -24
_diffrn_reflns_limit_k_max       11
_diffrn_reflns_limit_k_min       -11
_diffrn_reflns_limit_l_max       25
_diffrn_reflns_limit_l_min       -24
_diffrn_reflns_number            124185
_diffrn_reflns_theta_full        23.16
_diffrn_reflns_theta_max         23.16
_diffrn_reflns_theta_min         0.9
_diffrn_source                   SPring-8
_exptl_absorpt_coefficient_mu    0.039
_exptl_absorpt_correction_type   none
_exptl_crystal_colour            colorless
_exptl_crystal_density_diffrn    1.459
_exptl_crystal_density_method    'not measured'
_exptl_crystal_description       block
_exptl_crystal_F_000             296
_exptl_crystal_size_max          0.2
_exptl_crystal_size_mid          0.1
_exptl_crystal_size_min          0.03
_refine_diff_density_max         0.2128
_refine_diff_density_min         -0.2321
_refine_diff_density_rms         0.0355
_refine_ls_abs_structure_details 'Flack H D (1983), Acta Cryst. A39, 876-881'
_refine_ls_abs_structure_Flack   0.3(3)
_refine_ls_extinction_method     none
_refine_ls_goodness_of_fit_all   0.8688
_refine_ls_goodness_of_fit_gt    0.8688
_refine_ls_hydrogen_treatment    refxyz
_refine_ls_matrix_type           full
_refine_ls_number_constraints    91
_refine_ls_number_parameters     225
_refine_ls_number_reflns         7564
_refine_ls_number_restraints     0
_refine_ls_R_factor_all          0.0204
_refine_ls_R_factor_gt           0.0204
_refine_ls_shift/su_max          0.0018
_refine_ls_shift/su_mean         0
_refine_ls_structure_factor_coef F
_refine_ls_weighting_details     w=1/\s(F)
_refine_ls_weighting_scheme      sigma
_refine_ls_wR_factor_all         0.0213
_refine_ls_wR_factor_gt          0.0213
_reflns_number_gt                7564
_reflns_number_total             7820
_reflns_threshold_expression     'F>0 & F/u(F)>4.0 & |F_calc|>10^-3'
_iucr_refine_instructions_details
;
!!!!!!!!!!!!!!!!!!!!!!!!!!!!!!!!!!!!!!!!!!!!!!!!!!!!!!!!!!!!!!!!!!!!!!!!!!!!!!!
!!!                                                                         !!!
!!!                        This stdin was written with lamaGOET             !!!
!!!                                                                         !!!
!!!                    script written by Lorraine Andrade Malaspina         !!!
!!!                        contact: lorraine.malaspina@gmail.com            !!!
!!!                                                                         !!!
!!!!!!!!!!!!!!!!!!!!!!!!!!!!!!!!!!!!!!!!!!!!!!!!!!!!!!!!!!!!!!!!!!!!!!!!!!!!!!!
{ 

   keyword_echo_on

   name= PhAla_HAR_neutron

   ! Process the CIF
   CIF= {
       file_name= PhAlaHmal_Xrays_final_neutron_ADPs.cif
    }

   process_CIF

   name= PhAla_HAR_neutron

   basis_directory= /basis_sets
   basis_name= def2-TZVP

   charge= 0
   multiplicity= 1


   crystal= {    
      xray_data= {   
         thermal_smearing_model= hirshfeld
         partition_model= mulliken
         optimise_extinction= false
         correct_dispersion= no
         optimise_scale_factor= true
         wavelength= 0.3540 Angstrom
         REDIRECT tonto.hkl
         f_sigma_cutoff= 4
         refine_H_U_iso= no

	 refine_H_ADPs= false
      }  
   }  

   ! Geometry    
   put

   ! Normal SCF
   scfdata= {
      initial_density= promolecule 
      kind= rhf
      use_SC_cluster_charges= FALSE
      convergence= 0.001
      diis= { convergence_tolerance= 0.0002 }
   }

   scf

   ! SC cluster charge SCF
   scfdata= {
      initial_MOs= restricted
      kind= rhf
      use_SC_cluster_charges= TRUE
      cluster_radius= 8 angstrom
      defragment= true
      convergence= 0.001
      diis= {
         convergence_tolerance= 0.0002
      }
   }

   ! Make Hirshfeld structure factors
   refine_hirshfeld_atoms

}
;
_cod_data_source_file            d0ce00378f2.cif
_cod_data_source_block           PhAla_HAR_neutron
_cod_depositor_comments
;
The following automatic conversions were performed:

data item '_symmetry_cell_setting' value 'Monoclinic' was changed to
'monoclinic' in accordance with the
/home/data/users/saulius/crontab/automatic-downloads/rss-feeds/RSC/lib/dictionaries/cif_core.dic
dictionary named 'cif_core.dic' version 2.4.2 last updated on
2011-04-26.

Automatic conversion script
Id: cif_fix_values 7556 2019-12-06 15:28:31Z antanas 
;
_cod_original_sg_symbol_Hall     'p 2yb'
_cod_original_sg_symbol_H-M      'p 1 21 1'
_cod_database_code               7240727
_refine_ls_coordinate_system     cartesian
_refine_ls_svd_threshold         0.1E-02
_iucr_refine_reflections_details
;
 reflection_data= {
  keys= { h= k= l= i_exp= i_sigma= }
   data= {
   2   0   0       71.13     23.14
   3   0   0    13889.54    415.45
   4   0   0     3736.02     91.31
   5   0   0       13.00      2.08
   6   0   0      165.10     17.70
   7   0   0      291.64      8.65
   8   0   0       29.90      2.63
   9   0   0       30.55      2.22
  10   0   0       65.95      2.64
  11   0   0        1.30      0.27
  12   0   0       32.96      1.43
  13   0   0       15.27      0.81
  14   0   0       34.83      1.32
  15   0   0       17.34      0.95
  16   0   0       16.25      1.03
  17   0   0       11.21      0.98
  18   0   0        0.11      0.09
  19   0   0       12.91      1.58
  20   0   0       14.38      2.21
  21   0   0        2.10      0.39
  22   0   0       37.76      6.11
  23   0   0       12.37      3.57
   1   1   0        9.08      1.52
   2   1   0     2585.99    978.49
   3   1   0     2052.64    281.48
   4   1   0      555.19     56.34
   5   1   0      879.89     21.13
   6   1   0      949.38     24.89
   7   1   0      208.09      7.53
   8   1   0       34.91      2.08
   9   1   0       39.00      1.93
  10   1   0      348.30      8.19
  11   1   0        5.99      0.29
  12   1   0        6.12      0.28
  13   1   0       71.61      1.77
  14   1   0        4.00      0.22
  15   1   0       25.39      0.92
  16   1   0       21.23      0.98
  17   1   0       28.69      1.37
  18   1   0        2.79      0.21
  19   1   0        3.47      0.30
  20   1   0       17.18      1.52
  21   1   0        0.28      0.18
  22   1   0        7.63      1.17
  23   1   0        1.53      0.22
   0   2   0      595.45     96.99
   1   2   0       61.65      7.81
   2   2   0       48.63      5.96
   3   2   0       62.74      6.87
   4   2   0      591.45     16.30
   5   2   0      614.95     14.63
   6   2   0      195.35      7.30
   7   2   0      294.11      6.94
   8   2   0      556.78     13.05
   9   2   0      288.25      6.80
  10   2   0       87.99      2.19
  11   2   0      374.03      8.81
  12   2   0       15.93      0.64
  13   2   0       70.13      1.72
  14   2   0      113.15      2.82
  15   2   0       47.00      1.22
  16   2   0       48.44      1.32
  17   2   0       25.97      1.28
  18   2   0        5.22      0.40
  19   2   0       16.06      1.23
  20   2   0        1.54      0.22
  21   2   0       10.16      1.14
  22   2   0        7.73      1.16
  23   2   0        0.44      0.31
   1   3   0      239.78     14.02
   2   3   0       23.48      2.06
   3   3   0       53.87      4.43
   4   3   0      218.05      7.16
   5   3   0        9.21      0.65
   6   3   0      119.62      3.94
   7   3   0      249.29      5.86
   8   3   0       61.08      2.08
   9   3   0      209.70      4.97
  10   3   0       13.22      0.57
  11   3   0       50.64      1.28
  12   3   0       82.69      2.24
  13   3   0       41.61      1.14
  14   3   0      135.28      3.28
  15   3   0        1.17      0.18
  16   3   0        3.82      0.30
  17   3   0       15.12      1.25
  18   3   0       30.86      1.90
  19   3   0       23.12      1.94
  20   3   0        6.04      0.66
  21   3   0        5.93      0.75
  22   3   0        4.54      0.69
   0   4   0       45.92      4.51
   1   4   0      111.60      4.53
   2   4   0       33.64      2.04
   3   4   0       26.63      1.52
   4   4   0      468.09     11.07
   5   4   0      188.67      4.43
   6   4   0       97.57      2.43
   7   4   0      152.38      3.63
   8   4   0       49.80      1.46
   9   4   0       58.21      1.58
  10   4   0        0.62      0.11
  11   4   0       38.38      1.11
  12   4   0        1.98      0.13
  13   4   0        1.69      0.17
  14   4   0        7.65      0.44
  15   4   0       17.21      1.00
  16   4   0       24.61      1.76
  17   4   0      105.68      2.85
  18   4   0       14.21      1.48
  19   4   0        3.46      0.42
  20   4   0       25.06      3.33
  21   4   0        8.32      1.37
  22   4   0        5.93      0.95
   1   5   0      495.62     12.06
   2   5   0      766.55     18.12
   3   5   0      195.47      4.58
   4   5   0       42.80      1.46
   5   5   0      162.43      3.92
   6   5   0       68.94      1.74
   7   5   0       87.36      2.07
   8   5   0        2.04      0.13
   9   5   0        4.04      0.19
  10   5   0       72.49      1.92
  11   5   0       22.39      0.85
  12   5   0       37.52      1.21
  13   5   0        6.47      0.36
  14   5   0       22.63      1.17
  15   5   0       16.88      1.03
  16   5   0        8.85      0.66
  17   5   0        1.91      0.25
  18   5   0        3.73      0.50
  19   5   0        0.19      0.15
  20   5   0        2.19      0.38
  21   5   0       11.20      2.47
   0   6   0      275.44      7.59
   1   6   0       87.10      2.20
   2   6   0        6.74      0.34
   3   6   0       14.51      0.60
   4   6   0       18.40      0.75
   5   6   0       48.47      1.28
   6   6   0       15.30      0.61
   7   6   0        4.47      0.25
   8   6   0       96.47      2.42
   9   6   0        0.44      0.11
  10   6   0       62.64      1.68
  11   6   0        5.35      0.31
  12   6   0       54.00      1.59
  13   6   0       46.62      1.60
  14   6   0        8.23      0.70
  15   6   0       37.21      2.03
  16   6   0       24.87      2.00
  17   6   0        1.16      0.14
  18   6   0        6.47      0.84
  19   6   0       11.15      1.66
  20   6   0        2.74      0.50
   1   7   0       12.50      0.63
   2   7   0      139.25      3.55
   3   7   0       17.51      0.71
   4   7   0        9.89      0.46
   5   7   0        1.66      0.18
   6   7   0       30.97      1.08
   7   7   0       10.18      0.52
   8   7   0       57.80      1.52
   9   7   0       31.39      1.23
  10   7   0      120.22      3.04
  11   7   0       13.23      0.85
  12   7   0       50.45      2.06
  13   7   0       56.60      2.21
  14   7   0        4.90      0.48
  15   7   0        6.45      0.71
  16   7   0       16.52      1.93
  17   7   0        8.59      1.20
  18   7   0        4.12      0.68
   0   8   0       52.52      2.68
   1   8   0       10.43      0.70
   2   8   0       14.51      0.89
   3   8   0        8.58      0.50
   4   8   0        4.57      0.29
   5   8   0        1.76      0.12
   6   8   0       13.69      0.78
   7   8   0       13.47      0.82
   8   8   0       24.07      1.36
   9   8   0       23.34      1.44
  10   8   0        9.45      0.76
  11   8   0        2.54      0.24
  12   8   0        5.22      0.60
  13   8   0       17.60      1.91
  14   8   0        3.25      0.43
  15   8   0        4.11      0.63
  16   8   0       16.27      3.01
  17   8   0        0.56      0.20
   1   9   0        2.35      0.24
   2   9   0       22.62      1.81
   3   9   0       29.86      1.80
   4   9   0        3.59      0.30
   5   9   0       11.05      0.85
   6   9   0       14.49      1.10
   7   9   0       39.58      2.15
   8   9   0        0.99      0.17
   9   9   0       25.52      2.20
  10   9   0       10.93      1.22
  11   9   0        5.11      0.66
  12   9   0       11.40      1.60
  13   9   0        9.26      1.40
  14   9   0        4.66      0.73
  15   9   0        4.19      0.74
   0  10   0       36.04      5.62
   1  10   0       18.48      2.46
   2  10   0        1.61      0.26
   3  10   0       38.78      3.39
   4  10   0        9.25      1.00
   5  10   0        1.37      0.19
   6  10   0       10.17      1.14
   7  10   0        1.93      0.24
   8  10   0       11.92      1.52
   9  10   0        2.35      0.33
  10  10   0        2.08      0.30
  11  10   0        4.92      0.84
  12  10   0        3.49      0.68
   1  11   0       13.32      2.38
   2  11   0        3.50      0.86
   3  11   0        2.38      0.40
   4  11   0       11.84      1.79
   5  11   0        1.00      0.16
   6  11   0        5.53      0.88
   7  11   0       10.04      1.72
 -23   0   1        1.41      0.37
 -22   0   1        1.54      0.33
 -21   0   1       10.59      1.87
 -20   0   1       24.24      2.74
 -19   0   1       11.16      1.32
 -18   0   1       12.26      1.18
 -17   0   1        2.34      0.25
 -16   0   1      159.30      4.67
 -15   0   1        1.76      0.22
 -14   0   1      141.74      3.70
 -13   0   1      590.36     21.42
 -12   0   1       17.68      0.96
 -11   0   1        3.59      0.27
 -10   0   1       59.69      2.71
  -9   0   1        0.05      0.07
  -8   0   1       75.05      5.46
  -7   0   1       10.12      1.19
  -6   0   1        2.51      0.36
  -5   0   1      292.98     40.48
  -4   0   1       20.25      3.83
  -3   0   1      474.61    134.98
  -2   0   1      436.51    158.53
  -1   0   1       34.42     12.75
   0   0   1        0.01      0.01
   1   0   1      236.33     82.99
   2   0   1       16.74      4.84
   3   0   1      265.77     63.17
   4   0   1       78.08     14.67
   5   0   1       78.33     11.17
   6   0   1       98.59     10.49
   7   0   1       88.75      7.82
   8   0   1      140.02      5.47
   9   0   1      153.16      3.75
  10   0   1       14.61      1.00
  11   0   1       34.50      1.57
  12   0   1        3.83      0.37
  13   0   1        3.73      0.26
  14   0   1        2.83      0.27
  15   0   1        2.14      0.19
  16   0   1        0.34      0.26
  17   0   1        2.54      0.27
  18   0   1        5.11      0.61
  19   0   1        7.07      1.09
  20   0   1       47.29      4.33
  21   0   1        0.43      0.49
  22   0   1        1.76      0.41
  23   0   1       14.23      3.73
 -23   1   1        4.84      0.84
 -22   1   1       26.22      3.22
 -21   1   1        4.08      0.46
 -20   1   1       11.40      1.07
 -19   1   1       26.90      1.90
 -18   1   1      107.72      2.90
 -17   1   1       14.09      0.82
 -16   1   1       20.27      0.88
 -15   1   1      232.41      5.51
 -14   1   1       20.08      0.75
 -13   1   1       75.06      1.89
 -12   1   1        4.48      0.21
 -11   1   1      241.54      5.68
 -10   1   1      121.57      2.96
  -9   1   1       17.35      0.98
  -8   1   1      168.05      4.63
  -7   1   1      537.19     12.68
  -6   1   1      130.31      9.66
  -5   1   1      443.95     29.39
  -4   1   1       32.00      4.19
  -3   1   1     2421.96    312.03
  -2   1   1      157.26     29.75
  -1   1   1     1638.91   1101.92
   0   1   1     1233.16    437.92
   1   1   1     1286.59    422.07
   2   1   1     4662.54    965.90
   3   1   1      726.15     92.71
   4   1   1     2472.56     57.96
   5   1   1      688.04     16.20
   6   1   1      384.22      9.24
   7   1   1     1088.52     25.93
   8   1   1      624.39     14.75
   9   1   1       48.25      2.07
  10   1   1        1.68      0.11
  11   1   1      271.22      6.45
  12   1   1       24.00      0.90
  13   1   1        2.68      0.15
  14   1   1       56.99      1.35
  15   1   1       58.51      1.51
  16   1   1        9.78      0.53
  17   1   1       94.73      2.43
  18   1   1       13.95      1.02
  19   1   1        0.85      0.17
  20   1   1       10.23      1.11
  21   1   1       13.15      1.51
  22   1   1        0.56      0.14
  23   1   1        2.97      0.48
 -23   2   1        0.23      0.18
 -22   2   1        5.36      0.70
 -21   2   1       19.36      2.37
 -20   2   1        6.00      0.61
 -19   2   1       10.45      0.82
 -18   2   1        1.62      0.20
 -17   2   1        3.24      0.21
 -16   2   1        8.25      0.46
 -15   2   1       15.73      0.72
 -14   2   1       19.43      0.76
 -13   2   1       11.07      0.48
 -12   2   1       25.87      0.92
 -11   2   1       16.19      0.67
 -10   2   1      146.31      3.81
  -9   2   1      136.71      3.34
  -8   2   1      224.46      5.42
  -7   2   1       58.25      3.47
  -6   2   1       10.51      0.84
  -5   2   1     1634.19     39.08
  -4   2   1     1075.35     25.19
  -3   2   1       38.31      4.18
  -2   2   1     1282.43     58.16
  -1   2   1     1222.47     94.53
   0   2   1       29.26      3.71
   1   2   1      283.20     35.23
   2   2   1       80.24      9.64
   3   2   1      440.02     27.86
   4   2   1      131.59     10.79
   5   2   1      163.63      9.46
   6   2   1      301.46      7.07
   7   2   1       41.46      2.43
   8   2   1        4.79      0.29
   9   2   1      281.26      6.95
  10   2   1       63.92      1.78
  11   2   1       70.63      1.74
  12   2   1      159.57      3.79
  13   2   1      203.56      4.84
  14   2   1       22.26      0.86
  15   2   1       10.41      0.55
  16   2   1       99.73      2.50
  17   2   1       62.91      1.67
  18   2   1        8.11      0.60
  19   2   1       37.60      2.28
  20   2   1        6.15      0.64
  21   2   1        6.64      0.84
  22   2   1       13.82      1.88
  23   2   1        1.31      0.26
 -23   3   1        0.80      0.14
 -22   3   1        2.42      0.36
 -21   3   1       13.70      1.68
 -20   3   1        9.93      1.09
 -19   3   1        4.63      0.48
 -18   3   1       13.85      1.18
 -17   3   1        2.05      0.24
 -16   3   1        3.70      0.29
 -15   3   1        1.48      0.13
 -14   3   1       18.40      0.80
 -13   3   1       22.67      0.86
 -12   3   1       74.49      1.81
 -11   3   1       30.82      1.03
 -10   3   1       30.63      1.11
  -9   3   1      213.49      5.04
  -8   3   1       16.42      0.83
  -7   3   1      634.63     14.99
  -6   3   1      288.06      6.87
  -5   3   1       39.17      2.48
  -4   3   1      644.34     15.18
  -3   3   1      331.53      8.60
  -2   3   1      145.22      9.77
  -1   3   1      371.93     12.59
   0   3   1      258.45     15.34
   1   3   1      167.31     11.37
   2   3   1      679.87     16.43
   3   3   1      613.63     14.41
   4   3   1        4.67      0.35
   5   3   1        9.79      0.68
   6   3   1      915.74     21.57
   7   3   1       53.60      2.25
   8   3   1       91.35      2.21
   9   3   1      119.27      2.81
  10   3   1        3.66      0.18
  11   3   1      105.36      2.73
  12   3   1       76.38      1.99
  13   3   1        5.21      0.26
  14   3   1       51.09      1.49
  15   3   1       62.16      1.66
  16   3   1       20.71      1.30
  17   3   1       13.01      1.14
  18   3   1       13.92      1.13
  19   3   1       31.02      2.53
  20   3   1        6.15      0.69
  21   3   1        5.40      0.74
  22   3   1        5.81      0.89
 -22   4   1        3.49      0.60
 -21   4   1        4.82      0.77
 -20   4   1       47.10      4.27
 -19   4   1        8.66      1.02
 -18   4   1       29.43      2.13
 -17   4   1       80.81      2.06
 -16   4   1       12.28      1.12
 -15   4   1        9.13      0.73
 -14   4   1       36.33      1.24
 -13   4   1       24.07      0.94
 -12   4   1       18.83      0.79
 -11   4   1       23.54      0.84
 -10   4   1       20.49      0.77
  -9   4   1       32.80      1.11
  -8   4   1       43.21      1.47
  -7   4   1        5.73      0.29
  -6   4   1       52.33      1.90
  -5   4   1       64.32      2.42
  -4   4   1      190.23      4.47
  -3   4   1      103.95      3.67
  -2   4   1       34.37      2.12
  -1   4   1      268.23      6.35
   0   4   1      277.30      6.59
   1   4   1      563.82     13.42
   2   4   1      268.36      6.55
   3   4   1     1110.16     26.56
   4   4   1      686.07     16.09
   5   4   1      194.41      4.58
   6   4   1      322.04      7.62
   7   4   1       13.74      0.66
   8   4   1       48.80      1.40
   9   4   1       45.24      1.25
  10   4   1       22.73      0.83
  11   4   1       13.09      0.55
  12   4   1       26.49      0.94
  13   4   1       17.27      0.78
  14   4   1       27.05      1.20
  15   4   1       28.82      1.52
  16   4   1       23.55      1.57
  17   4   1        1.44      0.14
  18   4   1       25.90      2.23
  19   4   1       23.12      2.49
  20   4   1        0.78      0.19
  21   4   1        5.83      0.97
  22   4   1        6.34      1.21
 -21   5   1        7.38      1.38
 -20   5   1       10.54      1.54
 -19   5   1        1.05      0.19
 -18   5   1       18.08      2.10
 -17   5   1       35.33      2.24
 -16   5   1       11.47      0.85
 -15   5   1       48.54      1.60
 -14   5   1       17.83      0.93
 -13   5   1       19.64      0.92
 -12   5   1       23.48      0.97
 -11   5   1       16.41      0.68
 -10   5   1        5.20      0.26
  -9   5   1       16.27      0.67
  -8   5   1       10.60      0.46
  -7   5   1       42.99      1.24
  -6   5   1       63.13      1.52
  -5   5   1       32.64      1.18
  -4   5   1       25.23      1.07
  -3   5   1      145.78      3.62
  -2   5   1      150.08      3.56
  -1   5   1      202.93      4.86
   0   5   1       14.06      0.78
   1   5   1      137.61      3.27
   2   5   1      154.43      3.62
   3   5   1        5.73      0.32
   4   5   1        5.89      0.29
   5   5   1        1.52      0.12
   6   5   1       18.19      0.76
   7   5   1       32.00      1.04
   8   5   1        8.44      0.37
   9   5   1       23.55      0.91
  10   5   1       13.43      0.59
  11   5   1       12.54      0.57
  12   5   1       56.85      1.44
  13   5   1        7.37      0.43
  14   5   1       22.16      1.14
  15   5   1       23.28      1.42
  16   5   1        6.23      0.49
  17   5   1       11.20      1.17
  18   5   1        4.67      0.61
  19   5   1        9.16      1.34
  20   5   1       12.40      2.52
  21   5   1        4.52      1.04
 -20   6   1        5.21      0.96
 -19   6   1        1.09      0.16
 -18   6   1       15.30      1.79
 -17   6   1       17.07      1.62
 -16   6   1       13.87      1.18
 -15   6   1       11.04      0.86
 -14   6   1       30.43      1.73
 -13   6   1       91.55      2.26
 -12   6   1       65.30      1.72
 -11   6   1        6.79      0.39
 -10   6   1        5.35      0.30
  -9   6   1       54.65      1.38
  -8   6   1       92.72      2.32
  -7   6   1       19.33      0.75
  -6   6   1       65.31      1.64
  -5   6   1      191.89      4.51
  -4   6   1       59.88      1.44
  -3   6   1       32.95      1.05
  -2   6   1        5.48      0.25
  -1   6   1      121.50      2.99
   0   6   1       66.56      1.60
   1   6   1       18.83      0.84
   2   6   1       92.89      2.26
   3   6   1        5.73      0.26
   4   6   1       74.61      1.75
   5   6   1      100.05      2.40
   6   6   1       47.49      1.18
   7   6   1       11.43      0.53
   8   6   1       46.49      1.27
   9   6   1       34.54      1.09
  10   6   1       24.27      1.09
  11   6   1       46.29      1.31
  12   6   1       29.81      1.30
  13   6   1       10.58      0.70
  14   6   1       13.06      0.94
  15   6   1       36.19      2.11
  16   6   1       38.19      2.49
  17   6   1        9.50      1.04
  18   6   1       14.31      1.78
  19   6   1       35.15      4.90
  20   6   1        0.59      0.24
 -19   7   1        3.62      0.66
 -18   7   1        4.98      0.88
 -17   7   1       24.83      3.08
 -16   7   1       16.09      1.82
 -15   7   1       23.02      2.28
 -14   7   1       41.88      2.64
 -13   7   1       21.72      1.61
 -12   7   1       34.35      2.09
 -11   7   1       72.75      2.08
 -10   7   1       61.50      1.72
  -9   7   1        3.25      0.20
  -8   7   1        5.14      0.31
  -7   7   1       28.34      1.07
  -6   7   1       23.13      0.92
  -5   7   1       16.42      0.70
  -4   7   1       31.43      1.04
  -3   7   1       32.71      1.03
  -2   7   1        4.11      0.23
  -1   7   1       23.87      0.99
   0   7   1        1.11      0.20
   1   7   1        0.84      0.17
   2   7   1        9.60      0.50
   3   7   1       19.22      0.75
   4   7   1       21.27      0.84
   5   7   1       17.38      0.74
   6   7   1       10.68      0.52
   7   7   1        8.67      0.45
   8   7   1        2.71      0.20
   9   7   1       26.34      1.21
  10   7   1       64.13      1.60
  11   7   1        1.56      0.21
  12   7   1       27.30      1.70
  13   7   1        4.46      0.39
  14   7   1       14.21      1.26
  15   7   1       25.12      2.49
  16   7   1        2.64      0.32
  17   7   1       15.89      2.18
  18   7   1        4.60      0.80
 -17   8   1        5.79      1.03
 -16   8   1       10.05      1.66
 -15   8   1       13.09      2.02
 -14   8   1        4.28      0.55
 -13   8   1       24.62      2.44
 -12   8   1        7.85      0.73
 -11   8   1        3.15      0.28
 -10   8   1       35.80      1.98
  -9   8   1        3.59      0.30
  -8   8   1       18.63      1.14
  -7   8   1       48.42      1.55
  -6   8   1       44.51      1.45
  -5   8   1       89.60      2.30
  -4   8   1        1.13      0.14
  -3   8   1       97.87      2.68
  -2   8   1       48.98      1.43
  -1   8   1        8.19      0.55
   0   8   1       57.99      1.60
   1   8   1       17.70      1.01
   2   8   1       10.07      0.68
   3   8   1        7.34      0.41
   4   8   1       23.25      1.09
   5   8   1       79.04      1.87
   6   8   1       28.62      1.30
   7   8   1       63.30      1.70
   8   8   1       33.82      1.61
   9   8   1       31.45      1.77
  10   8   1       36.76      2.28
  11   8   1        6.74      0.60
  12   8   1        0.68      0.20
  13   8   1        1.52      0.22
  14   8   1        9.91      1.23
  15   8   1        3.76      0.63
  16   8   1        2.02      0.38
  17   8   1        8.74      1.55
 -15   9   1        5.22      1.06
 -14   9   1        3.02      0.49
 -13   9   1        0.45      0.14
 -12   9   1        0.47      0.20
 -11   9   1        6.30      0.76
 -10   9   1        0.24      0.19
  -9   9   1        2.07      0.22
  -8   9   1       15.35      1.33
  -7   9   1       23.96      1.67
  -6   9   1        5.39      0.48
  -5   9   1       12.55      0.96
  -4   9   1        8.25      0.66
  -3   9   1        8.86      0.75
  -2   9   1       16.45      1.33
  -1   9   1        5.75      0.56
   0   9   1       11.50      1.17
   1   9   1       70.85      2.04
   2   9   1        5.04      0.49
   3   9   1       17.65      1.40
   4   9   1       51.01      2.03
   5   9   1       59.66      2.05
   6   9   1       11.58      0.94
   7   9   1       31.92      2.11
   8   9   1        6.32      0.61
   9   9   1        5.72      0.62
  10   9   1        1.75      0.21
  11   9   1        2.26      0.28
  12   9   1        4.32      0.60
  13   9   1        4.88      0.77
  14   9   1        0.32      0.12
 -12  10   1        3.92      0.68
 -11  10   1        3.00      0.56
 -10  10   1        3.88      0.57
  -9  10   1        4.59      0.66
  -8  10   1        3.97      0.52
  -7  10   1        1.23      0.15
  -6  10   1        6.47      0.77
  -5  10   1       30.33      2.91
  -4  10   1        1.43      0.19
  -3  10   1        1.15      0.26
  -2  10   1       20.07      2.71
  -1  10   1       13.94      1.61
   0  10   1        1.65      0.25
   1  10   1        2.62      0.40
   2  10   1       11.85      1.73
   3  10   1       19.95      2.24
   4  10   1       20.99      2.02
   5  10   1        0.32      0.08
   6  10   1        5.97      0.73
   7  10   1        2.18      0.30
   8  10   1        2.89      0.38
   9  10   1        4.01      0.58
  10  10   1       10.07      1.47
  11  10   1        1.30      0.19
  -7  11   1       24.90      4.22
  -6  11   1        0.99      0.21
  -5  11   1        0.22      0.14
  -4  11   1        7.59      1.13
  -3  11   1        4.58      0.93
  -2  11   1        0.20      0.17
  -1  11   1        6.94      1.19
   0  11   1        0.59      0.14
   1  11   1        2.38      0.49
   2  11   1        5.86      1.46
   3  11   1        1.77      0.36
   4  11   1        0.43      0.27
   5  11   1        0.17      0.16
   6  11   1        4.65      0.79
   7  11   1        0.49      0.19
 -24   0   2        1.23      0.38
 -23   0   2        3.23      0.84
 -22   0   2        1.09      0.28
 -21   0   2        1.29      0.37
 -20   0   2        1.76      0.27
 -19   0   2        1.25      0.17
 -18   0   2        9.30      0.88
 -17   0   2       13.49      0.96
 -16   0   2        7.26      0.51
 -15   0   2      152.55      4.31
 -14   0   2       83.95      2.10
 -13   0   2      105.14      2.85
 -12   0   2       86.24      2.15
 -11   0   2      265.11      6.57
 -10   0   2       18.46      1.27
  -9   0   2      110.45      4.43
  -8   0   2       96.75      6.25
  -7   0   2      436.83     11.28
  -6   0   2       61.12      7.63
  -5   0   2       58.22      9.00
  -4   0   2      775.63    120.11
  -3   0   2      819.03    229.67
  -2   0   2      838.35    328.28
  -1   0   2     1354.35   1250.03
   0   0   2        6.04      2.96
   1   0   2      374.61    126.98
   2   0   2      297.29     77.22
   3   0   2      702.73    136.35
   4   0   2       27.55      4.59
   5   0   2       73.53      9.59
   6   0   2      337.34     10.92
   7   0   2      581.33     14.56
   8   0   2        2.23      0.22
   9   0   2       18.31      1.30
  10   0   2      150.12      3.67
  11   0   2       15.54      0.88
  12   0   2       15.94      0.84
  13   0   2       18.23      1.00
  14   0   2        6.71      0.47
  15   0   2        5.69      0.41
  16   0   2       21.24      1.37
  17   0   2       26.61      1.91
  18   0   2        2.65      0.34
  19   0   2       32.82      3.35
  20   0   2        9.84      1.57
  21   0   2        8.08      1.60
  22   0   2        0.10      0.12
  23   0   2        7.81      2.55
 -23   1   2        3.05      0.48
 -22   1   2        6.31      0.86
 -21   1   2        0.81      0.14
 -20   1   2        1.23      0.19
 -19   1   2        2.67      0.26
 -18   1   2        1.32      0.22
 -17   1   2       48.46      1.38
 -16   1   2        8.49      0.43
 -15   1   2       35.68      1.07
 -14   1   2      134.64      3.28
 -13   1   2       13.51      0.56
 -12   1   2       91.89      2.34
 -11   1   2      104.73      2.60
 -10   1   2       48.42      1.86
  -9   1   2      136.63      3.30
  -8   1   2       99.18      4.61
  -7   1   2       75.87      5.22
  -6   1   2      104.34      8.14
  -5   1   2      526.21     25.90
  -4   1   2      390.44     48.51
  -3   1   2      581.56     79.00
  -2   1   2     1220.25    251.71
  -1   1   2      524.79    112.98
   0   1   2     1006.34    241.19
   1   1   2     1004.33    215.31
   2   1   2      909.75    128.40
   3   1   2      916.37     77.56
   4   1   2      910.33     22.94
   5   1   2      364.29     15.40
   6   1   2       68.86      4.98
   7   1   2      397.15      9.35
   8   1   2        0.86      0.09
   9   1   2       60.17      2.18
  10   1   2       57.85      1.74
  11   1   2        8.77      0.40
  12   1   2        9.61      0.42
  13   1   2        1.31      0.13
  14   1   2       29.35      1.01
  15   1   2       51.29      1.44
  16   1   2        3.26      0.21
  17   1   2       31.64      1.48
  18   1   2       11.41      0.84
  19   1   2        6.86      0.67
  20   1   2        9.85      1.12
  21   1   2       12.12      1.51
  22   1   2        8.35      1.30
  23   1   2        2.71      0.49
 -23   2   2        6.38      1.17
 -22   2   2       29.60      3.30
 -21   2   2        9.55      1.07
 -20   2   2        0.62      0.16
 -19   2   2       10.01      0.80
 -18   2   2      126.47      3.05
 -17   2   2        7.72      0.48
 -16   2   2        7.62      0.43
 -15   2   2       34.85      1.18
 -14   2   2       39.21      1.11
 -13   2   2       15.17      0.61
 -12   2   2       13.10      0.55
 -11   2   2      158.68      3.92
 -10   2   2      137.55      3.25
  -9   2   2      111.71      2.77
  -8   2   2       15.03      0.90
  -7   2   2      462.16     11.46
  -6   2   2       52.48      3.67
  -5   2   2      248.63     11.86
  -4   2   2      863.32     20.45
  -3   2   2      222.88     22.35
  -2   2   2      198.61     24.66
  -1   2   2     2686.02     62.96
   0   2   2     2346.84     55.34
   1   2   2      231.32     23.57
   2   2   2      410.92     31.88
   3   2   2      642.35     17.29
   4   2   2      612.15     14.40
   5   2   2       53.17      3.84
   6   2   2       21.58      1.55
   7   2   2       30.73      1.80
   8   2   2       61.38      2.35
   9   2   2      134.86      3.23
  10   2   2      167.05      3.94
  11   2   2        6.45      0.30
  12   2   2       16.00      0.63
  13   2   2      104.27      2.57
  14   2   2       89.84      2.28
  15   2   2       42.05      1.28
  16   2   2       20.61      1.05
  17   2   2        8.46      0.59
  18   2   2       38.58      2.08
  19   2   2       16.22      1.39
  20   2   2        5.89      0.66
  21   2   2       22.42      2.86
  22   2   2       17.46      2.75
 -23   3   2        9.16      1.58
 -22   3   2        1.28      0.22
 -21   3   2       19.01      2.34
 -20   3   2       53.23      3.25
 -19   3   2       37.92      2.30
 -18   3   2       34.51      2.39
 -17   3   2       26.61      1.74
 -16   3   2       76.75      2.20
 -15   3   2       38.46      1.31
 -14   3   2       15.93      0.71
 -13   3   2      110.92      3.06
 -12   3   2      150.68      3.65
 -11   3   2       14.35      0.59
 -10   3   2      127.71      3.03
  -9   3   2       52.26      1.67
  -8   3   2      250.75      5.96
  -7   3   2      133.77      3.25
  -6   3   2      140.58      4.04
  -5   3   2      133.55      5.15
  -4   3   2        5.21      0.42
  -3   3   2      540.43     13.28
  -2   3   2      630.84     14.94
  -1   3   2      106.70      7.76
   0   3   2      299.43     12.45
   1   3   2      231.64     11.44
   2   3   2       60.38      4.72
   3   3   2      680.42     15.96
   4   3   2       34.75      2.57
   5   3   2      144.28      4.27
   6   3   2      426.90     10.03
   7   3   2      102.92      2.53
   8   3   2       61.31      1.94
   9   3   2      161.13      3.81
  10   3   2       95.70      2.25
  11   3   2       36.82      1.09
  12   3   2      122.72      3.06
  13   3   2       10.89      0.52
  14   3   2       10.10      0.56
  15   3   2       36.26      1.45
  16   3   2        7.39      0.57
  17   3   2       21.83      1.57
  18   3   2       25.01      1.85
  19   3   2       52.12      3.41
  20   3   2       22.22      2.11
  21   3   2       13.59      1.98
  22   3   2       12.32      2.12
 -22   4   2        2.87      0.45
 -21   4   2        1.06      0.19
 -20   4   2        0.87      0.22
 -19   4   2       12.56      1.48
 -18   4   2       43.25      2.51
 -17   4   2       36.77      2.14
 -16   4   2       24.71      1.64
 -15   4   2        9.69      0.62
 -14   4   2       10.21      0.58
 -13   4   2       12.27      0.57
 -12   4   2       64.30      1.78
 -11   4   2       13.49      0.56
 -10   4   2      287.38      6.85
  -9   4   2      104.57      2.52
  -8   4   2       47.98      1.52
  -7   4   2      138.65      3.26
  -6   4   2        9.23      0.50
  -5   4   2       10.68      0.60
  -4   4   2      110.18      3.24
  -3   4   2       46.69      2.42
  -2   4   2       11.46      0.81
  -1   4   2      194.03      4.61
   0   4   2      128.19      4.51
   1   4   2       53.18      3.03
   2   4   2      120.29      3.69
   3   4   2       42.47      2.21
   4   4   2       17.68      0.95
   5   4   2      246.70      5.82
   6   4   2       37.34      1.45
   7   4   2       82.42      1.97
   8   4   2       70.19      1.76
   9   4   2       98.03      2.43
  10   4   2       69.83      1.69
  11   4   2       47.08      1.22
  12   4   2       11.75      0.54
  13   4   2       25.52      1.03
  14   4   2       67.78      2.15
  15   4   2        4.72      0.38
  16   4   2        2.47      0.22
  17   4   2        0.92      0.17
  18   4   2        3.33      0.43
  19   4   2        3.99      0.49
  20   4   2        1.62      0.26
  21   4   2        4.29      0.71
 -21   5   2        2.16      0.39
 -20   5   2        0.39      0.25
 -19   5   2       13.36      1.65
 -18   5   2        3.68      0.44
 -17   5   2       54.30      2.43
 -16   5   2        5.37      0.44
 -15   5   2       31.31      1.53
 -14   5   2      173.28      4.16
 -13   5   2       43.90      1.29
 -12   5   2       77.29      2.04
 -11   5   2      138.35      3.68
 -10   5   2       99.45      2.38
  -9   5   2       33.34      1.04
  -8   5   2        5.84      0.26
  -7   5   2       79.51      1.96
  -6   5   2       12.87      0.57
  -5   5   2       37.94      1.28
  -4   5   2       99.48      2.34
  -3   5   2       11.01      0.54
  -2   5   2       79.45      2.04
  -1   5   2       12.95      0.71
   0   5   2      174.74      4.16
   1   5   2      236.58      5.58
   2   5   2       92.00      2.19
   3   5   2      130.84      3.08
   4   5   2      122.72      2.98
   5   5   2       59.85      1.52
   6   5   2       29.11      1.05
   7   5   2       68.32      1.67
   8   5   2       47.31      1.21
   9   5   2       86.05      2.09
  10   5   2       61.93      1.53
  11   5   2       69.22      1.71
  12   5   2       40.70      1.24
  13   5   2       17.20      0.88
  14   5   2        0.91      0.13
  15   5   2        0.70      0.16
  16   5   2        5.59      0.52
  17   5   2        8.63      0.99
  18   5   2        9.19      1.20
  19   5   2       10.27      1.48
  20   5   2        7.33      1.54
 -20   6   2        4.61      0.84
 -19   6   2        2.16      0.33
 -18   6   2        5.69      0.72
 -17   6   2       10.15      1.09
 -16   6   2        3.81      0.37
 -15   6   2       26.84      1.75
 -14   6   2       19.03      1.33
 -13   6   2       24.63      1.24
 -12   6   2       17.90      0.89
 -11   6   2       17.87      0.86
 -10   6   2        8.70      0.43
  -9   6   2       11.11      0.52
  -8   6   2        3.20      0.20
  -7   6   2       34.43      1.05
  -6   6   2       12.14      0.53
  -5   6   2       43.11      1.17
  -4   6   2       35.49      1.10
  -3   6   2       25.76      0.91
  -2   6   2      156.11      3.98
  -1   6   2       76.86      2.01
   0   6   2       19.08      0.95
   1   6   2       93.73      2.33
   2   6   2        6.51      0.31
   3   6   2       78.85      1.89
   4   6   2       36.65      1.08
   5   6   2       11.84      0.50
   6   6   2      121.45      3.11
   7   6   2       30.92      0.99
   8   6   2       13.54      0.62
   9   6   2        0.21      0.13
  10   6   2       36.02      1.22
  11   6   2        4.21      0.25
  12   6   2        9.05      0.56
  13   6   2       12.69      0.93
  14   6   2        7.79      0.64
  15   6   2        5.47      0.50
  16   6   2        5.12      0.52
  17   6   2       12.34      1.36
  18   6   2        0.60      0.19
  19   6   2        5.99      1.07
 -19   7   2        2.46      0.47
 -18   7   2        3.73      0.59
 -17   7   2        2.06      0.32
 -16   7   2       10.97      1.32
 -15   7   2        2.70      0.31
 -14   7   2        2.07      0.19
 -13   7   2       14.57      1.16
 -12   7   2        1.37      0.25
 -11   7   2       30.02      1.47
 -10   7   2       35.95      1.40
  -9   7   2       27.20      1.16
  -8   7   2       10.57      0.55
  -7   7   2       23.02      0.97
  -6   7   2       30.13      1.04
  -5   7   2        0.65      0.13
  -4   7   2       68.46      1.70
  -3   7   2      176.12      4.35
  -2   7   2        6.38      0.33
  -1   7   2      101.90      2.47
   0   7   2       58.51      1.55
   1   7   2       76.44      1.87
   2   7   2      116.83      2.78
   3   7   2       17.38      0.70
   4   7   2       11.07      0.51
   5   7   2        7.12      0.36
   6   7   2        2.99      0.17
   7   7   2       37.27      1.25
   8   7   2        4.98      0.30
   9   7   2       40.96      1.52
  10   7   2       13.74      0.85
  11   7   2       44.45      1.79
  12   7   2       38.33      2.07
  13   7   2        2.01      0.20
  14   7   2        9.16      0.89
  15   7   2       20.96      2.36
  16   7   2       24.54      2.83
  17   7   2        0.68      0.19
  18   7   2        8.02      1.35
 -17   8   2        8.24      1.34
 -16   8   2        6.05      1.01
 -15   8   2       10.16      1.68
 -14   8   2       11.50      1.35
 -13   8   2        8.10      0.94
 -12   8   2       28.76      2.08
 -11   8   2       10.82      0.93
 -10   8   2       63.32      1.88
  -9   8   2       18.87      1.28
  -8   8   2       30.00      1.72
  -7   8   2       12.60      0.77
  -6   8   2       64.63      1.87
  -5   8   2       49.90      1.40
  -4   8   2        6.71      0.40
  -3   8   2       32.13      1.41
  -2   8   2        4.66      0.34
  -1   8   2       29.94      1.34
   0   8   2       16.61      1.13
   1   8   2       17.06      1.03
   2   8   2       11.00      0.68
   3   8   2       26.82      1.17
   4   8   2        5.93      0.38
   5   8   2       19.81      1.02
   6   8   2       35.75      1.49
   7   8   2       47.68      1.69
   8   8   2        4.44      0.34
   9   8   2       17.88      1.22
  10   8   2        1.50      0.22
  11   8   2        1.15      0.16
  12   8   2       12.98      1.33
  13   8   2        8.79      1.02
  14   8   2        3.70      0.55
  15   8   2        2.18      0.38
  16   8   2        5.27      0.92
 -15   9   2        0.66      0.25
 -14   9   2        0.18      0.14
 -13   9   2        3.42      0.49
 -12   9   2        9.65      1.32
 -11   9   2        0.81      0.18
 -10   9   2        3.50      0.41
  -9   9   2       14.03      1.25
  -8   9   2       32.11      2.29
  -7   9   2       11.75      0.98
  -6   9   2       13.52      1.09
  -5   9   2        4.93      0.41
  -4   9   2       19.05      1.26
  -3   9   2       15.42      1.23
  -2   9   2        3.50      0.32
  -1   9   2       19.07      1.46
   0   9   2       33.54      1.98
   1   9   2       14.13      1.34
   2   9   2       26.58      1.89
   3   9   2        3.61      0.33
   4   9   2       29.19      1.72
   5   9   2       32.58      1.98
   6   9   2       22.90      1.57
   7   9   2       27.69      1.96
   8   9   2       18.70      2.01
   9   9   2        2.92      0.35
  10   9   2        1.84      0.24
  11   9   2        4.49      0.58
  12   9   2       27.06      3.41
  13   9   2        0.56      0.12
  14   9   2        2.53      0.48
 -12  10   2        4.51      0.76
 -11  10   2        0.67      0.16
 -10  10   2       16.91      2.34
  -9  10   2        8.80      1.16
  -8  10   2        0.71      0.22
  -7  10   2        3.23      0.40
  -6  10   2        6.27      0.73
  -5  10   2        1.86      0.21
  -4  10   2        5.72      0.71
  -3  10   2       21.61      2.19
  -2  10   2       16.10      2.16
  -1  10   2        3.94      0.50
   0  10   2       13.33      1.76
   1  10   2        6.99      1.01
   2  10   2       11.22      1.42
   3  10   2        6.99      0.91
   4  10   2        6.37      0.68
   5  10   2        4.64      0.55
   6  10   2        9.20      1.06
   7  10   2        6.34      0.79
   8  10   2        0.25      0.16
   9  10   2        4.75      0.66
  10  10   2       12.19      1.85
  11  10   2        4.48      0.73
  -7  11   2        2.41      0.44
  -6  11   2        5.74      0.89
  -5  11   2        4.22      0.64
  -4  11   2        2.96      0.44
  -3  11   2        1.78      0.32
  -2  11   2        1.86      0.44
  -1  11   2       15.26      2.87
   0  11   2        1.13      0.45
   1  11   2       24.64      5.11
   2  11   2       16.16      2.65
   3  11   2        1.50      0.34
   4  11   2        7.90      1.19
   5  11   2        7.43      1.16
   6  11   2        5.32      0.87
   7  11   2        1.99      0.38
 -24   0   3        0.47      0.40
 -23   0   3        1.96      0.54
 -22   0   3        0.25      0.21
 -21   0   3       10.07      1.66
 -20   0   3        0.31      0.26
 -19   0   3        2.75      0.38
 -18   0   3        4.99      0.49
 -17   0   3        0.82      0.25
 -16   0   3        6.89      0.48
 -15   0   3      404.54     11.01
 -14   0   3        9.21      0.53
 -13   0   3       38.82      1.43
 -12   0   3      173.60      4.29
 -11   0   3      108.66      2.82
 -10   0   3       16.13      1.10
  -9   0   3       35.80      2.54
  -8   0   3       18.78      1.78
  -7   0   3       79.49      7.70
  -6   0   3     1015.11     24.85
  -5   0   3      315.12     33.47
  -4   0   3       81.14     14.76
  -3   0   3        2.18      0.43
  -2   0   3       75.24     19.48
  -1   0   3      655.53    268.83
   0   0   3      572.32    197.21
   1   0   3      125.50     29.75
   2   0   3       16.66      3.26
   3   0   3     1004.22     88.32
   4   0   3      370.17     34.00
   5   0   3      186.11     16.08
   6   0   3      649.49     15.87
   7   0   3       60.81      4.51
   8   0   3      111.89      3.82
   9   0   3      252.01      6.26
  10   0   3        1.47      0.11
  11   0   3       49.86      1.58
  12   0   3      313.86      8.89
  13   0   3        0.21      0.11
  14   0   3       14.15      0.91
  15   0   3       65.12      1.70
  16   0   3       23.33      1.65
  17   0   3       36.53      2.22
  18   0   3        7.36      0.91
  19   0   3        7.36      1.12
  20   0   3        0.59      0.43
  21   0   3        6.15      1.28
  22   0   3        1.40      0.36
  23   0   3        0.02      0.01
 -24   1   3        7.65      1.55
 -23   1   3        5.24      0.81
 -22   1   3        0.92      0.18
 -21   1   3        7.09      0.85
 -20   1   3        2.69      0.28
 -19   1   3       15.91      1.28
 -18   1   3       31.98      1.51
 -17   1   3        2.56      0.18
 -16   1   3       91.08      2.48
 -15   1   3       21.10      0.81
 -14   1   3       78.18      2.07
 -13   1   3       23.51      0.85
 -12   1   3       35.64      1.21
 -11   1   3      298.93      7.07
 -10   1   3       59.34      2.01
  -9   1   3       36.35      1.88
  -8   1   3      179.16      4.47
  -7   1   3      251.01      6.62
  -6   1   3      118.40      8.80
  -5   1   3       36.62      3.71
  -4   1   3      337.36     34.04
  -3   1   3      217.97     26.71
  -2   1   3      820.75    125.91
  -1   1   3      141.50     20.81
   0   1   3      779.21    131.50
   1   1   3      914.52    120.66
   2   1   3     1979.07     56.58
   3   1   3      196.93     19.28
   4   1   3      444.50     20.01
   5   1   3      496.74     11.67
   6   1   3      379.92      8.96
   7   1   3       88.30      4.05
   8   1   3      141.44      3.31
   9   1   3       84.32      2.25
  10   1   3       20.90      0.89
  11   1   3       13.48      0.61
  12   1   3       33.37      1.04
  13   1   3       26.55      0.97
  14   1   3       59.79      1.56
  15   1   3        5.89      0.31
  16   1   3       37.89      1.45
  17   1   3       45.95      1.87
  18   1   3       12.85      1.05
  19   1   3        6.56      0.76
  20   1   3       29.02      2.91
  21   1   3        8.35      1.07
  22   1   3       28.38      4.52
 -23   2   3       15.47      2.23
 -22   2   3        1.43      0.20
 -21   2   3       20.27      2.22
 -20   2   3       16.02      1.42
 -19   2   3       12.43      0.94
 -18   2   3       19.33      1.21
 -17   2   3        1.55      0.16
 -16   2   3       12.66      0.64
 -15   2   3       41.58      1.21
 -14   2   3       26.40      0.92
 -13   2   3        2.74      0.15
 -12   2   3        4.60      0.21
 -11   2   3       42.51      1.34
 -10   2   3      121.37      2.98
  -9   2   3        9.40      0.51
  -8   2   3      233.06      5.52
  -7   2   3       22.59      1.50
  -6   2   3      488.71     11.59
  -5   2   3      174.38      9.77
  -4   2   3      266.78     15.41
  -3   2   3      190.74     16.46
  -2   2   3       61.83      6.74
  -1   2   3       87.46      9.72
   0   2   3      164.13     19.63
   1   2   3      156.23     15.70
   2   2   3      864.07     20.37
   3   2   3      154.38     12.12
   4   2   3      290.83      9.64
   5   2   3      238.67      6.26
   6   2   3      274.47      6.57
   7   2   3       19.13      1.11
   8   2   3       72.68      2.35
   9   2   3       88.49      2.19
  10   2   3        1.41      0.12
  11   2   3       72.29      1.71
  12   2   3       12.99      0.53
  13   2   3        0.91      0.13
  14   2   3       59.92      1.67
  15   2   3        6.70      0.37
  16   2   3       19.81      1.06
  17   2   3       23.00      1.35
  18   2   3        3.03      0.28
  19   2   3        2.95      0.30
  20   2   3        4.11      0.51
  21   2   3       19.40      2.62
  22   2   3        1.26      0.26
 -23   3   3        1.56      0.27
 -22   3   3       11.27      1.51
 -21   3   3       22.47      2.52
 -20   3   3        0.11      0.11
 -19   3   3        8.70      0.77
 -18   3   3       14.66      1.47
 -17   3   3        0.28      0.24
 -16   3   3       32.23      1.41
 -15   3   3       25.59      1.11
 -14   3   3        9.82      0.49
 -13   3   3       15.26      0.63
 -12   3   3       27.39      0.91
 -11   3   3      118.25      2.90
 -10   3   3       16.61      0.70
  -9   3   3       31.10      1.22
  -8   3   3      360.38      8.51
  -7   3   3       60.23      2.51
  -6   3   3       29.44      1.68
  -5   3   3       80.60      4.12
  -4   3   3       95.07      5.05
  -3   3   3       35.63      2.62
  -2   3   3       11.77      1.05
  -1   3   3      904.95     21.66
   0   3   3      229.09     10.75
   1   3   3       25.90      2.10
   2   3   3      363.90      8.58
   3   3   3      242.68      5.68
   4   3   3      186.04      4.56
   5   3   3      232.82      5.49
   6   3   3      318.73      7.56
   7   3   3      142.44      3.43
   8   3   3       74.99      1.82
   9   3   3       63.38      1.55
  10   3   3       12.08      0.51
  11   3   3       69.35      1.63
  12   3   3        9.68      0.45
  13   3   3        0.52      0.12
  14   3   3       23.16      1.03
  15   3   3        3.21      0.26
  16   3   3        6.92      0.65
  17   3   3        4.04      0.36
  18   3   3        5.39      0.55
  19   3   3       10.65      1.14
  20   3   3        0.31      0.16
  21   3   3        3.02      0.45
  22   3   3        8.67      1.43
 -22   4   3        6.25      0.96
 -21   4   3        4.12      0.71
 -20   4   3        0.15      0.14
 -19   4   3       21.28      2.14
 -18   4   3        7.57      0.66
 -17   4   3        0.98      0.17
 -16   4   3        1.27      0.16
 -15   4   3        4.04      0.29
 -14   4   3       21.03      0.98
 -13   4   3       17.22      0.75
 -12   4   3       97.80      2.36
 -11   4   3       37.55      1.11
 -10   4   3       98.64      2.34
  -9   4   3      165.96      3.89
  -8   4   3      129.36      3.14
  -7   4   3        4.33      0.22
  -6   4   3      184.29      4.35
  -5   4   3      244.27      5.81
  -4   4   3       43.87      2.03
  -3   4   3        9.55      0.58
  -2   4   3      152.58      3.65
  -1   4   3      161.40      3.87
   0   4   3       30.59      1.97
   1   4   3      100.33      3.55
   2   4   3      202.24      4.87
   3   4   3       42.92      2.02
   4   4   3       63.32      2.25
   5   4   3      195.05      4.60
   6   4   3       55.84      1.67
   7   4   3        2.69      0.14
   8   4   3      119.54      2.95
   9   4   3       63.00      1.62
  10   4   3       79.37      1.96
  11   4   3       12.92      0.58
  12   4   3        3.16      0.16
  13   4   3       31.40      1.17
  14   4   3        4.49      0.31
  15   4   3        1.21      0.11
  16   4   3       14.42      1.15
  17   4   3        1.38      0.15
  18   4   3        3.59      0.45
  19   4   3        0.18      0.20
  20   4   3        4.95      0.72
  21   4   3        7.85      1.36
 -21   5   3        0.64      0.28
 -20   5   3        3.48      0.53
 -19   5   3        0.26      0.29
 -18   5   3        8.07      0.92
 -17   5   3       38.74      2.33
 -16   5   3       13.90      0.98
 -15   5   3        9.04      0.61
 -14   5   3       36.83      1.45
 -13   5   3       89.63      2.34
 -12   5   3       66.52      1.70
 -11   5   3       14.55      0.65
 -10   5   3       30.41      0.97
  -9   5   3       13.37      0.55
  -8   5   3       62.29      1.47
  -7   5   3       24.88      0.90
  -6   5   3       97.11      2.29
  -5   5   3       46.57      1.39
  -4   5   3      129.47      3.05
  -3   5   3      219.09      5.26
  -2   5   3        5.39      0.28
  -1   5   3       66.19      1.97
   0   5   3       74.80      2.01
   1   5   3       56.56      1.79
   2   5   3       21.34      0.92
   3   5   3       71.36      1.72
   4   5   3        8.51      0.40
   5   5   3       37.84      1.23
   6   5   3       22.98      0.85
   7   5   3        8.77      0.38
   8   5   3       57.73      1.43
   9   5   3       61.69      1.61
  10   5   3        5.60      0.27
  11   5   3       54.40      1.52
  12   5   3        0.42      0.15
  13   5   3        2.89      0.19
  14   5   3       38.26      1.61
  15   5   3       28.35      1.69
  16   5   3        1.84      0.20
  17   5   3        5.66      0.69
  18   5   3       25.26      2.86
  19   5   3       16.42      2.49
  20   5   3        3.39      0.75
 -20   6   3        1.44      0.24
 -19   6   3        2.46      0.38
 -18   6   3        3.12      0.41
 -17   6   3        5.82      0.60
 -16   6   3        1.67      0.20
 -15   6   3       54.49      2.17
 -14   6   3       36.42      1.96
 -13   6   3        4.72      0.33
 -12   6   3       29.21      1.26
 -11   6   3        7.17      0.41
 -10   6   3       22.94      0.92
  -9   6   3        8.21      0.39
  -8   6   3       21.94      0.82
  -7   6   3       23.54      0.88
  -6   6   3       41.97      1.13
  -5   6   3        4.97      0.23
  -4   6   3       46.67      1.21
  -3   6   3       95.93      2.32
  -2   6   3       28.18      1.04
  -1   6   3       71.77      1.74
   0   6   3       28.15      1.10
   1   6   3       56.20      1.34
   2   6   3      133.33      3.27
   3   6   3       19.29      0.75
   4   6   3       63.37      1.49
   5   6   3       26.35      0.90
   6   6   3       40.88      1.11
   7   6   3        9.86      0.45
   8   6   3       10.34      0.50
   9   6   3        2.50      0.14
  10   6   3        0.41      0.14
  11   6   3       17.90      0.92
  12   6   3       42.61      1.67
  13   6   3        2.55      0.22
  14   6   3        5.31      0.47
  15   6   3       53.03      2.39
  16   6   3       13.15      1.29
  17   6   3        5.73      0.71
  18   6   3       49.17      4.88
  19   6   3       19.28      3.83
 -19   7   3        6.05      1.01
 -18   7   3        7.04      1.16
 -17   7   3       33.94      3.73
 -16   7   3        2.28      0.30
 -15   7   3       17.64      1.56
 -14   7   3       14.88      1.20
 -13   7   3       39.38      2.07
 -12   7   3        3.21      0.29
 -11   7   3        2.72      0.19
 -10   7   3        4.29      0.28
  -9   7   3        4.59      0.28
  -8   7   3        4.60      0.26
  -7   7   3       18.56      0.82
  -6   7   3        0.85      0.12
  -5   7   3       33.16      1.06
  -4   7   3       36.99      1.08
  -3   7   3        8.20      0.41
  -2   7   3       16.34      0.81
  -1   7   3       15.26      0.76
   0   7   3       15.63      0.80
   1   7   3       13.38      0.68
   2   7   3      180.95      4.50
   3   7   3       24.27      0.92
   4   7   3        5.80      0.29
   5   7   3      106.28      2.76
   6   7   3       38.19      1.19
   7   7   3        9.45      0.51
   8   7   3       22.74      1.05
   9   7   3       32.24      1.35
  10   7   3        1.41      0.24
  11   7   3        7.39      0.63
  12   7   3       11.67      0.98
  13   7   3       21.49      1.71
  14   7   3        1.16      0.14
  15   7   3        1.33      0.21
  16   7   3        3.46      0.53
  17   7   3        0.98      0.24
  18   7   3        0.28      0.17
 -17   8   3        7.50      1.24
 -16   8   3        2.41      0.37
 -15   8   3        2.45      0.40
 -14   8   3       17.81      1.99
 -13   8   3        9.66      1.02
 -12   8   3        1.02      0.20
 -11   8   3        1.21      0.18
 -10   8   3       17.54      1.23
  -9   8   3        8.22      0.62
  -8   8   3       32.01      1.53
  -7   8   3       51.65      1.54
  -6   8   3       29.91      1.32
  -5   8   3       24.79      1.18
  -4   8   3       33.88      1.28
  -3   8   3        7.11      0.47
  -2   8   3        2.89      0.20
  -1   8   3        7.22      0.50
   0   8   3        2.14      0.15
   1   8   3        2.19      0.21
   2   8   3       16.27      1.01
   3   8   3        0.47      0.16
   4   8   3       37.69      1.38
   5   8   3       36.85      1.44
   6   8   3       12.29      0.79
   7   8   3       17.29      1.17
   8   8   3       45.38      1.89
   9   8   3        8.66      0.71
  10   8   3        9.81      0.87
  11   8   3        7.62      0.90
  12   8   3        6.22      0.70
  13   8   3        4.36      0.54
  14   8   3        1.56      0.26
  15   8   3        1.24      0.30
  16   8   3        9.54      1.48
 -15   9   3        1.77      0.37
 -14   9   3        7.62      1.13
 -13   9   3        0.44      0.11
 -12   9   3        8.34      1.08
 -11   9   3       36.20      3.94
 -10   9   3        7.64      0.82
  -9   9   3        6.32      0.65
  -8   9   3       67.85      2.23
  -7   9   3        9.57      0.80
  -6   9   3        6.87      0.59
  -5   9   3        1.99      0.17
  -4   9   3       38.87      2.37
  -3   9   3        6.16      0.54
  -2   9   3       18.66      1.59
  -1   9   3       34.96      2.26
   0   9   3        6.23      0.66
   1   9   3        0.86      0.21
   2   9   3       12.65      1.27
   3   9   3       33.16      1.93
   4   9   3       34.22      1.98
   5   9   3        5.66      0.52
   6   9   3       24.92      1.85
   7   9   3       10.58      1.01
   8   9   3        4.86      0.50
   9   9   3        3.56      0.42
  10   9   3        3.69      0.48
  11   9   3        0.12      0.09
  12   9   3        7.31      1.09
  13   9   3        0.51      0.16
  14   9   3       15.24      2.57
 -12  10   3        5.11      1.03
 -11  10   3        3.68      0.65
 -10  10   3       14.21      2.00
  -9  10   3        5.08      0.71
  -8  10   3        4.82      0.61
  -7  10   3       16.28      1.92
  -6  10   3       11.15      1.24
  -5  10   3       11.19      1.21
  -4  10   3        2.27      0.28
  -3  10   3       10.86      1.35
  -2  10   3       28.19      2.82
  -1  10   3       14.42      1.76
   0  10   3        2.45      0.34
   1  10   3       55.16      4.27
   2  10   3        0.24      0.16
   3  10   3        8.00      0.98
   4  10   3        9.61      1.05
   5  10   3        1.62      0.19
   6  10   3       14.16      1.84
   7  10   3       12.22      1.50
   8  10   3        3.03      0.43
   9  10   3       34.87      4.05
  10  10   3        1.42      0.28
  11  10   3        0.68      0.19
  -7  11   3        1.76      0.31
  -6  11   3        3.31      0.56
  -5  11   3        2.22      0.35
  -4  11   3        0.53      0.17
  -3  11   3        6.12      1.09
  -2  11   3        0.95      0.21
  -1  11   3        0.72      0.18
   0  11   3       10.55      2.54
   1  11   3        1.08      0.39
   2  11   3        2.99      0.59
   3  11   3       11.55      1.88
   4  11   3       12.81      2.00
   5  11   3       11.22      1.77
   6  11   3        1.76      0.26
 -24   0   4        6.15      2.16
 -23   0   4        2.77      0.62
 -22   0   4        5.14      1.10
 -21   0   4        0.29      0.16
 -20   0   4        3.04      0.44
 -19   0   4       15.63      1.54
 -18   0   4        7.45      0.66
 -17   0   4        0.23      0.19
 -16   0   4        9.40      0.63
 -15   0   4        5.23      0.34
 -14   0   4       24.70      1.11
 -13   0   4       47.71      1.36
 -12   0   4       90.58      2.70
 -11   0   4        7.28      0.48
 -10   0   4      362.08      9.26
  -9   0   4      286.93      7.12
  -8   0   4       25.56      2.23
  -7   0   4      757.82     18.78
  -6   0   4       19.58      2.43
  -5   0   4      107.89     13.52
  -4   0   4      214.03     29.08
  -3   0   4        0.21      0.08
  -2   0   4      144.89     31.80
  -1   0   4      257.69     58.85
   0   0   4      792.20    208.49
   1   0   4      188.32     38.33
   2   0   4        1.55      0.29
   3   0   4       26.54      3.94
   4   0   4       46.17      5.73
   5   0   4      111.50     10.18
   6   0   4       49.36      4.50
   7   0   4      101.80      4.69
   8   0   4       20.31      1.46
   9   0   4       85.44      2.28
  10   0   4       53.58      1.77
  11   0   4      147.76      4.00
  12   0   4       69.27      1.88
  13   0   4       60.90      1.82
  14   0   4       16.50      1.05
  15   0   4       23.85      1.41
  17   0   4        6.63      0.76
  18   0   4        0.55      0.17
  19   0   4        0.80      0.27
  20   0   4       12.00      2.12
  21   0   4       10.29      2.16
  22   0   4        8.90      2.48
 -24   1   4        5.32      0.95
 -23   1   4        0.80      0.16
 -22   1   4        3.54      0.49
 -21   1   4        0.52      0.14
 -20   1   4        4.71      0.45
 -19   1   4        1.78      0.21
 -18   1   4       18.52      1.06
 -17   1   4        1.46      0.14
 -16   1   4       11.32      0.57
 -15   1   4       16.44      0.68
 -14   1   4       11.65      0.50
 -13   1   4      128.56      3.29
 -12   1   4       60.29      1.48
 -11   1   4      114.33      2.81
 -10   1   4        0.03      0.03
  -9   1   4      159.92      3.84
  -8   1   4      316.44      7.50
  -7   1   4      340.42      8.84
  -6   1   4       34.33      2.76
  -5   1   4       42.99      3.88
  -4   1   4     1452.76     34.30
  -3   1   4     1096.82     37.29
  -2   1   4      351.34     45.18
  -1   1   4       25.13      3.57
   0   1   4      326.89     42.16
   1   1   4     1646.12     38.83
   2   1   4      828.10     29.85
   3   1   4      175.02     14.93
   4   1   4        3.37      0.33
   5   1   4      299.97      7.05
   6   1   4       93.77      4.42
   7   1   4       57.00      2.65
   8   1   4       24.47      1.27
   9   1   4       88.68      2.11
  10   1   4       57.92      1.54
  11   1   4       15.16      0.63
  12   1   4       21.22      0.80
  13   1   4        1.83      0.17
  14   1   4       40.67      1.19
  15   1   4        1.94      0.14
  16   1   4        1.45      0.21
  17   1   4       16.72      1.14
  18   1   4       23.47      1.70
  19   1   4       13.39      1.42
  20   1   4        2.87      0.39
  21   1   4       13.02      1.76
  22   1   4        3.01      0.58
 -23   2   4        2.25      0.37
 -22   2   4       15.28      1.82
 -21   2   4        2.52      0.31
 -20   2   4       19.28      1.60
 -19   2   4       12.53      1.00
 -18   2   4        6.61      0.48
 -17   2   4       24.04      1.15
 -16   2   4       22.60      1.03
 -15   2   4        2.67      0.14
 -14   2   4       33.67      1.03
 -13   2   4       11.58      0.49
 -12   2   4        5.55      0.25
 -11   2   4       27.92      1.03
 -10   2   4       20.10      0.91
  -9   2   4       38.69      1.67
  -8   2   4        5.55      0.36
  -7   2   4       24.04      1.55
  -6   2   4        6.87      0.52
  -5   2   4      100.54      6.45
  -4   2   4      233.48     13.12
  -3   2   4      249.87     16.90
  -2   2   4      425.88     22.49
  -1   2   4      283.01     22.42
   0   2   4      273.24     19.51
   1   2   4      918.64     22.08
   2   2   4       23.71      2.17
   3   2   4       27.26      2.34
   4   2   4      676.41     15.90
   5   2   4       87.18      4.27
   6   2   4       93.93      3.61
   7   2   4      339.30      8.00
   8   2   4       38.96      1.54
   9   2   4      114.49      2.78
  10   2   4       66.07      1.62
  11   2   4        0.82      0.14
  12   2   4       52.95      1.28
  13   2   4       28.88      1.00
  14   2   4        0.73      0.16
  15   2   4        6.62      0.39
  16   2   4       28.87      1.49
  17   2   4        6.41      0.49
  18   2   4        6.15      0.52
  19   2   4        6.22      0.63
  20   2   4        4.46      0.57
  21   2   4       22.62      3.06
  22   2   4        1.83      0.29
 -23   3   4        3.68      0.61
 -22   3   4       21.09      2.85
 -21   3   4       15.85      1.76
 -20   3   4        2.87      0.29
 -19   3   4       37.06      2.43
 -18   3   4       33.68      2.54
 -17   3   4        1.68      0.26
 -16   3   4        8.40      0.57
 -15   3   4       98.96      2.76
 -14   3   4        9.64      0.47
 -13   3   4       22.17      0.84
 -12   3   4       34.94      1.07
 -11   3   4       12.56      0.53
 -10   3   4       12.88      0.57
  -9   3   4       79.23      1.86
  -8   3   4      114.82      2.81
  -7   3   4       61.48      2.33
  -6   3   4       32.33      1.76
  -5   3   4       19.68      1.28
  -4   3   4       37.85      2.39
  -3   3   4      128.04      6.06
  -2   3   4        4.53      0.38
  -1   3   4      124.01      7.63
   0   3   4        7.06      0.58
   1   3   4       39.66      2.87
   2   3   4       80.26      4.59
   3   3   4       30.08      1.90
   4   3   4      155.56      3.83
   5   3   4      150.06      3.58
   6   3   4       71.15      2.28
   7   3   4       47.02      1.68
   8   3   4      187.28      4.43
   9   3   4       21.57      0.84
  10   3   4        8.34      0.37
  11   3   4       32.98      1.03
  12   3   4       17.03      0.70
  13   3   4       15.62      0.72
  14   3   4       44.06      1.42
  15   3   4       10.87      0.75
  16   3   4       13.73      1.00
  17   3   4        1.20      0.32
  18   3   4       17.58      1.98
  19   3   4        1.92      0.26
  20   3   4        4.69      0.66
  21   3   4        6.33      0.98
 -22   4   4        9.87      1.40
 -21   4   4        7.93      1.20
 -20   4   4       11.82      1.47
 -19   4   4       16.56      1.72
 -18   4   4       17.78      1.34
 -17   4   4        9.86      0.92
 -16   4   4       16.02      1.25
 -15   4   4       51.45      1.67
 -14   4   4       23.82      1.12
 -13   4   4       33.68      1.10
 -12   4   4      154.52      3.66
 -11   4   4      112.25      2.64
 -10   4   4       42.18      1.21
  -9   4   4      118.52      2.81
  -8   4   4        5.50      0.26
  -7   4   4      152.28      3.57
  -6   4   4      154.10      3.82
  -5   4   4       50.63      1.97
  -4   4   4      279.86      6.62
  -3   4   4       43.20      2.07
  -2   4   4       51.89      2.48
  -1   4   4      189.03      4.55
   0   4   4       45.76      2.31
   1   4   4       33.31      1.70
   2   4   4        5.48      0.32
   3   4   4       77.87      2.47
   4   4   4      105.36      2.47
   5   4   4       13.75      0.66
   6   4   4        3.05      0.16
   7   4   4       28.51      1.06
   8   4   4      195.19      4.61
   9   4   4        4.94      0.23
  10   4   4        8.38      0.39
  11   4   4       28.68      0.99
  12   4   4        1.10      0.10
  13   4   4        0.72      0.14
  14   4   4        2.70      0.22
  15   4   4       26.70      1.55
  16   4   4       30.57      1.87
  17   4   4       13.39      1.27
  18   4   4       10.32      1.21
  19   4   4        7.36      1.01
  20   4   4        2.91      0.50
  21   4   4        2.87      0.57
 -21   5   4       10.41      1.93
 -20   5   4        1.91      0.29
 -19   5   4       16.60      1.99
 -18   5   4        0.53      0.24
 -17   5   4        6.51      0.54
 -16   5   4        8.42      0.70
 -15   5   4       15.52      0.94
 -14   5   4        0.60      0.14
 -13   5   4       13.43      0.67
 -12   5   4       29.09      1.03
 -11   5   4       55.40      1.35
 -10   5   4        0.32      0.12
  -9   5   4       10.75      0.47
  -8   5   4      131.17      3.13
  -7   5   4        4.40      0.20
  -6   5   4       18.39      0.74
  -5   5   4       21.90      0.88
  -4   5   4       34.29      1.22
  -3   5   4      115.33      2.94
  -2   5   4       33.30      1.44
  -1   5   4       16.56      0.94
   0   5   4      114.85      2.75
   1   5   4       59.09      1.73
   2   5   4        1.85      0.16
   3   5   4       30.23      1.16
   4   5   4       26.77      0.98
   5   5   4       67.68      1.66
   6   5   4       39.90      1.16
   7   5   4        1.91      0.13
   8   5   4       40.08      1.11
   9   5   4       39.92      1.12
  10   5   4        9.17      0.45
  11   5   4       18.91      0.86
  12   5   4       26.99      1.13
  13   5   4        2.22      0.15
  14   5   4        7.14      0.52
  15   5   4        3.43      0.28
  16   5   4        0.70      0.20
  17   5   4       14.44      1.80
  18   5   4       24.48      3.19
  19   5   4       20.79      3.09
  20   5   4        6.02      1.22
 -20   6   4        6.84      1.42
 -19   6   4        6.37      1.10
 -18   6   4        4.12      0.51
 -17   6   4        9.27      0.97
 -16   6   4       20.75      1.61
 -15   6   4        9.03      0.77
 -14   6   4        1.93      0.28
 -13   6   4       60.16      1.52
 -12   6   4        3.06      0.19
 -11   6   4       50.40      1.57
 -10   6   4       73.23      1.96
  -9   6   4       73.52      1.92
  -8   6   4       10.26      0.46
  -7   6   4       21.49      0.81
  -6   6   4      161.61      4.12
  -5   6   4       81.51      1.95
  -4   6   4        0.06      0.06
  -3   6   4       12.85      0.54
  -2   6   4       38.36      1.21
  -1   6   4       40.55      1.27
   0   6   4       13.14      0.62
   1   6   4       81.23      1.91
   2   6   4        5.99      0.29
   3   6   4       40.11      1.11
   4   6   4      174.01      4.23
   5   6   4       47.15      1.20
   6   6   4       18.39      0.74
   7   6   4        9.75      0.44
   8   6   4       31.21      1.05
   9   6   4        5.82      0.33
  10   6   4        4.16      0.26
  11   6   4       44.99      1.55
  12   6   4        0.57      0.19
  13   6   4        4.65      0.44
  14   6   4       14.58      1.19
  15   6   4        0.88      0.18
  16   6   4        6.01      0.68
  17   6   4       18.79      2.34
  18   6   4        1.73      0.28
  19   6   4        0.52      0.29
 -19   7   4        1.57      0.31
 -18   7   4       10.93      1.60
 -17   7   4        1.13      0.16
 -16   7   4        2.98      0.36
 -15   7   4        0.80      0.17
 -14   7   4       26.31      2.25
 -13   7   4       25.04      1.80
 -12   7   4        6.07      0.53
 -11   7   4       81.20      2.21
 -10   7   4       10.38      0.67
  -9   7   4        7.88      0.47
  -8   7   4       35.81      1.32
  -7   7   4       29.36      1.09
  -6   7   4        4.84      0.26
  -5   7   4       40.51      1.16
  -4   7   4       28.09      0.99
  -3   7   4        1.92      0.14
  -2   7   4        6.68      0.36
  -1   7   4       31.16      1.14
   0   7   4       19.17      0.91
   1   7   4       38.38      1.15
   2   7   4       30.93      1.06
   3   7   4       20.34      0.84
   4   7   4        2.05      0.18
   5   7   4       24.14      1.06
   6   7   4       11.91      0.61
   7   7   4       25.32      1.12
   8   7   4        4.11      0.28
   9   7   4       80.54      2.19
  10   7   4       45.18      1.69
  11   7   4        7.45      0.65
  12   7   4       24.05      1.93
  13   7   4       12.44      1.17
  14   7   4       14.10      1.48
  15   7   4       12.50      1.58
  16   7   4        0.62      0.22
  17   7   4        3.99      0.79
 -17   8   4       13.71      2.48
 -16   8   4       14.76      2.15
 -15   8   4        6.60      0.95
 -14   8   4        7.73      1.01
 -13   8   4        3.08      0.33
 -12   8   4       10.40      1.03
 -11   8   4        8.30      0.78
 -10   8   4        5.33      0.44
  -9   8   4       40.45      1.95
  -8   8   4       13.27      0.92
  -7   8   4        3.46      0.25
  -6   8   4        9.28      0.60
  -5   8   4        9.13      0.55
  -4   8   4        9.17      0.55
  -3   8   4       19.17      1.10
  -2   8   4        1.17      0.15
  -1   8   4       48.62      1.52
   0   8   4       22.33      1.28
   1   8   4        1.95      0.16
   2   8   4       18.58      1.04
   3   8   4       29.45      1.36
   4   8   4       16.55      0.94
   5   8   4       33.49      1.47
   6   8   4       29.20      1.44
   7   8   4       40.61      1.88
   8   8   4        2.67      0.23
   9   8   4       23.76      1.70
  10   8   4       25.48      1.93
  11   8   4       27.51      2.22
  12   8   4        8.83      1.04
  13   8   4       24.89      2.85
  14   8   4       10.83      1.70
  15   8   4       10.29      1.96
  16   8   4        1.20      0.26
 -15   9   4        3.80      0.77
 -14   9   4       20.06      2.76
 -13   9   4        0.76      0.18
 -12   9   4        2.00      0.27
 -11   9   4        4.65      0.60
 -10   9   4       10.57      1.14
  -9   9   4       19.32      1.71
  -8   9   4       12.09      1.13
  -7   9   4        2.67      0.24
  -6   9   4       16.65      1.30
  -5   9   4        1.98      0.19
  -4   9   4        1.96      0.28
  -3   9   4       15.16      1.30
  -2   9   4       27.85      2.01
  -1   9   4       15.87      1.34
   0   9   4       13.80      1.26
   1   9   4       47.09      2.41
   2   9   4        4.25      0.44
   3   9   4       19.86      1.46
   4   9   4        3.48      0.31
   5   9   4        1.05      0.12
   6   9   4        7.29      0.73
   7   9   4        3.81      0.44
   8   9   4        1.52      0.23
   9   9   4        1.72      0.21
  10   9   4        1.46      0.20
  11   9   4       14.01      1.91
  12   9   4        1.57      0.30
  13   9   4        0.17      0.13
 -12  10   4        8.14      1.53
 -11  10   4       16.85      2.63
 -10  10   4       12.25      1.72
  -9  10   4       13.86      1.95
  -8  10   4        0.15      0.11
  -7  10   4       13.56      1.64
  -6  10   4       19.67      2.14
  -5  10   4        5.26      0.60
  -4  10   4       11.35      1.57
  -3  10   4        2.66      0.35
  -2  10   4        8.83      1.04
  -1  10   4       19.17      2.44
   0  10   4        7.59      1.11
   1  10   4        0.27      0.08
   2  10   4        5.43      0.75
   3  10   4        5.64      0.78
   4  10   4        3.03      0.39
   5  10   4        2.65      0.33
   6  10   4        9.93      1.21
   7  10   4        6.40      0.92
   8  10   4        8.49      1.17
   9  10   4        6.16      0.96
  10  10   4        2.20      0.40
  -7  11   4        8.87      1.54
  -6  11   4       18.76      2.76
  -5  11   4        1.48      0.25
  -4  11   4        8.04      1.49
  -3  11   4        8.16      1.58
  -2  11   4       16.12      3.65
  -1  11   4       11.73      2.76
   0  11   4        1.20      0.26
   1  11   4        4.71      0.98
   2  11   4        6.11      1.17
   3  11   4        2.46      0.46
   4  11   4        0.99      0.23
   5  11   4       11.95      1.84
   6  11   4       13.39      2.64
 -24   0   5       30.54      8.38
 -23   0   5        3.01      0.74
 -22   0   5        0.34      0.17
 -21   0   5       18.06      2.72
 -20   0   5        4.72      0.67
 -19   0   5        3.58      0.40
 -18   0   5       11.74      1.14
 -17   0   5        1.77      0.25
 -16   0   5       42.75      1.39
 -15   0   5       25.00      1.15
 -14   0   5        6.15      0.37
 -13   0   5        8.42      0.51
 -12   0   5      174.33      4.77
 -11   0   5        0.10      0.10
 -10   0   5       13.04      0.89
  -9   0   5      191.84      4.70
  -8   0   5      392.64      9.59
  -7   0   5      108.13      7.10
  -6   0   5        3.12      0.36
  -5   0   5     1607.07     39.28
  -4   0   5     1713.83     45.29
  -3   0   5      274.56     38.17
  -2   0   5     2417.62     62.18
  -1   0   5     1401.26     41.48
   0   0   5      683.55     78.95
   1   0   5      186.31     31.22
   2   0   5       50.38      7.48
   3   0   5      459.15     15.04
   4   0   5     1020.58     25.15
   5   0   5      459.31     11.36
   6   0   5       16.26      1.41
   7   0   5       76.61      3.54
   8   0   5      325.90      8.09
   9   0   5       24.93      1.33
  10   0   5        0.85      0.19
  11   0   5       30.63      1.23
  12   0   5       39.89      1.32
  13   0   5        0.12      0.12
  14   0   5       13.34      0.93
  15   0   5        0.21      0.16
  16   0   5        8.53      0.88
  17   0   5       18.86      1.90
  18   0   5       52.05      3.16
  19   0   5        7.32      1.21
  20   0   5       78.80      4.62
  21   0   5       13.37      3.19
  22   0   5        1.69      0.61
 -24   1   5        0.71      0.22
 -23   1   5        1.13      0.25
 -22   1   5        3.23      0.45
 -21   1   5        1.41      0.21
 -20   1   5        0.39      0.11
 -19   1   5        1.49      0.14
 -18   1   5       40.68      1.65
 -17   1   5        4.90      0.32
 -16   1   5        6.28      0.34
 -15   1   5        5.71      0.29
 -14   1   5       35.90      1.07
 -13   1   5       31.56      1.02
 -12   1   5        0.87      0.14
 -11   1   5       78.40      1.89
 -10   1   5       28.95      1.27
  -9   1   5       31.97      1.56
  -8   1   5      255.98      6.10
  -7   1   5       82.57      4.19
  -6   1   5        1.01      0.09
  -5   1   5      213.52     11.13
  -4   1   5      136.16     11.36
  -3   1   5      157.94     14.56
  -2   1   5       86.63      9.28
  -1   1   5      293.84     29.81
   0   1   5      317.54     27.70
   1   1   5       37.89      4.27
   2   1   5      465.70     16.49
   3   1   5       69.07      6.88
   4   1   5       48.50      3.52
   5   1   5        3.44      0.26
   6   1   5       16.29      1.07
   7   1   5       30.10      1.54
   8   1   5       58.27      1.90
   9   1   5       51.31      1.55
  10   1   5       30.82      1.13
  11   1   5       77.92      1.84
  12   1   5        8.59      0.41
  13   1   5       36.05      1.15
  14   1   5       13.84      0.68
  15   1   5       36.19      1.37
  16   1   5       18.13      1.08
  17   1   5        3.89      0.33
  18   1   5       30.82      2.16
  19   1   5        0.37      0.15
  20   1   5        7.76      0.99
  21   1   5        6.96      1.13
  22   1   5        5.96      1.16
 -23   2   5        6.02      0.87
 -22   2   5        6.51      0.80
 -21   2   5        9.27      1.06
 -20   2   5        1.75      0.18
 -19   2   5        1.58      0.15
 -18   2   5        0.94      0.15
 -17   2   5        0.13      0.12
 -16   2   5       73.40      2.05
 -15   2   5       25.42      1.02
 -14   2   5        9.92      0.44
 -13   2   5      128.42      3.18
 -12   2   5       65.80      1.65
 -11   2   5      142.38      3.55
 -10   2   5      138.16      3.41
  -9   2   5       74.03      2.13
  -8   2   5       20.40      1.08
  -7   2   5      154.09      3.74
  -6   2   5      493.62     11.62
  -5   2   5       93.14      5.67
  -4   2   5       45.89      3.58
  -3   2   5      125.17      8.90
  -2   2   5      430.19     11.29
  -1   2   5      686.50     16.40
   0   2   5       26.32      2.32
   1   2   5       16.41      1.42
   2   2   5        5.23      0.45
   3   2   5      456.93     11.10
   4   2   5      117.61      5.08
   5   2   5       60.91      3.02
   6   2   5      267.69      6.32
   7   2   5      148.24      3.57
   8   2   5       78.79      1.92
   9   2   5      259.91      6.64
  10   2   5       29.61      1.00
  11   2   5       79.54      1.89
  12   2   5      103.08      2.42
  13   2   5       18.37      0.79
  14   2   5        5.22      0.29
  15   2   5       23.94      1.16
  16   2   5        3.43      0.24
  17   2   5        0.77      0.15
  18   2   5        1.25      0.18
  19   2   5        3.10      0.36
  20   2   5        2.45      0.31
  21   2   5        5.02      0.71
 -23   3   5       13.37      2.16
 -22   3   5       14.27      1.92
 -21   3   5       19.44      2.11
 -20   3   5        1.44      0.23
 -19   3   5        4.11      0.41
 -18   3   5        5.07      0.55
 -17   3   5        0.99      0.30
 -16   3   5        1.51      0.16
 -15   3   5        2.80      0.21
 -14   3   5        1.06      0.09
 -13   3   5        2.02      0.15
 -12   3   5       39.53      1.11
 -11   3   5       21.80      0.82
 -10   3   5       19.29      0.77
  -9   3   5       69.51      1.72
  -8   3   5      146.20      3.43
  -7   3   5       77.31      2.35
  -6   3   5        6.40      0.38
  -5   3   5      160.20      3.84
  -4   3   5       94.84      4.10
  -3   3   5       75.65      4.07
  -2   3   5       10.67      0.85
  -1   3   5       59.55      3.97
   0   3   5       71.36      4.24
   1   3   5       90.94      4.83
   2   3   5       60.45      3.19
   3   3   5       95.78      3.54
   4   3   5      127.86      3.12
   5   3   5       13.26      0.74
   6   3   5      116.48      2.85
   7   3   5      110.13      2.64
   8   3   5       42.17      1.33
   9   3   5       49.37      1.29
  10   3   5       14.29      0.58
  11   3   5       96.17      2.44
  12   3   5       11.47      0.56
  13   3   5       36.89      1.17
  14   3   5       10.38      0.67
  15   3   5        7.14      0.54
  16   3   5       10.53      0.84
  17   3   5        1.83      0.19
  18   3   5        1.25      0.13
  19   3   5        1.86      0.24
  20   3   5        1.95      0.29
  21   3   5        5.16      0.87
 -22   4   5        7.23      1.12
 -21   4   5        5.43      0.76
 -20   4   5        0.74      0.20
 -19   4   5        0.91      0.24
 -18   4   5        9.35      0.95
 -17   4   5        4.20      0.41
 -16   4   5       38.94      1.84
 -15   4   5       34.15      1.47
 -14   4   5        4.41      0.25
 -13   4   5        1.15      0.19
 -12   4   5       34.27      1.09
 -11   4   5      100.19      2.39
 -10   4   5       10.18      0.43
  -9   4   5       52.53      1.32
  -8   4   5       41.55      1.32
  -7   4   5       67.85      1.73
  -6   4   5      175.18      4.17
  -5   4   5       41.59      1.69
  -4   4   5       38.30      1.67
  -3   4   5        5.96      0.36
  -2   4   5       38.83      2.17
  -1   4   5      127.02      3.07
   0   4   5      184.11      4.32
   1   4   5      109.93      2.72
   2   4   5       17.64      0.92
   3   4   5      297.18      7.17
   4   4   5      126.39      3.01
   5   4   5       12.44      0.59
   6   4   5        4.93      0.24
   7   4   5        6.07      0.28
   8   4   5       92.22      2.36
   9   4   5        4.87      0.24
  10   4   5        8.49      0.40
  11   4   5       38.34      1.13
  12   4   5       27.90      1.05
  13   4   5        7.85      0.49
  14   4   5        3.63      0.27
  15   4   5       36.12      1.98
  16   4   5       17.36      1.43
  17   4   5        3.29      0.37
  18   4   5        3.44      0.45
  19   4   5        1.10      0.18
  20   4   5        1.52      0.35
 -21   5   5        2.89      0.55
 -20   5   5        5.53      0.95
 -19   5   5        3.90      0.56
 -18   5   5        4.31      0.50
 -17   5   5        5.54      0.49
 -16   5   5        7.61      0.58
 -15   5   5        2.71      0.28
 -14   5   5       69.44      1.82
 -13   5   5       50.15      1.41
 -12   5   5       21.16      0.88
 -11   5   5       41.34      1.14
 -10   5   5       34.85      1.11
  -9   5   5       25.93      0.89
  -8   5   5       43.61      1.15
  -7   5   5        8.66      0.38
  -6   5   5       70.94      1.73
  -5   5   5      181.23      4.35
  -4   5   5       44.27      1.35
  -3   5   5       46.19      1.46
  -2   5   5      303.33      7.29
  -1   5   5       35.01      1.42
   0   5   5        3.38      0.20
   1   5   5      211.65      5.05
   2   5   5      196.51      4.92
   3   5   5       69.30      1.71
   4   5   5       16.58      0.69
   5   5   5      201.65      4.77
   6   5   5       76.20      1.90
   7   5   5        5.05      0.24
   8   5   5       11.28      0.51
   9   5   5        0.73      0.11
  10   5   5       40.21      1.18
  11   5   5       14.64      0.77
  12   5   5       17.11      0.92
  13   5   5       31.69      1.49
  14   5   5        1.91      0.22
  15   5   5       17.88      1.43
  16   5   5        8.03      0.85
  17   5   5       17.64      2.10
  18   5   5       10.71      1.45
  19   5   5        0.47      0.14
 -20   6   5        6.16      1.24
 -19   6   5        4.79      0.69
 -18   6   5        0.26      0.30
 -17   6   5        4.04      0.47
 -16   6   5        9.25      0.92
 -15   6   5        6.27      0.52
 -14   6   5       10.93      0.81
 -13   6   5        0.14      0.13
 -12   6   5       69.99      1.90
 -11   6   5       14.83      0.79
 -10   6   5        4.47      0.25
  -9   6   5      113.56      2.88
  -8   6   5       38.28      1.10
  -7   6   5       25.82      0.90
  -6   6   5       45.89      1.17
  -5   6   5       46.12      1.17
  -4   6   5        5.27      0.24
  -3   6   5       57.66      1.49
  -2   6   5       20.38      0.85
  -1   6   5        8.26      0.42
   0   6   5       33.66      1.14
   1   6   5       33.54      1.09
   2   6   5       49.62      1.30
   3   6   5       15.86      0.64
   4   6   5       81.13      2.03
   5   6   5       86.31      2.26
   6   6   5        9.91      0.45
   7   6   5       72.96      1.88
   8   6   5       90.42      2.30
   9   6   5       27.74      1.16
  10   6   5       26.31      1.19
  11   6   5       44.70      1.64
  12   6   5        6.28      0.50
  13   6   5        6.06      0.59
  14   6   5       17.74      1.48
  15   6   5        5.91      0.66
  16   6   5        8.66      1.00
  17   6   5        0.65      0.17
  18   6   5       25.61      4.28
 -19   7   5        2.45      0.48
 -18   7   5       22.34      3.30
 -17   7   5        0.07      0.09
 -16   7   5        7.47      0.89
 -15   7   5       12.02      1.24
 -14   7   5       15.33      1.40
 -13   7   5       28.64      1.89
 -12   7   5        4.00      0.32
 -11   7   5        4.56      0.33
 -10   7   5       13.11      0.77
  -9   7   5       18.64      0.94
  -8   7   5       10.74      0.59
  -7   7   5       17.38      0.79
  -6   7   5       16.35      0.76
  -5   7   5       24.01      0.94
  -4   7   5      182.60      4.34
  -3   7   5       47.73      1.39
  -2   7   5       37.63      1.29
  -1   7   5       62.59      1.71
   0   7   5       38.15      1.22
   1   7   5       12.62      0.63
   2   7   5       71.09      2.12
   3   7   5       10.43      0.52
   4   7   5        7.91      0.43
   5   7   5        0.67      0.14
   6   7   5       11.29      0.61
   7   7   5       15.19      0.84
   8   7   5       26.99      1.33
   9   7   5       20.40      1.16
  10   7   5       29.04      1.75
  11   7   5       11.74      0.97
  12   7   5       20.73      1.80
  13   7   5        0.79      0.19
  14   7   5        3.03      0.38
  15   7   5        4.21      0.58
  16   7   5        3.39      0.59
  17   7   5        0.23      0.15
 -17   8   5        3.99      0.72
 -16   8   5        4.26      0.67
 -15   8   5        4.60      0.69
 -14   8   5        9.38      1.21
 -13   8   5        1.43      0.18
 -12   8   5       23.08      2.34
 -11   8   5        0.83      0.11
 -10   8   5        7.06      0.59
  -9   8   5       35.25      1.86
  -8   8   5       23.11      1.41
  -7   8   5        9.61      0.65
  -6   8   5       21.98      1.16
  -5   8   5        3.29      0.21
  -4   8   5       12.54      0.80
  -3   8   5       25.19      1.36
  -2   8   5        3.29      0.24
  -1   8   5        8.27      0.58
   0   8   5      101.57      2.82
   1   8   5        3.95      0.40
   2   8   5        8.20      0.54
   3   8   5       16.12      0.95
   4   8   5       11.33      0.74
   5   8   5        2.09      0.17
   6   8   5       29.99      1.58
   7   8   5       12.56      0.92
   8   8   5        2.47      0.24
   9   8   5       19.32      1.59
  10   8   5        7.04      0.72
  11   8   5       12.04      1.30
  12   8   5       10.05      1.19
  13   8   5        0.40      0.18
  14   8   5        3.87      0.65
  15   8   5        0.31      0.10
 -15   9   5        9.24      1.79
 -14   9   5        6.23      1.00
 -13   9   5        4.32      0.63
 -12   9   5        5.29      0.72
 -11   9   5        2.57      0.32
 -10   9   5        6.76      0.75
  -9   9   5       15.88      1.51
  -8   9   5       16.46      1.54
  -7   9   5       19.55      1.65
  -6   9   5        8.83      0.78
  -5   9   5       36.74      2.12
  -4   9   5       29.82      2.13
  -3   9   5       19.31      1.56
  -2   9   5       15.48      1.29
  -1   9   5       19.48      1.64
   0   9   5       27.17      2.08
   1   9   5       29.40      2.19
   2   9   5       18.29      1.48
   3   9   5       24.20      1.77
   4   9   5       10.71      0.94
   5   9   5       24.74      1.98
   6   9   5       14.38      1.28
   7   9   5       31.92      2.59
   8   9   5       10.63      1.12
   9   9   5        0.85      0.24
  10   9   5       15.31      1.83
  11   9   5        7.92      1.24
  12   9   5        4.35      0.76
  13   9   5        3.40      0.54
 -12  10   5        3.06      0.64
 -11  10   5        3.45      0.61
 -10  10   5       11.32      1.72
  -9  10   5        1.18      0.18
  -8  10   5        9.04      1.19
  -7  10   5        4.96      0.65
  -6  10   5        5.84      0.74
  -5  10   5       12.37      1.35
  -4  10   5        5.74      0.84
  -3  10   5        6.34      0.88
  -2  10   5        1.36      0.21
  -1  10   5        4.22      0.56
   0  10   5        9.03      1.25
   1  10   5        6.35      1.01
   2  10   5        8.12      1.17
   3  10   5        9.55      1.16
   4  10   5       12.53      1.65
   5  10   5       18.97      1.99
   6  10   5        4.75      0.65
   7  10   5        6.29      0.91
   8  10   5       13.35      1.92
   9  10   5        5.67      0.90
  10  10   5        0.98      0.17
  -7  11   5        5.00      0.95
  -6  11   5        0.20      0.23
  -5  11   5        7.84      1.34
  -4  11   5        5.89      1.07
  -3  11   5        0.67      0.21
  -2  11   5        2.71      0.59
  -1  11   5        3.38      0.73
   0  11   5        1.00      0.46
   1  11   5        0.89      0.33
   2  11   5       10.01      2.07
   3  11   5        3.35      0.64
   4  11   5        4.06      0.73
   5  11   5        9.86      1.62
 -24   0   6        0.53      0.24
 -23   0   6        0.10      0.09
 -22   0   6        8.09      1.62
 -21   0   6       21.90      3.07
 -20   0   6        6.42      0.93
 -19   0   6        0.25      0.26
 -18   0   6       15.90      1.38
 -17   0   6       17.18      1.14
 -16   0   6        2.53      0.20
 -15   0   6       49.20      1.63
 -14   0   6        1.69      0.16
 -13   0   6       45.91      1.41
 -12   0   6        3.98      0.32
 -11   0   6       13.21      0.78
 -10   0   6       18.22      1.15
  -9   0   6        2.27      0.18
  -8   0   6        0.60      0.19
  -7   0   6       16.68      1.53
  -6   0   6        0.77      0.09
  -5   0   6        3.88      0.46
  -4   0   6        8.13      1.34
  -3   0   6      210.19     22.67
  -2   0   6      272.44     35.37
  -1   0   6      616.49     37.30
   0   0   6      146.22     19.21
   1   0   6       74.17     12.48
   2   0   6      326.72     15.25
   3   0   6       27.57      3.21
   4   0   6      423.67     10.74
   5   0   6       14.54      1.30
   6   0   6      242.90      6.12
   7   0   6      323.38      8.25
   8   0   6        8.03      0.52
   9   0   6        8.73      0.53
  10   0   6        2.22      0.22
  11   0   6        1.77      0.14
  12   0   6       13.37      1.21
  13   0   6        9.90      0.68
  14   0   6        2.52      0.23
  15   0   6        0.13      0.16
  16   0   6        3.14      0.39
  17   0   6       10.72      1.32
  18   0   6        7.22      1.11
  19   0   6        0.02      0.02
  20   0   6        1.19      0.36
  21   0   6        0.35      0.29
 -24   1   6        4.17      0.71
 -23   1   6       26.29      4.03
 -22   1   6       23.83      3.15
 -21   1   6        8.58      0.96
 -20   1   6       29.69      2.45
 -19   1   6       70.41      2.01
 -18   1   6        6.94      0.48
 -17   1   6       74.81      2.01
 -16   1   6       56.53      1.39
 -15   1   6        3.08      0.18
 -14   1   6       12.01      0.52
 -13   1   6       78.96      2.02
 -12   1   6        4.06      0.19
 -11   1   6       43.79      1.41
 -10   1   6      163.18      3.84
  -9   1   6      304.65      7.45
  -8   1   6       68.05      2.78
  -7   1   6       57.74      3.13
  -6   1   6      433.33     10.31
  -5   1   6       93.68      6.27
  -4   1   6       99.64      7.35
  -3   1   6     1081.43     25.84
  -2   1   6      135.56     11.79
  -1   1   6      195.31     14.25
   0   1   6      328.53     17.96
   1   1   6      242.04     12.96
   2   1   6      921.16     21.70
   3   1   6      116.63      6.64
   4   1   6       65.89      3.92
   5   1   6      569.57     13.39
   6   1   6      296.44      6.95
   7   1   6       30.00      1.45
   8   1   6      127.41      3.00
   9   1   6       34.83      1.17
  10   1   6       37.32      1.14
  11   1   6       18.07      0.70
  12   1   6       15.66      0.71
  13   1   6       69.58      1.71
  14   1   6       20.17      0.92
  15   1   6       66.71      1.69
  16   1   6        5.80      0.45
  17   1   6       38.48      2.47
  18   1   6        2.42      0.31
  19   1   6       21.75      2.21
  20   1   6       28.03      3.49
  21   1   6        1.32      0.19
 -23   2   6        2.37      0.38
 -22   2   6        3.76      0.62
 -21   2   6        6.01      0.75
 -20   2   6        0.88      0.20
 -19   2   6       14.90      1.16
 -18   2   6        2.68      0.20
 -17   2   6        2.69      0.17
 -16   2   6       11.91      0.63
 -15   2   6       19.81      0.84
 -14   2   6       12.32      0.55
 -13   2   6       13.27      0.55
 -12   2   6       72.16      1.90
 -11   2   6      110.76      2.71
 -10   2   6       14.06      0.64
  -9   2   6      242.06      5.90
  -8   2   6       32.20      1.48
  -7   2   6      192.32      4.65
  -6   2   6      450.94     10.68
  -5   2   6        2.62      0.20
  -4   2   6       91.53      5.40
  -3   2   6       34.27      2.62
  -2   2   6       38.46      3.11
  -1   2   6       31.11      2.47
   0   2   6      155.05      8.23
   1   2   6       61.20      4.42
   2   2   6        3.49      0.27
   3   2   6       21.18      1.44
   4   2   6      142.33      3.80
   5   2   6       57.63      2.48
   6   2   6       84.89      2.32
   7   2   6        3.12      0.17
   8   2   6      156.93      3.85
   9   2   6       51.26      1.38
  10   2   6       87.23      2.07
  11   2   6      161.84      4.00
  12   2   6       14.34      0.63
  13   2   6       44.89      1.25
  14   2   6       44.63      1.32
  15   2   6       57.17      1.50
  16   2   6        1.06      0.17
  17   2   6       29.10      2.00
  18   2   6        1.88      0.21
  19   2   6        1.32      0.19
  20   2   6        7.61      0.99
  21   2   6       12.60      2.09
 -23   3   6        8.05      1.32
 -22   3   6        6.91      1.01
 -21   3   6       11.54      1.32
 -20   3   6        2.75      0.31
 -19   3   6        7.47      0.84
 -18   3   6        9.11      0.87
 -17   3   6        0.48      0.18
 -16   3   6       10.09      0.79
 -15   3   6       10.27      0.59
 -14   3   6       20.09      0.85
 -13   3   6       21.73      0.81
 -12   3   6       32.89      1.08
 -11   3   6        9.66      0.41
 -10   3   6       66.40      1.68
  -9   3   6      203.08      4.85
  -8   3   6       44.25      1.52
  -7   3   6      169.08      4.04
  -6   3   6      153.13      3.82
  -5   3   6      141.13      3.42
  -4   3   6      198.36      4.82
  -3   3   6      157.30      4.00
  -2   3   6      193.40      4.60
  -1   3   6      114.76      5.19
   0   3   6      161.00      4.31
   1   3   6      461.26     10.86
   2   3   6       75.84      3.21
   3   3   6       24.47      1.30
   4   3   6       13.39      0.71
   5   3   6       62.81      1.96
   6   3   6       47.30      1.57
   7   3   6      101.55      2.41
   8   3   6       72.95      1.73
   9   3   6        5.95      0.27
  10   3   6      124.51      2.97
  11   3   6      193.22      4.79
  12   3   6       51.23      1.37
  13   3   6       45.93      1.34
  14   3   6      120.99      3.01
  15   3   6       14.75      1.08
  16   3   6        3.38      0.29
  17   3   6       11.20      1.08
  18   3   6        2.73      0.29
  19   3   6        7.10      0.92
  20   3   6        2.74      0.42
  21   3   6        2.18      0.35
 -22   4   6       18.80      2.84
 -21   4   6       18.62      2.76
 -20   4   6        5.39      0.85
 -19   4   6       20.01      2.21
 -18   4   6        5.22      0.59
 -17   4   6       11.05      0.99
 -16   4   6        3.65      0.31
 -15   4   6        6.18      0.40
 -14   4   6        5.22      0.30
 -13   4   6        3.20      0.19
 -12   4   6        1.90      0.14
 -11   4   6       22.80      0.83
 -10   4   6       14.16      0.60
  -9   4   6       23.00      0.85
  -8   4   6        1.65      0.09
  -7   4   6       21.74      0.88
  -6   4   6       22.03      0.92
  -5   4   6       86.66      2.20
  -4   4   6        3.92      0.24
  -3   4   6        9.20      0.49
  -2   4   6       41.44      1.90
  -1   4   6      101.35      2.49
   0   4   6        9.21      0.49
   1   4   6       68.53      2.17
   2   4   6       25.60      1.17
   3   4   6       51.15      1.65
   4   4   6      149.75      3.68
   5   4   6       64.81      1.66
   6   4   6       65.70      1.65
   7   4   6      103.95      2.49
   8   4   6       31.56      1.04
   9   4   6       23.59      0.87
  10   4   6       65.40      1.71
  11   4   6       22.12      0.89
  12   4   6        8.34      0.48
  13   4   6       34.34      1.41
  14   4   6       10.90      0.80
  15   4   6       32.89      2.04
  16   4   6       10.34      1.05
  17   4   6       10.19      1.12
  18   4   6        3.96      0.56
  19   4   6       11.52      1.76
  20   4   6        3.11      0.60
 -21   5   6        9.66      1.68
 -20   5   6        1.50      0.21
 -19   5   6       11.34      1.45
 -18   5   6       30.30      2.88
 -17   5   6        8.49      0.79
 -16   5   6        2.95      0.26
 -15   5   6       17.81      1.11
 -14   5   6       20.94      1.05
 -13   5   6        2.80      0.20
 -12   5   6       12.26      0.60
 -11   5   6        0.95      0.10
 -10   5   6        5.80      0.28
  -9   5   6        7.74      0.35
  -8   5   6       28.46      0.99
  -7   5   6        7.08      0.32
  -6   5   6       34.73      1.09
  -5   5   6       59.67      1.47
  -4   5   6       69.52      1.82
  -3   5   6       35.12      1.19
  -2   5   6        8.51      0.44
  -1   5   6       12.16      0.61
   0   5   6       90.93      2.34
   1   5   6       11.81      0.52
   2   5   6        5.98      0.29
   3   5   6      128.42      3.27
   4   5   6      105.95      2.59
   5   5   6       12.29      0.52
   6   5   6       22.70      0.82
   7   5   6        9.06      0.40
   8   5   6      102.24      2.58
   9   5   6        3.91      0.21
  10   5   6        4.76      0.26
  11   5   6       32.68      1.38
  12   5   6       10.08      0.62
  13   5   6        6.12      0.45
  14   5   6        6.63      0.54
  15   5   6       20.21      1.60
  16   5   6        5.42      0.64
  17   5   6        1.01      0.18
  18   5   6       10.27      1.44
  19   5   6       11.74      2.67
 -20   6   6        5.65      1.11
 -19   6   6        4.40      0.67
 -18   6   6       16.42      1.87
 -17   6   6        8.93      0.94
 -16   6   6       16.93      1.53
 -15   6   6       15.14      1.16
 -14   6   6        9.75      0.72
 -13   6   6       52.83      1.81
 -12   6   6        7.96      0.49
 -11   6   6       46.42      1.41
 -10   6   6       25.43      1.03
  -9   6   6       43.91      1.26
  -8   6   6       14.45      0.64
  -7   6   6       66.20      1.57
  -6   6   6        8.76      0.41
  -5   6   6       12.31      0.51
  -4   6   6       32.66      1.04
  -3   6   6       36.06      1.18
  -2   6   6       54.24      1.37
  -1   6   6        0.45      0.13
   0   6   6       92.69      2.43
   1   6   6       16.17      0.66
   2   6   6        0.26      0.15
   3   6   6       58.69      1.49
   4   6   6      106.84      2.73
   5   6   6       14.52      0.65
   6   6   6       18.33      0.77
   7   6   6       98.17      2.46
   8   6   6        6.83      0.37
   9   6   6       28.83      1.26
  10   6   6        9.26      0.59
  11   6   6       35.79      1.77
  12   6   6       22.67      1.45
  13   6   6       25.14      1.91
  14   6   6       24.07      2.21
  15   6   6       18.35      1.87
  16   6   6        4.56      0.58
  17   6   6       14.01      1.80
  18   6   6        5.01      0.85
 -19   7   6        8.11      1.59
 -18   7   6        7.77      1.27
 -17   7   6        0.76      0.18
 -16   7   6        0.31      0.34
 -15   7   6        0.58      0.13
 -14   7   6        1.62      0.18
 -13   7   6       41.05      2.34
 -12   7   6        7.10      0.54
 -11   7   6        3.95      0.32
 -10   7   6      102.75      2.50
  -9   7   6       47.19      1.44
  -8   7   6       18.91      0.92
  -7   7   6       45.05      1.31
  -6   7   6       32.66      1.16
  -5   7   6       16.05      0.72
  -4   7   6       35.08      1.18
  -3   7   6       43.75      1.27
  -2   7   6        4.91      0.28
  -1   7   6       16.81      0.83
   0   7   6        2.61      0.19
   1   7   6        9.15      0.50
   2   7   6        8.14      0.43
   3   7   6        4.55      0.27
   4   7   6       10.19      0.55
   5   7   6       47.48      1.30
   6   7   6       11.57      0.63
   7   7   6       88.92      2.13
   8   7   6       55.92      1.53
   9   7   6        8.56      0.64
  10   7   6       40.74      2.30
  11   7   6       28.93      2.01
  12   7   6        3.72      0.45
  13   7   6       13.97      1.59
  14   7   6       22.16      2.75
  15   7   6        0.52      0.16
  16   7   6        6.37      1.06
 -17   8   6        0.94      0.20
 -16   8   6        5.44      0.87
 -15   8   6        6.27      0.90
 -14   8   6        4.38      0.61
 -13   8   6       13.62      1.53
 -12   8   6        5.14      0.57
 -11   8   6        9.10      0.82
 -10   8   6       24.37      1.68
  -9   8   6       20.64      1.45
  -8   8   6        6.85      0.53
  -7   8   6       50.36      1.67
  -6   8   6       38.62      1.62
  -5   8   6        4.02      0.27
  -4   8   6       22.80      1.29
  -3   8   6       56.03      1.57
  -2   8   6       18.60      1.16
  -1   8   6        3.04      0.22
   0   8   6       72.60      2.32
   1   8   6       50.33      1.70
   2   8   6       12.84      0.83
   3   8   6       79.08      2.11
   4   8   6      117.75      3.24
   5   8   6       15.27      1.01
   6   8   6        1.96      0.17
   7   8   6       57.66      2.07
   8   8   6       21.21      1.55
   9   8   6        5.08      0.51
  10   8   6        1.19      0.15
  11   8   6       13.04      1.46
  12   8   6       12.47      1.52
  13   8   6        5.85      0.85
  14   8   6        1.51      0.29
  15   8   6        1.42      0.36
 -15   9   6        0.49      0.12
 -14   9   6        0.80      0.20
 -13   9   6        4.66      0.65
 -12   9   6        1.35      0.20
 -11   9   6        9.24      1.14
 -10   9   6        5.09      0.67
  -9   9   6       16.57      1.71
  -8   9   6        2.44      0.27
  -7   9   6        5.48      0.52
  -6   9   6       14.90      1.28
  -5   9   6        2.31      0.23
  -4   9   6        4.56      0.52
  -3   9   6       16.89      1.50
  -2   9   6        7.93      0.80
  -1   9   6       58.06      2.57
   0   9   6        1.59      0.21
   1   9   6        9.49      1.14
   2   9   6       44.81      2.65
   3   9   6        2.47      0.24
   4   9   6        7.41      0.77
   5   9   6        4.74      0.48
   6   9   6       15.73      1.65
   7   9   6        8.00      0.86
   8   9   6        8.29      0.96
   9   9   6       24.01      2.66
  10   9   6        3.96      0.53
  11   9   6        4.30      0.74
  12   9   6        2.67      0.46
 -11  10   6       13.69      2.41
 -10  10   6        4.24      0.64
  -9  10   6        1.60      0.29
  -8  10   6       17.74      2.48
  -7  10   6       16.06      1.98
  -6  10   6       17.93      2.13
  -5  10   6        1.59      0.27
  -4  10   6       15.89      2.43
  -3  10   6       14.81      1.78
  -2  10   6       16.39      2.31
  -1  10   6        3.08      0.44
   0  10   6        7.23      1.01
   1  10   6       15.98      2.48
   2  10   6        3.75      0.53
   3  10   6        0.71      0.27
   4  10   6       27.96      3.66
   5  10   6        5.40      0.75
   6  10   6       16.68      2.28
   7  10   6       14.82      2.06
   8  10   6        3.01      0.48
   9  10   6       13.25      2.02
  -6  11   6       13.64      2.11
  -5  11   6        0.67      0.27
  -4  11   6        0.12      0.12
  -3  11   6        3.81      0.72
  -2  11   6       11.22      2.35
  -1  11   6        6.60      1.62
   0  11   6        3.44      0.74
   1  11   6        7.34      1.59
   2  11   6        5.16      1.23
   3  11   6       10.08      1.74
   4  11   6        1.22      0.22
 -24   0   7       15.79      4.74
 -23   0   7        5.94      1.46
 -22   0   7       17.18      2.77
 -21   0   7       16.64      2.40
 -20   0   7       12.73      1.88
 -19   0   7       29.06      2.58
 -18   0   7       19.42      1.94
 -17   0   7        3.40      0.29
 -16   0   7      122.91      4.13
 -15   0   7        0.05      0.07
 -14   0   7       51.37      1.99
 -13   0   7       92.34      2.71
 -12   0   7      123.82      3.40
 -11   0   7       70.94      2.36
 -10   0   7        5.91      0.40
  -9   0   7      326.23      8.44
  -8   0   7       28.05      1.93
  -7   0   7      123.07      4.45
  -6   0   7      226.69      7.03
  -5   0   7        1.13      0.13
  -4   0   7      158.62     14.12
  -3   0   7      115.17     12.65
  -2   0   7      310.87     16.73
  -1   0   7      444.39     11.16
   0   0   7       36.94      5.28
   1   0   7       76.22      7.15
   2   0   7       43.16      4.81
   3   0   7       13.63      1.54
   4   0   7        3.70      0.37
   5   0   7       96.87      4.19
   6   0   7      100.88      2.67
   7   0   7      173.34      4.67
   8   0   7       66.18      1.86
   9   0   7       36.20      1.40
  10   0   7        2.95      0.26
  11   0   7       11.07      0.65
  12   0   7        4.70      0.35
  13   0   7       18.90      1.19
  14   0   7        0.25      0.24
  15   0   7        5.12      0.53
  16   0   7        9.50      1.13
  17   0   7       34.98      3.16
  18   0   7       17.76      2.58
  19   0   7       48.41      5.78
  20   0   7        0.23      0.25
  21   0   7        2.02      0.56
 -24   1   7       13.49      2.96
 -23   1   7        9.64      1.61
 -22   1   7        5.09      0.68
 -21   1   7        4.44      0.54
 -20   1   7        9.63      0.92
 -19   1   7        3.50      0.33
 -18   1   7        9.53      0.67
 -17   1   7        7.84      0.55
 -16   1   7       43.17      1.35
 -15   1   7        3.85      0.24
 -14   1   7      126.73      3.03
 -13   1   7       40.12      1.14
 -12   1   7       28.28      0.99
 -11   1   7      122.94      3.16
 -10   1   7      116.11      2.80
  -9   1   7      100.92      2.64
  -8   1   7       33.52      1.59
  -7   1   7      218.78      5.26
  -6   1   7      103.12      4.33
  -5   1   7       86.91      4.50
  -4   1   7      255.47      6.46
  -3   1   7      465.14     10.97
  -2   1   7      157.36      8.57
  -1   1   7       57.86      4.60
   0   1   7      344.27      8.27
   1   1   7       43.39      3.65
   2   1   7       94.85      5.43
   3   1   7       77.73      4.33
   4   1   7       89.48      3.52
   5   1   7       52.81      2.38
   6   1   7      201.88      5.04
   7   1   7      112.82      2.67
   8   1   7      156.00      3.72
   9   1   7       86.38      2.17
  10   1   7       54.79      1.31
  11   1   7       70.32      1.66
  12   1   7       44.71      1.24
  13   1   7       36.63      1.18
  14   1   7       23.45      1.11
  15   1   7       54.09      1.59
  16   1   7        8.97      0.71
  17   1   7       34.49      2.34
  18   1   7        7.73      0.88
  19   1   7        1.18      0.16
  20   1   7        2.63      0.42
  21   1   7        3.55      0.63
 -23   2   7        2.71      0.39
 -22   2   7        9.76      1.24
 -21   2   7        2.07      0.24
 -20   2   7        9.15      0.94
 -19   2   7        8.58      0.72
 -18   2   7       32.70      1.73
 -17   2   7       10.96      0.68
 -16   2   7        8.85      0.48
 -15   2   7       80.36      2.36
 -14   2   7       67.47      1.75
 -13   2   7       20.20      0.76
 -12   2   7       36.48      1.07
 -11   2   7      103.69      2.65
 -10   2   7      117.86      2.97
  -9   2   7       11.10      0.52
  -8   2   7      234.53      5.95
  -7   2   7       51.86      2.21
  -6   2   7      183.67      4.48
  -5   2   7      404.46      9.55
  -4   2   7       35.65      2.18
  -3   2   7      316.27      7.53
  -2   2   7      469.02     11.23
  -1   2   7      229.34      5.47
   0   2   7        9.85      0.77
   1   2   7       68.46      4.27
   2   2   7      374.82      8.90
   3   2   7       46.56      2.33
   4   2   7      145.14      3.42
   5   2   7       73.79      2.23
   6   2   7        5.31      0.26
   7   2   7       12.68      0.57
   8   2   7      252.72      6.17
   9   2   7       12.82      0.54
  10   2   7       98.34      2.50
  11   2   7       83.56      2.16
  12   2   7       34.59      1.09
  13   2   7       24.19      1.02
  14   2   7      113.69      2.81
  15   2   7        0.84      0.16
  16   2   7        3.76      0.33
  17   2   7       23.81      1.98
  18   2   7       11.33      1.19
  19   2   7        1.48      0.22
  20   2   7        4.59      0.67
  21   2   7        3.79      0.64
 -23   3   7        8.09      1.29
 -22   3   7        7.54      1.11
 -21   3   7       18.96      2.26
 -20   3   7       16.98      1.81
 -19   3   7        3.45      0.38
 -18   3   7       34.76      2.29
 -17   3   7       12.09      0.99
 -16   3   7       13.08      0.85
 -15   3   7       26.61      1.11
 -14   3   7       41.73      1.19
 -13   3   7       40.74      1.12
 -12   3   7       32.72      1.02
 -11   3   7       22.61      0.82
 -10   3   7       85.68      2.14
  -9   3   7       34.05      1.18
  -8   3   7       48.12      1.51
  -7   3   7      471.27     11.18
  -6   3   7      120.32      2.89
  -5   3   7      222.67      5.50
  -4   3   7      270.10      6.40
  -3   3   7      232.08      5.48
  -2   3   7      293.83      7.00
  -1   3   7       73.71      3.25
   0   3   7      365.28      8.61
   1   3   7      252.56      5.98
   2   3   7       71.60      2.52
   3   3   7       15.38      0.80
   4   3   7       65.80      1.96
   5   3   7       75.80      1.87
   6   3   7       11.10      0.52
   7   3   7        7.64      0.36
   8   3   7       91.26      2.33
   9   3   7       20.32      0.91
  10   3   7      205.44      5.02
  11   3   7       37.13      1.14
  12   3   7       44.39      1.24
  13   3   7       62.53      1.68
  14   3   7        8.57      0.59
  15   3   7       10.38      0.89
  16   3   7       22.15      1.78
  17   3   7        0.43      0.13
  18   3   7       12.80      1.46
  19   3   7        0.93      0.19
  20   3   7        1.83      0.30
 -22   4   7       12.83      2.14
 -21   4   7        8.32      1.23
 -20   4   7        2.00      0.30
 -19   4   7       37.28      3.05
 -18   4   7        4.93      0.60
 -17   4   7       25.56      2.14
 -16   4   7       50.16      1.95
 -15   4   7        3.33      0.25
 -14   4   7       15.46      0.76
 -13   4   7       49.66      1.30
 -12   4   7       55.29      1.52
 -11   4   7        3.52      0.18
 -10   4   7       54.53      1.49
  -9   4   7        2.64      0.13
  -8   4   7        3.99      0.18
  -7   4   7      136.39      3.50
  -6   4   7        6.99      0.34
  -5   4   7       54.98      1.67
  -4   4   7      145.64      3.61
  -3   4   7      120.76      2.86
  -2   4   7       61.30      2.04
  -1   4   7       48.73      1.92
   0   4   7      254.62      6.16
   1   4   7      108.69      2.68
   2   4   7       57.47      1.66
   3   4   7      250.16      6.20
   4   4   7        0.59      0.10
   5   4   7        6.06      0.28
   6   4   7       89.42      2.10
   7   4   7       70.52      1.87
   8   4   7       77.32      2.07
   9   4   7        7.52      0.39
  10   4   7      167.50      4.43
  11   4   7        5.74      0.32
  12   4   7        5.28      0.34
  13   4   7       28.45      1.45
  14   4   7        5.90      0.46
  15   4   7        9.97      0.99
  16   4   7        9.31      1.08
  17   4   7        7.60      0.99
  18   4   7        4.24      0.57
  19   4   7        3.27      0.54
  20   4   7        3.30      0.73
 -21   5   7        2.98      0.49
 -20   5   7       21.33      2.93
 -19   5   7        0.15      0.19
 -18   5   7        4.98      0.66
 -17   5   7       13.56      1.23
 -16   5   7       13.41      1.08
 -15   5   7        7.20      0.51
 -14   5   7       36.66      1.49
 -13   5   7        6.82      0.43
 -12   5   7       12.30      0.61
 -11   5   7       19.32      0.81
 -10   5   7       68.60      1.73
  -9   5   7       47.62      1.27
  -8   5   7       14.20      0.59
  -7   5   7       65.26      1.54
  -6   5   7       20.25      0.84
  -5   5   7       42.02      1.17
  -4   5   7       37.22      1.13
  -3   5   7       46.18      1.30
  -2   5   7       13.14      0.61
  -1   5   7       13.80      0.63
   0   5   7       62.45      1.63
   1   5   7        1.52      0.12
   2   5   7       46.28      1.26
   3   5   7      127.52      3.03
   4   5   7       36.77      1.11
   5   5   7       33.41      1.03
   6   5   7      245.73      6.02
   7   5   7       25.74      0.92
   8   5   7       70.22      1.83
   9   5   7       75.90      1.93
  10   5   7       38.88      1.34
  11   5   7        0.33      0.09
  12   5   7        9.45      0.66
  13   5   7        0.94      0.17
  14   5   7        8.10      0.74
  15   5   7        2.93      0.34
  16   5   7       17.07      1.86
  17   5   7       11.15      1.43
  18   5   7       23.54      3.34
  19   5   7        1.13      0.27
 -20   6   7        2.37      0.38
 -19   6   7        6.31      0.99
 -18   6   7        4.95      0.62
 -17   6   7        0.35      0.39
 -16   6   7       18.97      1.72
 -15   6   7        9.50      0.86
 -14   6   7       36.53      1.89
 -13   6   7        3.37      0.25
 -12   6   7       19.19      1.04
 -11   6   7       49.02      1.43
 -10   6   7       12.74      0.65
  -9   6   7       30.27      1.06
  -8   6   7        0.36      0.11
  -7   6   7       66.58      1.68
  -6   6   7       31.00      1.03
  -5   6   7       12.79      0.54
  -4   6   7       45.55      1.18
  -3   6   7        7.41      0.38
  -2   6   7       32.38      1.10
  -1   6   7       75.47      1.85
   0   6   7        9.97      0.50
   1   6   7        1.83      0.14
   2   6   7       68.02      1.78
   3   6   7       78.67      2.13
   4   6   7        2.93      0.16
   5   6   7       24.18      0.91
   6   6   7       14.27      0.65
   7   6   7       97.24      2.30
   8   6   7        0.86      0.12
   9   6   7       32.13      1.38
  10   6   7       17.70      1.04
  11   6   7        3.64      0.29
  12   6   7       27.52      1.84
  13   6   7        7.53      0.72
  14   6   7        6.81      0.78
  15   6   7        6.84      0.90
  16   6   7       17.56      2.32
  17   6   7        5.49      0.82
 -19   7   7        0.25      0.19
 -18   7   7        3.72      0.58
 -17   7   7        8.72      1.19
 -16   7   7        1.34      0.21
 -15   7   7       23.24      2.14
 -14   7   7        3.89      0.39
 -13   7   7       14.34      1.29
 -12   7   7       27.31      1.69
 -11   7   7       10.57      0.79
 -10   7   7       10.40      0.70
  -9   7   7       21.03      1.10
  -8   7   7       43.80      1.39
  -7   7   7       22.56      1.02
  -6   7   7      121.31      3.10
  -5   7   7       85.15      2.15
  -4   7   7       25.33      1.18
  -3   7   7       88.61      2.29
  -2   7   7       56.62      1.50
  -1   7   7       55.51      1.46
   0   7   7       34.74      1.29
   1   7   7       16.38      0.81
   2   7   7        4.36      0.27
   3   7   7       34.14      1.22
   4   7   7        4.81      0.30
   5   7   7       15.25      0.80
   6   7   7       29.05      1.32
   7   7   7       18.38      1.10
   8   7   7       24.16      1.35
   9   7   7       31.09      1.73
  10   7   7       19.20      1.70
  11   7   7       14.29      1.29
  12   7   7       17.07      1.77
  13   7   7       39.32      3.45
  14   7   7        0.56      0.12
  15   7   7       24.64      3.44
  16   7   7       21.68      3.45
 -17   8   7        2.91      0.57
 -16   8   7       25.83      3.72
 -15   8   7        0.89      0.23
 -14   8   7        2.42      0.36
 -13   8   7        2.22      0.25
 -12   8   7       19.08      1.84
 -11   8   7        9.70      0.90
 -10   8   7        0.41      0.16
  -9   8   7        0.37      0.13
  -8   8   7       37.56      1.97
  -7   8   7       16.96      1.23
  -6   8   7        7.27      0.52
  -5   8   7       18.23      1.18
  -4   8   7       45.45      1.78
  -3   8   7        3.08      0.26
  -2   8   7       55.05      1.60
  -1   8   7       39.65      1.63
   0   8   7        8.29      0.66
   1   8   7        3.78      0.30
   2   8   7        4.92      0.38
   3   8   7        9.44      0.70
   4   8   7        5.07      0.43
   5   8   7        0.66      0.14
   6   8   7        7.83      0.62
   7   8   7        7.13      0.64
   8   8   7        4.19      0.40
   9   8   7       21.56      2.05
  10   8   7       29.90      2.68
  11   8   7        4.70      0.61
  12   8   7        0.48      0.14
  13   8   7       21.47      3.01
  14   8   7        3.95      0.79
 -14   9   7       40.14      5.90
 -13   9   7        2.40      0.36
 -12   9   7        5.31      0.72
 -11   9   7       42.13      4.51
 -10   9   7        3.69      0.53
  -9   9   7        8.05      0.86
  -8   9   7        3.75      0.40
  -7   9   7        2.05      0.20
  -6   9   7        6.12      0.60
  -5   9   7       17.50      1.46
  -4   9   7       18.33      1.62
  -3   9   7        1.36      0.27
  -2   9   7       15.44      1.38
  -1   9   7       24.12      2.18
   0   9   7       22.29      1.90
   1   9   7        2.11      0.23
   2   9   7       10.99      1.15
   3   9   7       12.30      1.15
   4   9   7        5.82      0.65
   5   9   7       12.75      1.31
   6   9   7       10.69      1.19
   7   9   7        3.68      0.45
   8   9   7       27.63      2.90
   9   9   7        5.53      0.77
  10   9   7        8.50      1.30
  11   9   7       14.47      2.60
  12   9   7       15.58      2.59
 -11  10   7        0.12      0.12
 -10  10   7        2.42      0.42
  -9  10   7       23.20      3.49
  -8  10   7        6.96      0.99
  -7  10   7        7.99      1.09
  -6  10   7       13.93      1.79
  -5  10   7       10.94      1.50
  -4  10   7        7.86      1.14
  -3  10   7        6.18      0.91
  -2  10   7        3.57      0.55
  -1  10   7       13.47      1.85
   0  10   7        9.49      1.36
   1  10   7       21.27      3.22
   2  10   7        8.40      1.25
   3  10   7       11.20      1.54
   4  10   7        4.11      0.64
   5  10   7        4.74      0.65
   6  10   7       11.12      1.55
   7  10   7        2.05      0.30
   8  10   7        8.75      1.48
  -5  11   7        8.22      1.77
  -4  11   7        1.77      0.35
  -3  11   7        5.02      1.03
  -2  11   7        0.85      0.22
  -1  11   7        0.16      0.14
   0  11   7       10.24      2.30
   1  11   7        2.64      0.59
   2  11   7        1.03      0.22
 -24   0   8        2.10      0.82
 -23   0   8        3.38      0.88
 -22   0   8       13.04      2.36
 -21   0   8        0.20      0.17
 -20   0   8        3.69      0.57
 -19   0   8       53.43      2.98
 -18   0   8       14.20      1.53
 -17   0   8       43.67      2.06
 -16   0   8       33.98      1.66
 -15   0   8       26.51      1.21
 -14   0   8       14.94      0.81
 -13   0   8        2.31      0.24
 -12   0   8       37.29      1.37
 -11   0   8      116.73      3.89
 -10   0   8      257.18      6.57
  -9   0   8       31.22      1.75
  -8   0   8       22.14      1.53
  -7   0   8      674.37     16.77
  -6   0   8       57.80      3.90
  -5   0   8      264.63      8.37
  -4   0   8       65.18      6.92
  -3   0   8      327.14      9.00
  -2   0   8      570.09     14.97
  -1   0   8      940.40     26.81
   0   0   8        6.86      1.01
   1   0   8      317.01      7.85
   2   0   8      284.28      7.03
   3   0   8      396.78      9.94
   4   0   8      549.35     14.77
   5   0   8      133.56      3.30
   6   0   8      442.29     10.81
   7   0   8       57.65      1.82
   8   0   8        0.45      0.09
   9   0   8      149.94      4.43
  10   0   8       16.16      0.89
  11   0   8       68.57      1.72
  12   0   8       30.84      1.35
  13   0   8      129.12      3.42
  14   0   8        4.04      0.42
  15   0   8       68.28      1.74
  16   0   8       18.96      2.13
  17   0   8       12.68      1.81
  18   0   8        0.19      0.22
  19   0   8        6.14      1.34
  20   0   8       19.29      5.51
  21   0   8        2.86      1.00
 -23   1   8        0.59      0.14
 -22   1   8        9.44      1.21
 -21   1   8        7.91      0.94
 -20   1   8        1.35      0.21
 -19   1   8        7.64      0.66
 -18   1   8       39.64      1.90
 -17   1   8        9.32      0.60
 -16   1   8       25.56      1.17
 -15   1   8        1.62      0.16
 -14   1   8        5.94      0.29
 -13   1   8       35.15      1.09
 -12   1   8        4.21      0.19
 -11   1   8        1.34      0.14
 -10   1   8      157.73      3.80
  -9   1   8       10.65      0.52
  -8   1   8       18.78      0.91
  -7   1   8      654.50     15.77
  -6   1   8       69.31      3.00
  -5   1   8       62.71      3.10
  -4   1   8      768.04     18.12
  -3   1   8      242.18      5.73
  -2   1   8      180.55      6.01
  -1   1   8      167.05      5.80
   0   1   8       50.53      4.10
   1   1   8      466.40     11.05
   2   1   8      100.05      4.18
   3   1   8      115.09      3.45
   4   1   8      325.98      7.72
   5   1   8       45.12      1.77
   6   1   8      139.13      3.34
   7   1   8       30.14      1.12
   8   1   8       24.11      0.99
   9   1   8      151.17      3.64
  10   1   8       14.19      0.64
  11   1   8        1.66      0.16
  12   1   8       60.81      1.50
  13   1   8       57.59      1.42
  14   1   8       35.14      1.43
  15   1   8       12.24      0.91
  16   1   8       35.48      2.27
  17   1   8        0.92      0.13
  18   1   8        2.15      0.28
  19   1   8       12.68      2.02
  20   1   8        0.20      0.16
 -23   2   8        1.84      0.29
 -22   2   8       22.34      2.90
 -21   2   8       48.39      4.18
 -20   2   8        5.14      0.54
 -19   2   8        0.83      0.17
 -18   2   8       50.64      1.94
 -17   2   8       24.14      1.25
 -16   2   8        5.66      0.33
 -15   2   8        9.78      0.52
 -14   2   8       17.25      0.72
 -13   2   8       29.61      1.00
 -12   2   8       91.12      2.37
 -11   2   8       20.91      0.81
 -10   2   8      111.06      2.67
  -9   2   8        6.32      0.31
  -8   2   8      196.29      4.59
  -7   2   8       36.58      1.55
  -6   2   8       98.36      2.61
  -5   2   8      218.22      5.14
  -4   2   8       98.60      3.44
  -3   2   8      443.56     10.54
  -2   2   8      144.14      4.19
  -1   2   8       20.59      1.31
   0   2   8      610.60     14.66
   1   2   8      431.18     10.84
   2   2   8       54.02      2.37
   3   2   8       86.26      2.58
   4   2   8      138.01      3.37
   5   2   8      150.01      3.57
   6   2   8        9.55      0.44
   7   2   8       23.24      0.92
   8   2   8       29.19      0.98
   9   2   8       60.09      1.41
  10   2   8       54.06      1.37
  11   2   8       17.29      0.75
  12   2   8       97.00      2.62
  13   2   8        0.85      0.10
  14   2   8       36.28      1.53
  15   2   8       10.44      0.75
  16   2   8        0.66      0.10
  17   2   8       18.68      1.71
  18   2   8        8.21      1.00
  19   2   8        2.52      0.35
  20   2   8        3.10      0.50
 -23   3   8       20.58      3.71
 -22   3   8        2.09      0.31
 -21   3   8        3.54      0.50
 -20   3   8       66.82      3.24
 -19   3   8       13.77      1.51
 -18   3   8       13.96      1.69
 -17   3   8       18.51      1.39
 -16   3   8       10.67      0.69
 -15   3   8       42.20      1.32
 -14   3   8       26.27      1.07
 -13   3   8       26.56      0.94
 -12   3   8       49.55      1.38
 -11   3   8       12.23      0.52
 -10   3   8      124.88      3.12
  -9   3   8       22.19      0.85
  -8   3   8       71.12      1.79
  -7   3   8       39.30      1.41
  -6   3   8      126.88      3.34
  -5   3   8      178.41      4.20
  -4   3   8       46.40      1.90
  -3   3   8      550.80     13.16
  -2   3   8       44.82      2.02
  -1   3   8       87.94      2.71
   0   3   8      119.65      2.82
   1   3   8       27.77      1.34
   2   3   8       69.39      2.09
   3   3   8       90.82      2.28
   4   3   8       40.49      1.42
   5   3   8       73.29      1.82
   6   3   8        4.71      0.22
   7   3   8       39.28      1.13
   8   3   8        6.62      0.31
   9   3   8       20.53      0.79
  10   3   8       37.02      1.13
  11   3   8       11.83      0.59
  12   3   8       94.50      2.49
  13   3   8       20.20      1.08
  14   3   8        6.74      0.48
  15   3   8       13.80      1.29
  16   3   8        1.24      0.23
  17   3   8        8.89      0.98
  18   3   8       12.29      1.55
  19   3   8        6.28      1.05
  20   3   8       11.21      2.02
 -22   4   8       12.61      2.05
 -21   4   8       12.68      1.95
 -20   4   8       16.92      2.25
 -19   4   8       19.26      2.26
 -18   4   8       15.84      1.72
 -17   4   8        5.14      0.53
 -16   4   8       50.23      2.15
 -15   4   8        9.85      0.66
 -14   4   8       19.99      1.07
 -13   4   8      155.95      4.06
 -12   4   8       68.01      1.79
 -11   4   8       17.30      0.70
 -10   4   8      133.17      3.20
  -9   4   8       42.18      1.17
  -8   4   8       49.68      1.38
  -7   4   8       48.41      1.29
  -6   4   8       80.78      2.07
  -5   4   8      188.00      4.88
  -4   4   8       42.94      1.42
  -3   4   8       90.01      2.15
  -2   4   8       37.81      1.49
  -1   4   8      118.16      2.94
   0   4   8      181.37      4.63
   1   4   8       94.47      2.31
   2   4   8      131.41      3.31
   3   4   8      125.34      3.17
   4   4   8       36.76      1.13
   5   4   8       51.86      1.38
   6   4   8       15.64      0.64
   7   4   8        6.19      0.29
   8   4   8      144.70      3.72
   9   4   8       15.90      0.68
  10   4   8       89.96      2.25
  11   4   8       92.14      2.56
  12   4   8        4.01      0.27
  13   4   8        6.68      0.50
  14   4   8       46.84      2.06
  15   4   8       12.08      1.31
  16   4   8        0.71      0.15
  17   4   8       17.01      2.00
  18   4   8        4.74      0.76
  19   4   8        0.06      0.07
 -21   5   8        7.73      1.27
 -20   5   8        4.68      0.73
 -19   5   8       14.82      1.96
 -18   5   8        0.48      0.14
 -17   5   8       18.04      1.68
 -16   5   8        5.21      0.47
 -15   5   8       20.13      1.36
 -14   5   8        6.10      0.43
 -13   5   8       52.40      1.49
 -12   5   8       88.07      2.27
 -11   5   8       86.56      2.09
 -10   5   8      170.01      4.28
  -9   5   8      101.38      2.62
  -8   5   8      245.36      5.86
  -7   5   8       56.96      1.49
  -6   5   8       36.35      1.07
  -5   5   8      122.32      2.98
  -4   5   8        5.35      0.25
  -3   5   8        4.24      0.22
  -2   5   8       39.22      1.28
  -1   5   8       13.58      0.62
   0   5   8       70.85      1.83
   1   5   8      118.32      2.93
   2   5   8       35.41      1.12
   3   5   8       40.03      1.14
   4   5   8      129.44      3.28
   5   5   8       75.74      2.02
   6   5   8       24.67      0.88
   7   5   8      118.42      2.83
   8   5   8       67.96      1.93
   9   5   8        8.55      0.45
  10   5   8      103.90      2.77
  11   5   8      123.52      3.22
  12   5   8        0.53      0.15
  13   5   8       29.29      2.12
  14   5   8       72.81      2.19
  15   5   8        5.27      0.68
  16   5   8        4.45      0.57
  17   5   8        9.11      1.36
  18   5   8       11.58      2.08
 -20   6   8       14.90      2.59
 -19   6   8        2.79      0.41
 -18   6   8        9.82      1.27
 -17   6   8       18.61      2.35
 -16   6   8        9.80      0.93
 -15   6   8       12.57      1.16
 -14   6   8        2.88      0.25
 -13   6   8        8.53      0.64
 -12   6   8       24.13      1.28
 -11   6   8        5.44      0.36
 -10   6   8        5.84      0.35
  -9   6   8       39.08      1.24
  -8   6   8       62.11      1.68
  -7   6   8       21.88      0.86
  -6   6   8      193.88      4.91
  -5   6   8       78.54      1.87
  -4   6   8       41.21      1.22
  -3   6   8       74.01      1.86
  -2   6   8       65.92      1.87
  -1   6   8       63.42      1.76
   0   6   8      100.63      2.69
   1   6   8       51.01      1.25
   2   6   8       21.30      0.82
   3   6   8      171.87      4.13
   4   6   8       22.51      0.91
   5   6   8      142.46      3.35
   6   6   8       93.54      2.58
   7   6   8       15.93      0.80
   8   6   8       10.89      0.67
   9   6   8       20.42      1.14
  10   6   8        5.33      0.43
  11   6   8       26.81      1.83
  12   6   8       11.53      1.09
  13   6   8        1.99      0.23
  14   6   8       50.96      3.55
  15   6   8       13.48      1.60
  16   6   8        8.79      1.25
  17   6   8       33.74      5.79
 -18   7   8        0.69      0.19
 -17   7   8        2.26      0.35
 -16   7   8       10.65      1.30
 -15   7   8        9.71      1.05
 -14   7   8        7.66      0.82
 -13   7   8        1.73      0.16
 -12   7   8        4.85      0.41
 -11   7   8        1.43      0.14
 -10   7   8       18.37      1.13
  -9   7   8       14.72      0.88
  -8   7   8        3.78      0.25
  -7   7   8       25.04      1.24
  -6   7   8        4.33      0.26
  -5   7   8       35.10      1.28
  -4   7   8       32.66      1.37
  -3   7   8       11.73      0.69
  -2   7   8        8.25      0.49
  -1   7   8       17.24      0.89
   0   7   8       24.70      1.35
   1   7   8       30.68      1.22
   2   7   8       16.31      0.86
   3   7   8      135.78      3.49
   4   7   8        0.91      0.14
   5   7   8        2.01      0.20
   6   7   8       10.29      0.70
   7   7   8       38.66      2.09
   8   7   8        1.11      0.16
   9   7   8        5.05      0.46
  10   7   8        9.05      0.90
  11   7   8        5.13      0.54
  12   7   8        2.81      0.35
  13   7   8       10.84      1.51
  14   7   8       11.65      1.67
  15   7   8        4.26      0.71
 -17   8   8        3.36      0.66
 -16   8   8       11.77      1.87
 -15   8   8       12.47      1.74
 -14   8   8        6.62      1.00
 -13   8   8        0.38      0.20
 -12   8   8        7.28      0.77
 -11   8   8        9.48      0.93
 -10   8   8        5.24      0.53
  -9   8   8        8.39      0.70
  -8   8   8       15.31      1.22
  -7   8   8       35.80      1.93
  -6   8   8       11.19      0.78
  -5   8   8       16.84      1.19
  -4   8   8       24.81      1.61
  -3   8   8       68.22      1.95
  -2   8   8       18.82      1.33
  -1   8   8        0.63      0.09
   0   8   8       19.31      1.36
   1   8   8        9.94      0.79
   2   8   8        9.79      0.79
   3   8   8        8.53      0.66
   4   8   8       11.57      1.09
   5   8   8        3.33      0.30
   6   8   8       21.05      1.58
   7   8   8        5.48      0.55
   8   8   8        2.50      0.27
   9   8   8        0.65      0.16
  10   8   8        4.15      0.54
  11   8   8        6.02      0.82
  12   8   8       16.32      2.29
  13   8   8       10.92      1.79
  14   8   8        8.18      1.56
 -14   9   8       11.52      2.03
 -13   9   8        1.81      0.27
 -12   9   8       11.63      1.63
 -11   9   8        2.83      0.44
 -10   9   8        6.16      0.84
  -9   9   8        0.90      0.12
  -8   9   8       24.84      2.29
  -7   9   8        8.55      0.87
  -6   9   8        6.04      0.61
  -5   9   8       17.49      1.70
  -4   9   8       22.42      2.14
  -3   9   8        0.29      0.19
  -2   9   8       15.36      1.61
  -1   9   8        3.93      0.45
   0   9   8       17.08      1.72
   1   9   8        3.84      0.44
   2   9   8        3.16      0.36
   3   9   8       13.05      1.35
   4   9   8        7.05      0.75
   5   9   8        2.32      0.27
   6   9   8        6.14      0.79
   7   9   8       19.28      2.23
   8   9   8       10.52      1.41
   9   9   8       17.20      2.41
  10   9   8       11.83      1.80
  11   9   8        2.11      0.37
 -11  10   8       24.89      4.36
 -10  10   8       17.85      2.84
  -9  10   8        1.85      0.31
  -8  10   8        8.95      1.35
  -7  10   8        6.85      0.91
  -6  10   8        7.53      1.06
  -5  10   8        1.74      0.29
  -4  10   8        1.34      0.27
  -3  10   8        9.21      1.41
  -2  10   8        4.86      0.84
  -1  10   8        6.29      0.97
   0  10   8        2.32      0.41
   1  10   8        8.11      1.29
   2  10   8       13.72      2.28
   3  10   8        8.38      1.28
   4  10   8        0.76      0.14
   5  10   8       13.26      1.83
   6  10   8        9.74      1.45
   7  10   8        3.26      0.58
   8  10   8        2.02      0.33
  -3  11   8        0.57      0.17
  -2  11   8       25.28      5.86
  -1  11   8       10.23      2.03
   0  11   8        0.31      0.26
 -23   0   9        9.28      2.27
 -22   0   9        1.95      0.44
 -21   0   9        3.23      0.64
 -20   0   9        9.73      1.59
 -19   0   9        2.15      0.28
 -18   0   9       15.28      1.45
 -17   0   9       79.97      2.05
 -16   0   9        7.33      0.70
 -15   0   9       25.73      1.44
 -14   0   9      171.74      4.71
 -13   0   9       17.41      1.00
 -12   0   9      129.90      4.27
 -11   0   9       41.16      1.54
 -10   0   9      226.45      6.40
  -9   0   9      612.71     15.78
  -8   0   9      170.40      4.77
  -7   0   9      127.11      3.41
  -6   0   9       48.13      3.08
  -5   0   9       45.22      3.63
  -4   0   9       20.73      2.09
  -3   0   9        2.46      0.32
  -2   0   9        8.33      1.06
  -1   0   9      149.68      5.27
   0   0   9        5.26      0.59
   1   0   9        4.96      0.54
   2   0   9       19.93      1.59
   3   0   9      150.99      4.42
   4   0   9       22.23      1.58
   5   0   9      266.28      6.73
   6   0   9       31.08      1.43
   7   0   9       94.67      2.31
   8   0   9      162.78      4.33
   9   0   9       15.19      0.88
  10   0   9       89.76      2.59
  11   0   9       78.42      2.77
  12   0   9        9.78      0.71
  13   0   9      152.10      4.00
  14   0   9        5.33      0.57
  15   0   9        7.63      0.92
  16   0   9       20.18      2.44
  17   0   9        8.71      1.65
  18   0   9        1.43      0.30
  19   0   9       20.35      4.17
  20   0   9        2.51      0.64
 -23   1   9       10.05      1.70
 -22   1   9        5.72      0.77
 -21   1   9       11.46      1.27
 -20   1   9       31.91      2.45
 -19   1   9       10.95      0.89
 -18   1   9       61.13      1.72
 -17   1   9       81.80      2.46
 -16   1   9       12.71      0.72
 -15   1   9       63.75      2.04
 -14   1   9      131.66      3.29
 -13   1   9       30.54      1.02
 -12   1   9       25.63      0.91
 -11   1   9      168.45      4.00
 -10   1   9      132.99      3.47
  -9   1   9       52.42      1.54
  -8   1   9       98.96      2.57
  -7   1   9      583.79     13.88
  -6   1   9       53.93      2.29
  -5   1   9       86.21      3.01
  -4   1   9      516.69     12.34
  -3   1   9      141.12      3.70
  -2   1   9       97.73      4.19
  -1   1   9       30.70      1.96
   0   1   9      364.50      9.21
   1   1   9       12.55      1.01
   2   1   9      184.12      4.43
   3   1   9      180.39      4.31
   4   1   9       34.83      1.53
   5   1   9       79.43      1.87
   6   1   9      163.33      3.88
   7   1   9      197.21      4.82
   8   1   9        2.04      0.12
   9   1   9       82.43      2.09
  10   1   9      106.11      2.59
  11   1   9        2.23      0.16
  12   1   9        3.40      0.20
  13   1   9       53.79      1.44
  14   1   9       37.19      1.95
  15   1   9       19.82      1.40
  16   1   9       18.66      1.57
  17   1   9       26.01      2.94
  18   1   9        2.64      0.33
  19   1   9        4.72      0.77
  20   1   9        4.26      0.84
 -23   2   9        5.84      0.98
 -22   2   9        2.31      0.31
 -21   2   9       39.34      3.93
 -20   2   9       17.73      1.77
 -19   2   9        3.81      0.35
 -18   2   9       42.44      2.00
 -17   2   9      106.99      3.14
 -16   2   9       19.17      0.97
 -15   2   9       24.78      1.06
 -14   2   9       63.56      1.51
 -13   2   9       69.01      2.00
 -12   2   9       63.62      1.50
 -11   2   9       26.50      0.92
 -10   2   9       42.72      1.23
  -9   2   9       73.53      1.83
  -8   2   9       19.19      0.80
  -7   2   9       95.08      2.31
  -6   2   9      170.09      4.18
  -5   2   9      253.54      6.12
  -4   2   9      403.18      9.84
  -3   2   9      346.12      8.23
  -2   2   9      232.68      5.69
  -1   2   9      599.35     14.13
   0   2   9      156.77      3.84
   1   2   9      184.22      4.65
   2   2   9      204.89      5.18
   3   2   9       82.68      2.05
   4   2   9      117.74      2.97
   5   2   9       94.81      2.27
   6   2   9       49.23      1.34
   7   2   9        2.01      0.10
   8   2   9       49.11      1.21
   9   2   9       34.77      1.07
  10   2   9       11.74      0.54
  11   2   9        1.57      0.11
  12   2   9       11.31      0.63
  13   2   9       11.43      0.68
  14   2   9        3.54      0.28
  15   2   9       33.39      2.26
  16   2   9        5.38      0.57
  17   2   9       16.95      1.81
  18   2   9       11.79      1.65
  19   2   9       13.09      2.05
  20   2   9       12.30      2.35
 -23   3   9        2.29      0.42
 -22   3   9        9.00      1.30
 -21   3   9        2.42      0.34
 -20   3   9        5.79      0.70
 -19   3   9       16.43      1.84
 -18   3   9       16.90      1.65
 -17   3   9        0.06      0.06
 -16   3   9       13.66      0.92
 -15   3   9      108.94      2.79
 -14   3   9       41.50      1.29
 -13   3   9       23.47      0.91
 -12   3   9       23.86      0.90
 -11   3   9       74.41      1.98
 -10   3   9       64.44      1.68
  -9   3   9       20.01      0.78
  -8   3   9       28.87      1.02
  -7   3   9       56.56      1.50
  -6   3   9       28.84      1.11
  -5   3   9       61.16      1.74
  -4   3   9      368.38      8.79
  -3   3   9       87.37      2.10
  -2   3   9       86.56      2.13
  -1   3   9      646.82     16.50
   0   3   9       60.43      1.86
   1   3   9       65.91      1.81
   2   3   9       41.30      1.42
   3   3   9        1.19      0.07
   4   3   9       48.22      1.40
   5   3   9       47.45      1.30
   6   3   9       53.26      1.39
   7   3   9       55.10      1.46
   8   3   9       48.09      1.26
   9   3   9       24.58      0.90
  10   3   9       11.35      0.59
  11   3   9       39.29      1.36
  12   3   9       30.35      1.29
  13   3   9       10.00      0.68
  14   3   9        1.10      0.13
  15   3   9        9.23      0.82
  16   3   9        6.89      0.71
  17   3   9       27.58      2.79
  18   3   9        4.47      0.74
  19   3   9        7.41      1.22
 -22   4   9        8.56      1.35
 -21   4   9        8.11      1.19
 -20   4   9       21.74      2.56
 -19   4   9       23.72      3.03
 -18   4   9       10.80      1.40
 -17   4   9        4.73      0.50
 -16   4   9       96.22      3.04
 -15   4   9        0.75      0.09
 -14   4   9        8.32      0.49
 -13   4   9       54.26      1.49
 -12   4   9        6.65      0.36
 -11   4   9       70.87      1.76
 -10   4   9        9.38      0.42
  -9   4   9        9.87      0.45
  -8   4   9       69.34      1.86
  -7   4   9       67.28      1.72
  -6   4   9      104.28      2.54
  -5   4   9      162.26      3.89
  -4   4   9      249.08      6.00
  -3   4   9      111.38      2.74
  -2   4   9      135.27      3.22
  -1   4   9      135.34      3.33
   0   4   9      110.99      2.77
   1   4   9       68.47      1.61
   2   4   9       15.61      0.64
   3   4   9      100.30      2.38
   4   4   9        8.44      0.37
   5   4   9        2.61      0.14
   6   4   9        5.78      0.27
   7   4   9      155.86      3.78
   8   4   9       12.41      0.57
   9   4   9      105.18      2.51
  10   4   9       32.40      1.29
  11   4   9        7.85      0.52
  12   4   9       75.46      2.07
  13   4   9       17.70      1.26
  14   4   9        9.63      0.89
  15   4   9       15.83      1.62
  16   4   9       48.83      4.26
  17   4   9        7.46      1.17
  18   4   9       10.56      1.80
 -21   5   9        9.37      1.52
 -20   5   9        6.76      1.10
 -19   5   9       11.04      1.53
 -18   5   9        1.96      0.30
 -17   5   9        0.18      0.13
 -16   5   9        8.40      0.77
 -15   5   9       45.30      2.15
 -14   5   9        4.28      0.31
 -13   5   9       35.06      1.52
 -12   5   9       53.77      1.47
 -11   5   9       37.67      1.26
 -10   5   9       33.11      1.17
  -9   5   9       48.03      1.33
  -8   5   9       15.36      0.64
  -7   5   9       95.36      2.35
  -6   5   9       45.13      1.19
  -5   5   9       25.48      0.87
  -4   5   9      116.73      3.08
  -3   5   9        3.50      0.18
  -2   5   9       45.26      1.24
  -1   5   9       36.30      1.17
   0   5   9        2.37      0.15
   1   5   9       48.80      1.29
   2   5   9        1.03      0.09
   3   5   9       56.13      1.58
   4   5   9       50.98      1.27
   5   5   9       15.74      0.65
   6   5   9       15.62      0.67
   7   5   9      151.72      3.78
   8   5   9       17.89      0.85
   9   5   9       23.17      1.09
  10   5   9       30.97      1.50
  11   5   9        3.26      0.24
  12   5   9       28.82      1.79
  13   5   9        0.41      0.16
  14   5   9        2.56      0.35
  15   5   9       15.27      1.85
  16   5   9        1.17      0.22
  17   5   9       13.78      2.75
  18   5   9        2.49      0.49
 -20   6   9        5.81      1.06
 -19   6   9       21.87      3.44
 -18   6   9        7.16      1.02
 -17   6   9        7.62      1.01
 -16   6   9        5.28      0.61
 -15   6   9       35.90      2.86
 -14   6   9        0.20      0.13
 -13   6   9        8.70      0.65
 -12   6   9       29.47      1.63
 -11   6   9       41.61      1.70
 -10   6   9       10.18      0.59
  -9   6   9       36.30      1.33
  -8   6   9      203.52      4.95
  -7   6   9        1.03      0.09
  -6   6   9       37.14      1.12
  -5   6   9       28.25      1.04
  -4   6   9       41.04      1.35
  -3   6   9        3.57      0.21
  -2   6   9       67.80      1.85
  -1   6   9       48.16      1.37
   0   6   9       39.35      1.15
   1   6   9       26.98      0.95
   2   6   9       24.98      1.01
   3   6   9       64.29      1.77
   4   6   9        6.07      0.39
   5   6   9       71.55      1.87
   6   6   9        6.52      0.42
   7   6   9        0.72      0.11
   8   6   9       49.99      1.59
   9   6   9       21.82      1.44
  10   6   9        1.35      0.19
  11   6   9        5.11      0.52
  12   6   9        8.33      0.86
  13   6   9       13.78      1.51
  14   6   9        6.66      0.97
  15   6   9       14.87      2.12
  16   6   9        4.01      0.65
 -18   7   9        3.68      0.63
 -17   7   9       19.22      3.01
 -16   7   9        6.73      0.86
 -15   7   9       12.45      1.54
 -14   7   9        0.94      0.16
 -13   7   9        2.25      0.24
 -12   7   9       22.81      1.93
 -11   7   9        5.57      0.49
 -10   7   9        5.38      0.40
  -9   7   9        1.79      0.14
  -8   7   9        2.23      0.17
  -7   7   9       24.43      1.23
  -6   7   9       30.81      1.41
  -5   7   9       10.97      0.61
  -4   7   9       44.13      1.43
  -3   7   9       14.67      0.87
  -2   7   9       90.52      2.63
  -1   7   9       41.95      1.43
   0   7   9       14.59      0.83
   1   7   9       98.73      2.53
   2   7   9       72.18      2.04
   3   7   9        3.82      0.26
   4   7   9       23.36      1.48
   5   7   9       30.27      1.49
   6   7   9        6.66      0.49
   7   7   9       32.75      1.93
   8   7   9        0.21      0.12
   9   7   9       30.22      2.09
  10   7   9        9.57      0.94
  11   7   9        3.10      0.34
  12   7   9        1.53      0.20
  13   7   9        6.75      1.06
  14   7   9        6.27      1.02
  15   7   9        7.79      1.36
 -16   8   9        0.12      0.10
 -15   8   9        9.36      1.37
 -14   8   9        7.36      1.10
 -13   8   9        8.05      1.07
 -12   8   9       14.43      1.60
 -11   8   9        3.35      0.34
 -10   8   9       10.71      1.04
  -9   8   9        9.53      0.87
  -8   8   9        4.14      0.39
  -7   8   9        2.14      0.19
  -6   8   9       21.60      1.56
  -5   8   9       25.85      1.81
  -4   8   9       13.79      1.14
  -3   8   9       18.45      1.35
  -2   8   9       52.06      2.17
  -1   8   9        4.52      0.39
   0   8   9       46.31      2.11
   1   8   9       12.44      0.95
   2   8   9        0.73      0.17
   3   8   9       25.29      1.68
   4   8   9        1.80      0.19
   5   8   9       14.16      1.19
   6   8   9        7.38      0.71
   7   8   9       29.61      2.31
   8   8   9        1.57      0.17
   9   8   9       10.25      1.17
  10   8   9        8.48      1.15
  11   8   9       25.97      3.60
  12   8   9       13.07      2.13
  13   8   9        2.72      0.50
 -14   9   9       10.88      2.00
 -13   9   9        3.03      0.49
 -12   9   9        7.21      1.12
 -11   9   9        7.80      1.26
 -10   9   9       10.94      1.55
  -9   9   9       17.19      1.95
  -8   9   9        5.06      0.59
  -7   9   9       40.40      3.23
  -6   9   9       13.25      1.40
  -5   9   9        1.18      0.17
  -4   9   9       47.30      3.66
  -3   9   9        4.26      0.59
  -2   9   9        6.55      0.77
  -1   9   9       25.00      2.36
   0   9   9        0.71      0.12
   1   9   9        3.18      0.36
   2   9   9        2.66      0.34
   3   9   9        2.09      0.26
   4   9   9        2.33      0.28
   5   9   9       19.99      2.15
   6   9   9       15.73      1.76
   7   9   9        4.45      0.59
   8   9   9       14.91      1.84
   9   9   9       18.85      3.17
  10   9   9       13.06      2.03
 -10  10   9        4.03      0.72
  -9  10   9        2.44      0.41
  -8  10   9        0.38      0.21
  -7  10   9        5.67      0.89
  -6  10   9       17.48      2.78
  -5  10   9        5.40      0.79
  -4  10   9        0.02      0.02
  -3  10   9       41.74      5.98
  -2  10   9        4.09      0.69
  -1  10   9        1.93      0.32
   0  10   9        1.09      0.20
   1  10   9        0.12      0.13
   2  10   9        7.11      1.07
   3  10   9        2.38      0.40
   4  10   9        3.32      0.56
   5  10   9        9.69      1.44
   6  10   9       19.73      3.02
   7  10   9        5.76      1.04
 -23   0  10        0.52      0.38
 -22   0  10       69.88      7.04
 -21   0  10        8.54      1.59
 -20   0  10        3.37      0.52
 -19   0  10        4.81      0.61
 -18   0  10       11.30      1.17
 -17   0  10       15.03      1.27
 -16   0  10       19.12      1.30
 -15   0  10        0.07      0.07
 -14   0  10        6.39      0.47
 -13   0  10       94.67      3.22
 -12   0  10       83.68      2.81
 -11   0  10        8.08      0.51
 -10   0  10        2.41      0.16
  -9   0  10       52.70      1.62
  -8   0  10      485.31     13.40
  -7   0  10        2.15      0.18
  -6   0  10       74.46      2.84
  -5   0  10      211.40      5.41
  -4   0  10        6.39      0.61
  -3   0  10      316.93      8.13
  -2   0  10      121.13      3.43
  -1   0  10       44.75      3.26
   0   0  10     1128.29     29.79
   1   0  10      164.35      4.20
   2   0  10      136.00      5.44
   3   0  10      222.11      5.88
   4   0  10      454.30     11.79
   5   0  10        4.29      0.29
   6   0  10       13.27      0.74
   7   0  10       53.46      1.48
   8   0  10       34.98      1.59
   9   0  10        1.79      0.24
  10   0  10       59.67      2.09
  11   0  10       21.41      1.38
  12   0  10       19.51      1.44
  13   0  10       23.24      1.98
  14   0  10       33.00      2.60
  15   0  10       51.71      3.53
  16   0  10        6.25      0.99
  17   0  10        8.32      1.81
  18   0  10       26.75      5.81
  19   0  10        3.69      0.93
 -23   1  10        3.42      0.56
 -22   1  10        1.24      0.20
 -21   1  10       11.51      1.37
 -20   1  10       21.29      1.97
 -19   1  10       17.89      1.59
 -18   1  10        9.84      0.76
 -17   1  10        7.29      0.49
 -16   1  10       18.13      0.95
 -15   1  10        0.53      0.10
 -14   1  10       23.27      0.94
 -13   1  10       47.83      1.46
 -12   1  10       50.65      1.29
 -11   1  10       58.41      1.49
 -10   1  10      281.51      6.73
  -9   1  10       80.65      2.09
  -8   1  10       86.98      2.28
  -7   1  10      141.22      3.59
  -6   1  10      202.90      5.38
  -5   1  10      161.67      3.96
  -4   1  10      194.31      4.68
  -3   1  10       20.65      1.16
  -2   1  10      177.12      4.33
  -1   1  10      167.91      4.46
   0   1  10       27.14      1.58
   1   1  10       10.86      0.64
   2   1  10      341.53      8.25
   3   1  10       95.37      2.39
   4   1  10       74.62      1.82
   5   1  10       49.03      1.43
   6   1  10       67.87      1.63
   7   1  10       40.43      1.20
   8   1  10        6.56      0.31
   9   1  10        1.23      0.09
  10   1  10       64.86      1.54
  11   1  10        9.28      0.51
  12   1  10       48.46      1.40
  13   1  10       12.85      0.84
  14   1  10       12.89      0.99
  15   1  10       23.08      2.11
  16   1  10        7.96      1.07
  17   1  10        5.07      0.61
  18   1  10       15.42      2.19
  19   1  10        1.85      0.30
 -23   2  10        2.82      0.50
 -22   2  10        9.87      1.35
 -21   2  10       19.58      2.14
 -20   2  10        0.58      0.21
 -19   2  10       22.10      1.81
 -18   2  10       84.64      2.57
 -17   2  10        4.89      0.35
 -16   2  10       30.65      1.39
 -15   2  10       40.55      1.45
 -14   2  10       71.22      2.15
 -13   2  10       11.62      0.57
 -12   2  10       42.64      1.16
 -11   2  10      120.54      3.10
 -10   2  10       61.37      1.49
  -9   2  10      101.54      2.48
  -8   2  10       49.12      1.43
  -7   2  10      269.60      6.45
  -6   2  10      110.45      2.64
  -5   2  10      346.93      8.44
  -4   2  10       58.03      2.19
  -3   2  10      255.16      6.42
  -2   2  10      304.84      7.89
  -1   2  10      437.00     11.45
   0   2  10       13.68      0.74
   1   2  10       89.74      2.14
   2   2  10      444.87     10.58
   3   2  10       56.12      1.60
   4   2  10       50.78      1.41
   5   2  10       31.81      1.13
   6   2  10       54.48      1.34
   7   2  10       26.78      0.93
   8   2  10       76.57      1.97
   9   2  10        6.43      0.31
  10   2  10       10.70      0.52
  11   2  10       44.21      1.35
  12   2  10        0.17      0.11
  13   2  10        7.46      0.53
  14   2  10       33.36      1.84
  15   2  10        0.30      0.33
  16   2  10        2.61      0.27
  17   2  10        2.76      0.32
  18   2  10        6.83      0.93
  19   2  10        4.38      0.76
 -22   3  10       18.11      2.51
 -21   3  10        4.98      0.65
 -20   3  10       27.57      3.20
 -19   3  10       28.04      2.74
 -18   3  10       16.95      1.50
 -17   3  10       99.37      2.55
 -16   3  10       28.87      1.61
 -15   3  10      114.79      2.77
 -14   3  10      160.28      4.40
 -13   3  10       39.12      1.30
 -12   3  10       64.08      1.89
 -11   3  10       16.43      0.70
 -10   3  10       14.59      0.62
  -9   3  10       63.03      1.63
  -8   3  10       65.32      1.70
  -7   3  10       79.87      1.90
  -6   3  10        0.77      0.11
  -5   3  10       52.86      1.49
  -4   3  10      194.41      4.79
  -3   3  10      197.07      4.69
  -2   3  10      148.75      3.81
  -1   3  10      120.09      3.14
   0   3  10      207.38      5.03
   1   3  10      306.35      7.51
   2   3  10       10.48      0.47
   3   3  10       98.87      2.40
   4   3  10      154.17      3.68
   5   3  10       61.34      1.58
   6   3  10       20.76      0.79
   7   3  10       63.83      1.67
   8   3  10       20.58      0.81
   9   3  10       21.28      0.96
  10   3  10       19.65      0.92
  11   3  10       43.00      1.48
  12   3  10       67.90      1.89
  13   3  10        1.33      0.17
  14   3  10       16.43      1.34
  15   3  10       15.05      1.45
  16   3  10        7.23      0.86
  17   3  10        3.04      0.45
  18   3  10        6.28      0.98
  19   3  10       11.99      2.03
 -22   4  10        1.05      0.23
 -21   4  10        2.00      0.32
 -20   4  10        9.64      1.41
 -19   4  10        1.64      0.26
 -18   4  10       16.09      2.28
 -17   4  10       32.53      2.46
 -16   4  10        2.11      0.24
 -15   4  10        1.60      0.13
 -14   4  10       10.07      0.63
 -13   4  10       95.78      2.43
 -12   4  10       26.65      1.12
 -11   4  10       33.30      1.16
 -10   4  10       15.41      0.69
  -9   4  10       40.13      1.13
  -8   4  10       10.27      0.45
  -7   4  10       41.84      1.13
  -6   4  10      107.36      2.81
  -5   4  10      127.81      3.36
  -4   4  10       47.45      1.34
  -3   4  10        4.94      0.25
  -2   4  10       56.68      1.39
  -1   4  10        6.49      0.34
   0   4  10       14.10      0.58
   1   4  10        3.29      0.16
   2   4  10       32.41      1.07
   3   4  10        0.47      0.08
   4   4  10       89.06      2.46
   5   4  10        9.70      0.43
   6   4  10        0.54      0.11
   7   4  10       13.88      0.62
   8   4  10       13.82      0.68
   9   4  10       49.68      1.41
  10   4  10       44.19      1.48
  11   4  10        0.66      0.12
  12   4  10       41.34      1.85
  13   4  10       25.91      1.89
  14   4  10       23.01      1.89
  15   4  10       21.27      2.02
  16   4  10       18.10      2.42
  17   4  10        1.21      0.20
  18   4  10        6.97      1.26
 -21   5  10        6.10      1.17
 -20   5  10        4.19      0.75
 -19   5  10        4.67      0.73
 -18   5  10        5.29      0.71
 -17   5  10        1.73      0.22
 -16   5  10        3.02      0.30
 -15   5  10       62.53      2.28
 -14   5  10       17.80      1.20
 -13   5  10        2.72      0.18
 -12   5  10       15.49      0.87
 -11   5  10       89.28      2.49
 -10   5  10        6.11      0.35
  -9   5  10       41.29      1.29
  -8   5  10       61.57      1.63
  -7   5  10       10.60      0.49
  -6   5  10       82.10      2.16
  -5   5  10        9.34      0.43
  -4   5  10       48.73      1.25
  -3   5  10        8.02      0.41
  -2   5  10       31.54      1.07
  -1   5  10       78.62      2.09
   0   5  10        7.12      0.32
   1   5  10       46.17      1.16
   2   5  10      118.22      3.01
   3   5  10       34.12      1.05
   4   5  10       48.08      1.20
   5   5  10        8.47      0.46
   6   5  10       55.24      1.36
   7   5  10       63.63      1.81
   8   5  10        9.86      0.57
   9   5  10       22.88      1.25
  10   5  10       25.94      1.43
  11   5  10       31.09      1.95
  12   5  10        4.44      0.42
  13   5  10        3.11      0.33
  14   5  10        6.43      0.74
  15   5  10        3.90      0.64
  16   5  10       18.27      2.85
  17   5  10        3.34      0.78
 -19   6  10        1.42      0.24
 -18   6  10       14.65      2.07
 -17   6  10        2.82      0.42
 -16   6  10        6.39      0.72
 -15   6  10        8.21      0.81
 -14   6  10        7.21      0.70
 -13   6  10       15.58      1.16
 -12   6  10       12.41      0.90
 -11   6  10        5.88      0.45
 -10   6  10       19.19      1.15
  -9   6  10        3.16      0.20
  -8   6  10       79.82      1.96
  -7   6  10       16.57      0.82
  -6   6  10       28.02      1.06
  -5   6  10       19.59      0.87
  -4   6  10       16.05      0.85
  -3   6  10       65.98      1.63
  -2   6  10        7.84      0.43
  -1   6  10       17.76      0.86
   0   6  10      113.06      3.10
   1   6  10        6.10      0.32
   2   6  10      117.23      3.29
   3   6  10        2.44      0.17
   4   6  10        3.31      0.20
   5   6  10       49.05      1.52
   6   6  10       10.54      0.64
   7   6  10        3.10      0.22
   8   6  10       14.42      0.99
   9   6  10        9.41      0.78
  10   6  10       17.73      1.40
  11   6  10        0.17      0.12
  12   6  10       18.65      1.76
  13   6  10        0.17      0.12
  14   6  10        8.22      1.18
  15   6  10        9.78      1.55
  16   6  10        2.04      0.31
 -18   7  10        2.43      0.46
 -17   7  10        8.23      1.19
 -16   7  10        2.98      0.42
 -15   7  10        1.11      0.18
 -14   7  10        0.42      0.15
 -13   7  10        1.05      0.19
 -12   7  10       35.55      2.69
 -11   7  10        6.57      0.56
 -10   7  10       16.44      1.21
  -9   7  10       40.72      1.99
  -8   7  10       51.34      1.67
  -7   7  10        7.97      0.52
  -6   7  10       46.65      1.69
  -5   7  10       29.95      1.43
  -4   7  10       35.07      1.61
  -3   7  10       12.30      0.79
  -2   7  10       11.57      0.75
  -1   7  10        4.34      0.35
   0   7  10      131.05      3.42
   1   7  10       14.03      0.79
   2   7  10      120.52      3.61
   3   7  10       47.80      1.59
   4   7  10       30.39      1.56
   5   7  10       55.03      1.87
   6   7  10        0.42      0.07
   7   7  10        1.65      0.16
   8   7  10        8.54      0.77
   9   7  10       11.87      1.15
  10   7  10        2.58      0.33
  11   7  10        2.03      0.30
  12   7  10        4.49      0.59
  13   7  10        2.57      0.39
  14   7  10        2.57      0.44
 -16   8  10        3.01      0.54
 -15   8  10        3.28      0.49
 -14   8  10        9.35      1.30
 -13   8  10       24.09      3.53
 -12   8  10        3.33      0.40
 -11   8  10        2.04      0.21
 -10   8  10        5.69      0.59
  -9   8  10        1.93      0.21
  -8   8  10       20.02      2.14
  -7   8  10        5.28      0.47
  -6   8  10       19.73      1.50
  -5   8  10       21.27      1.55
  -4   8  10        5.84      0.53
  -3   8  10        4.54      0.46
  -2   8  10       81.65      2.43
  -1   8  10        5.34      0.51
   0   8  10        7.25      0.67
   1   8  10       24.94      1.77
   2   8  10        3.87      0.36
   3   8  10        9.76      0.90
   4   8  10        1.50      0.22
   5   8  10       27.46      2.21
   6   8  10        4.78      0.51
   7   8  10        2.54      0.32
   8   8  10       22.21      2.47
   9   8  10        5.65      0.70
  10   8  10       24.17      3.06
  11   8  10        9.97      1.55
  12   8  10        5.62      1.10
 -13   9  10        2.85      0.48
 -12   9  10        1.19      0.18
 -11   9  10        6.33      0.96
 -10   9  10       10.12      1.54
  -9   9  10       14.36      1.77
  -8   9  10        3.04      0.37
  -7   9  10        6.13      0.74
  -6   9  10       11.74      1.28
  -5   9  10        4.70      0.51
  -4   9  10        4.33      0.61
  -3   9  10       24.69      2.76
  -2   9  10        0.35      0.12
  -1   9  10        6.01      0.72
   0   9  10        5.96      0.76
   1   9  10        6.05      0.72
   2   9  10        8.21      0.95
   3   9  10        3.42      0.49
   4   9  10        5.34      0.70
   5   9  10        6.27      0.81
   6   9  10        2.20      0.29
   7   9  10        5.02      0.69
   8   9  10        4.80      0.77
   9   9  10        0.37      0.14
  -9  10  10        7.51      1.32
  -8  10  10        1.96      0.31
  -7  10  10        6.08      1.05
  -6  10  10       11.03      1.72
  -5  10  10       21.30      3.56
  -4  10  10        6.19      1.09
  -3  10  10       18.41      3.18
  -2  10  10        2.19      0.35
  -1  10  10        4.54      0.71
   0  10  10       17.78      3.18
   1  10  10        0.74      0.22
   2  10  10        0.19      0.10
   3  10  10       16.86      3.11
   4  10  10        3.26      0.55
   5  10  10        2.39      0.47
 -23   0  11        0.45      0.27
 -22   0  11       10.90      2.38
 -21   0  11       13.33      2.52
 -20   0  11        8.97      1.31
 -19   0  11        0.88      0.27
 -18   0  11        0.59      0.18
 -17   0  11        0.23      0.18
 -16   0  11       57.39      2.05
 -15   0  11        3.41      0.30
 -14   0  11        0.11      0.12
 -13   0  11       72.41      2.63
 -12   0  11       21.01      1.01
 -11   0  11       81.16      2.58
 -10   0  11       85.48      3.03
  -9   0  11       40.21      1.53
  -8   0  11       25.60      1.37
  -7   0  11       57.01      1.89
  -6   0  11       19.35      1.36
  -5   0  11        3.01      0.26
  -4   0  11       17.87      1.74
  -3   0  11       77.43      2.77
  -2   0  11      143.85      3.79
  -1   0  11        0.07      0.01
   0   0  11        9.46      1.02
   1   0  11        0.39      0.15
   2   0  11        6.43      0.53
   3   0  11       90.29      3.02
   4   0  11        5.47      0.38
   5   0  11        6.51      0.39
   6   0  11       28.47      1.25
   7   0  11       61.38      1.99
   8   0  11        1.40      0.15
   9   0  11       14.11      0.86
  10   0  11       14.20      0.95
  11   0  11        0.13      0.10
  12   0  11       32.09      2.17
  13   0  11        2.61      0.38
  14   0  11       11.64      1.53
  15   0  11       48.84      4.37
  16   0  11        3.89      0.85
  17   0  11        1.67      0.37
  18   0  11       50.67      9.72
  19   0  11        2.66      1.10
 -23   1  11        6.05      1.19
 -22   1  11       29.48      4.45
 -21   1  11        4.78      0.63
 -20   1  11       10.67      1.16
 -19   1  11       36.86      2.72
 -18   1  11       32.18      2.00
 -17   1  11        7.13      0.50
 -16   1  11        0.42      0.10
 -15   1  11       21.62      0.99
 -14   1  11       99.76      2.94
 -13   1  11       12.75      0.58
 -12   1  11       36.25      1.12
 -11   1  11      231.25      5.58
 -10   1  11       16.48      0.65
  -9   1  11        9.11      0.49
  -8   1  11        9.60      0.44
  -7   1  11       16.36      0.77
  -6   1  11        5.56      0.34
  -5   1  11      118.20      2.89
  -4   1  11       76.59      1.97
  -3   1  11      111.30      2.67
  -2   1  11       44.35      1.82
  -1   1  11      500.84     11.98
   0   1  11      116.16      2.89
   1   1  11      131.30      3.35
   2   1  11      392.49      9.58
   3   1  11       72.24      1.91
   4   1  11       42.62      1.28
   5   1  11      233.21      5.77
   6   1  11       40.86      1.19
   7   1  11      105.03      2.52
   8   1  11      105.61      2.70
   9   1  11       31.99      1.09
  10   1  11       93.93      2.39
  11   1  11       25.46      1.24
  12   1  11       13.69      0.95
  13   1  11       30.30      1.87
  14   1  11        8.72      0.75
  15   1  11        1.13      0.26
  16   1  11        9.04      1.05
  17   1  11       12.82      1.82
  18   1  11        0.89      0.17
  19   1  11        1.27      0.27
 -23   2  11        2.40      0.44
 -22   2  11        4.53      0.69
 -21   2  11        5.67      0.73
 -20   2  11        3.43      0.43
 -19   2  11        5.60      0.72
 -18   2  11       81.15      2.17
 -17   2  11        1.02      0.16
 -16   2  11        0.21      0.24
 -15   2  11      138.05      4.38
 -14   2  11        4.64      0.31
 -13   2  11        6.97      0.38
 -12   2  11       42.11      1.15
 -11   2  11       17.79      0.73
 -10   2  11       12.70      0.54
  -9   2  11        1.40      0.12
  -8   2  11       52.50      1.33
  -7   2  11        2.78      0.14
  -6   2  11        3.10      0.17
  -5   2  11      117.74      2.88
  -4   2  11       34.02      1.32
  -3   2  11       31.52      1.36
  -2   2  11       90.10      2.31
  -1   2  11       11.65      0.59
   0   2  11        1.80      0.12
   1   2  11       53.16      1.53
   2   2  11       35.50      1.25
   3   2  11        6.76      0.33
   4   2  11      101.91      2.43
   5   2  11      140.40      3.42
   6   2  11       13.30      0.64
   7   2  11       36.38      1.09
   8   2  11       36.42      1.11
   9   2  11       22.14      0.89
  10   2  11       38.33      1.33
  11   2  11       13.71      0.80
  12   2  11       23.98      1.27
  13   2  11       31.66      1.82
  14   2  11       22.13      1.70
  15   2  11        8.16      0.83
  16   2  11        6.40      0.76
  17   2  11       20.60      3.50
  18   2  11        0.43      0.13
 -22   3  11        3.86      0.62
 -21   3  11        1.35      0.20
 -20   3  11       18.32      2.20
 -19   3  11        9.43      1.16
 -18   3  11       27.22      2.25
 -17   3  11        5.63      0.54
 -16   3  11       79.50      2.17
 -15   3  11        8.38      0.56
 -14   3  11       31.44      1.42
 -13   3  11       11.20      0.60
 -12   3  11        7.65      0.39
 -11   3  11        6.90      0.34
 -10   3  11        3.95      0.20
  -9   3  11       19.06      0.73
  -8   3  11       12.24      0.51
  -7   3  11       19.84      0.79
  -6   3  11       82.43      2.22
  -5   3  11       28.31      0.96
  -4   3  11       30.02      1.11
  -3   3  11       90.97      2.19
  -2   3  11       44.08      1.34
  -1   3  11       59.56      1.48
   0   3  11       10.63      0.48
   1   3  11        1.47      0.07
   2   3  11        5.55      0.27
   3   3  11      186.49      4.58
   4   3  11       13.49      0.57
   5   3  11        4.36      0.21
   6   3  11      293.43      7.16
   7   3  11       22.32      0.86
   8   3  11        9.78      0.48
   9   3  11      121.22      3.27
  10   3  11        0.35      0.15
  11   3  11       15.82      1.04
  12   3  11        9.68      0.71
  13   3  11        2.91      0.27
  14   3  11        4.75      0.48
  15   3  11        4.09      0.49
  16   3  11       22.63      2.49
  17   3  11        3.10      0.47
  18   3  11        0.54      0.14
 -21   4  11        1.56      0.32
 -20   4  11       11.07      1.61
 -19   4  11       24.06      2.80
 -18   4  11       18.47      2.22
 -17   4  11        0.35      0.14
 -16   4  11        8.53      0.79
 -15   4  11        5.51      0.45
 -14   4  11       12.00      0.77
 -13   4  11        2.44      0.16
 -12   4  11        5.00      0.29
 -11   4  11       21.24      0.93
 -10   4  11       40.93      1.20
  -9   4  11        6.13      0.30
  -8   4  11       31.18      1.02
  -7   4  11       91.27      2.17
  -6   4  11       20.28      0.76
  -5   4  11       59.16      1.42
  -4   4  11      148.11      3.59
  -3   4  11       97.51      2.67
  -2   4  11       53.11      1.53
  -1   4  11       21.76      0.85
   0   4  11       68.45      1.71
   1   4  11      118.85      3.15
   2   4  11       39.94      1.12
   3   4  11      129.11      3.37
   4   4  11       97.72      2.40
   5   4  11       24.48      0.89
   6   4  11       42.80      1.24
   7   4  11       90.01      2.40
   8   4  11       45.03      1.36
   9   4  11        4.83      0.33
  10   4  11       32.36      1.56
  11   4  11       25.92      1.81
  12   4  11        6.56      0.54
  13   4  11        3.94      0.41
  14   4  11       21.47      2.23
  15   4  11       13.87      1.66
  16   4  11        5.67      0.90
  17   4  11        0.60      0.18
 -20   5  11       21.50      3.59
 -19   5  11        1.02      0.21
 -18   5  11        7.12      1.10
 -17   5  11       18.63      1.99
 -16   5  11       20.38      1.82
 -15   5  11       18.84      1.62
 -14   5  11        4.72      0.42
 -13   5  11       16.94      1.13
 -12   5  11        0.33      0.08
 -11   5  11        8.87      0.54
 -10   5  11        4.24      0.25
  -9   5  11       31.86      1.15
  -8   5  11       51.48      1.35
  -7   5  11       17.14      0.73
  -6   5  11       82.09      2.38
  -5   5  11      104.63      2.63
  -4   5  11       21.52      0.88
  -3   5  11       55.23      1.86
  -2   5  11       92.66      2.48
  -1   5  11      110.15      3.16
   0   5  11       26.64      0.93
   1   5  11       73.69      1.96
   2   5  11       25.58      0.95
   3   5  11        6.35      0.32
   4   5  11       21.23      0.89
   5   5  11        1.42      0.13
   6   5  11        9.52      0.56
   7   5  11       16.40      0.91
   8   5  11        0.95      0.11
   9   5  11        3.54      0.28
  10   5  11        1.60      0.17
  11   5  11       10.94      0.98
  12   5  11        8.40      0.79
  13   5  11        4.50      0.50
  14   5  11       39.06      3.68
  15   5  11        0.34      0.22
  16   5  11       12.23      2.30
 -19   6  11        1.01      0.18
 -18   6  11        1.32      0.21
 -17   6  11        6.65      0.95
 -16   6  11        7.24      1.01
 -15   6  11        0.39      0.14
 -14   6  11        6.18      0.58
 -13   6  11       36.07      2.30
 -12   6  11        4.34      0.36
 -11   6  11       52.13      1.84
 -10   6  11        1.82      0.13
  -9   6  11        8.01      0.54
  -8   6  11       50.71      1.46
  -7   6  11       47.96      1.37
  -6   6  11       26.12      1.10
  -5   6  11       29.01      1.24
  -4   6  11       90.43      2.23
  -3   6  11       41.88      1.47
  -2   6  11        5.12      0.33
  -1   6  11       99.42      2.43
   0   6  11       80.77      2.21
   1   6  11        0.83      0.13
   2   6  11       49.98      1.51
   3   6  11       28.23      1.29
   4   6  11       42.40      1.42
   5   6  11       22.11      1.17
   6   6  11        3.78      0.28
   7   6  11       16.83      1.17
   8   6  11       30.79      1.76
   9   6  11       28.69      2.07
  10   6  11        0.68      0.13
  11   6  11       38.90      2.92
  12   6  11       10.26      1.22
  13   6  11        1.35      0.25
  14   6  11        0.04      0.05
  15   6  11        6.45      1.07
 -18   7  11        4.06      0.82
 -17   7  11       21.38      3.72
 -16   7  11       11.95      1.90
 -15   7  11        7.58      1.11
 -14   7  11       44.63      4.13
 -13   7  11       38.25      3.38
 -12   7  11       10.64      1.07
 -11   7  11       76.08      2.45
 -10   7  11       36.75      2.33
  -9   7  11        1.11      0.18
  -8   7  11        4.68      0.37
  -7   7  11       18.41      1.23
  -6   7  11       13.09      0.97
  -5   7  11        4.77      0.38
  -4   7  11       11.25      0.81
  -3   7  11        0.25      0.11
  -2   7  11        1.65      0.15
  -1   7  11       11.42      0.76
   0   7  11       12.79      0.85
   1   7  11       14.48      0.97
   2   7  11        8.26      0.60
   3   7  11       27.16      1.65
   4   7  11       22.07      1.56
   5   7  11        1.62      0.18
   6   7  11       49.06      2.49
   7   7  11        6.00      0.58
   8   7  11       13.55      1.25
   9   7  11       19.05      1.98
  10   7  11        0.80      0.12
  11   7  11        6.76      0.97
  12   7  11        5.08      0.78
  13   7  11        0.30      0.15
 -15   8  11       15.35      2.57
 -14   8  11        0.18      0.16
 -13   8  11        9.16      1.50
 -12   8  11        3.69      0.46
 -11   8  11        1.31      0.23
 -10   8  11        0.18      0.20
  -9   8  11       17.36      1.84
  -8   8  11        4.84      0.46
  -7   8  11        0.98      0.16
  -6   8  11        0.54      0.13
  -5   8  11       16.94      1.42
  -4   8  11        0.09      0.11
  -3   8  11       27.21      2.28
  -2   8  11       30.48      2.29
  -1   8  11       39.61      2.65
   0   8  11        8.46      0.83
   1   8  11       12.08      1.03
   2   8  11        8.84      0.79
   3   8  11        0.13      0.15
   4   8  11        3.85      0.42
   5   8  11       14.48      1.38
   6   8  11        1.06      0.15
   7   8  11        6.34      0.77
   8   8  11       13.30      1.68
   9   8  11       23.48      2.93
  10   8  11        0.13      0.15
  11   8  11        2.09      0.39
 -13   9  11        6.87      1.25
 -12   9  11        4.13      0.75
 -11   9  11        6.68      1.04
 -10   9  11        3.70      0.57
  -9   9  11        5.56      0.78
  -8   9  11       10.17      1.31
  -7   9  11        2.50      0.33
  -6   9  11        1.97      0.26
  -5   9  11       22.83      2.59
  -4   9  11        1.57      0.25
  -3   9  11       22.91      3.05
  -2   9  11       17.81      2.35
  -1   9  11       18.41      2.14
   0   9  11        0.82      0.24
   1   9  11        7.00      0.99
   2   9  11       16.53      1.97
   3   9  11        5.42      0.79
   4   9  11        2.69      0.41
   5   9  11       25.96      2.96
   6   9  11        5.98      0.82
   7   9  11       11.87      1.69
   8   9  11        3.02      0.54
  -8  10  11        2.85      0.49
  -7  10  11        2.84      0.54
  -6  10  11        6.29      1.10
  -5  10  11        6.89      1.22
  -4  10  11       13.16      2.33
  -3  10  11       13.25      2.51
  -2  10  11       10.55      1.79
  -1  10  11        2.07      0.35
   0  10  11        5.83      1.00
   1  10  11       10.96      2.27
   2  10  11        0.22      0.15
   3  10  11        0.46      0.22
   4  10  11        1.88      0.37
 -23   0  12       29.48      5.83
 -22   0  12       12.60      2.82
 -21   0  12        3.04      0.63
 -20   0  12       31.86      4.52
 -19   0  12       16.60      2.61
 -18   0  12        1.95      0.31
 -17   0  12       16.07      1.45
 -16   0  12       58.30      2.43
 -15   0  12        3.14      0.30
 -14   0  12        0.29      0.06
 -13   0  12        2.36      0.22
 -12   0  12       25.66      1.19
 -11   0  12        3.71      0.25
 -10   0  12       23.19      1.07
  -9   0  12       11.85      0.78
  -8   0  12        0.36      0.14
  -7   0  12       26.47      1.63
  -6   0  12      124.93      3.14
  -5   0  12        0.20      0.12
  -4   0  12       51.84      2.45
  -3   0  12       73.66      2.43
  -2   0  12       44.18      3.06
  -1   0  12       62.18      2.66
   0   0  12       12.11      0.88
   1   0  12       35.64      1.80
   2   0  12      103.18      3.17
   3   0  12       63.23      1.63
   4   0  12      343.54     10.42
   5   0  12       57.45      1.65
   6   0  12       19.05      1.05
   7   0  12      165.17      5.02
   8   0  12       13.24      0.80
   9   0  12       22.71      1.33
  10   0  12       34.49      1.78
  11   0  12       69.64      2.27
  12   0  12        2.93      0.41
  14   0  12        2.10      0.32
  15   0  12        8.15      1.53
  16   0  12        5.99      1.19
  17   0  12        0.18      0.10
  18   0  12        0.67      0.24
 -23   1  12        4.95      0.91
 -22   1  12        1.29      0.21
 -21   1  12        5.01      0.64
 -20   1  12        4.97      0.61
 -19   1  12        7.35      0.73
 -18   1  12        6.03      0.52
 -17   1  12       34.83      2.02
 -16   1  12        3.33      0.24
 -15   1  12       37.49      1.46
 -14   1  12       67.49      1.93
 -13   1  12       38.89      1.16
 -12   1  12        6.57      0.33
 -11   1  12       80.49      2.17
 -10   1  12       15.86      0.65
  -9   1  12        6.42      0.31
  -8   1  12       24.69      1.00
  -7   1  12        4.06      0.21
  -6   1  12       70.67      1.69
  -5   1  12       51.17      1.56
  -4   1  12       28.67      1.21
  -3   1  12       51.23      1.62
  -2   1  12       69.04      1.67
  -1   1  12       78.16      2.28
   0   1  12       46.86      1.51
   1   1  12       76.91      1.99
   2   1  12       35.92      1.41
   3   1  12       20.62      0.87
   4   1  12       41.78      1.18
   5   1  12       51.14      1.40
   6   1  12        5.39      0.28
   7   1  12        6.70      0.35
   8   1  12       26.13      1.03
   9   1  12       27.89      1.09
  10   1  12        3.24      0.22
  11   1  12       13.11      0.81
  12   1  12        7.94      0.62
  13   1  12       13.53      1.05
  14   1  12       14.93      1.77
  15   1  12        0.80      0.14
  16   1  12        7.12      0.93
  17   1  12        6.11      0.95
  18   1  12       11.46      2.27
 -22   2  12        2.46      0.45
 -21   2  12        4.23      0.57
 -20   2  12        9.53      1.13
 -19   2  12        0.73      0.16
 -18   2  12       43.61      2.64
 -17   2  12       27.59      1.74
 -16   2  12        8.18      0.59
 -15   2  12       17.93      1.12
 -14   2  12       99.57      2.80
 -13   2  12       14.26      0.72
 -12   2  12       50.66      1.24
 -11   2  12       52.47      1.43
 -10   2  12       51.97      1.26
  -9   2  12       79.54      2.04
  -8   2  12       15.29      0.61
  -7   2  12       74.29      1.92
  -6   2  12       26.56      1.09
  -5   2  12       29.05      1.02
  -4   2  12       22.03      0.93
  -3   2  12       31.28      1.10
  -2   2  12       59.42      1.57
  -1   2  12       22.04      0.94
   0   2  12       26.51      1.11
   1   2  12       77.19      1.86
   2   2  12       62.32      1.70
   3   2  12       12.61      0.56
   4   2  12        5.27      0.26
   5   2  12       70.35      1.68
   6   2  12       11.63      0.57
   7   2  12       11.09      0.55
   8   2  12       58.34      1.59
   9   2  12       32.84      1.18
  10   2  12       20.13      1.06
  11   2  12       17.53      1.06
  12   2  12        8.26      0.68
  13   2  12       64.69      2.21
  14   2  12       13.74      1.27
  15   2  12        2.79      0.33
  16   2  12       24.87      3.18
  17   2  12        2.37      0.36
  18   2  12        8.74      1.43
 -22   3  12        1.01      0.18
 -21   3  12        0.55      0.14
 -20   3  12        9.62      1.29
 -19   3  12       13.85      1.69
 -18   3  12        1.85      0.25
 -17   3  12        2.23      0.22
 -16   3  12       87.02      2.54
 -15   3  12       20.09      1.32
 -14   3  12        9.18      0.63
 -13   3  12       17.87      1.07
 -12   3  12       42.69      1.30
 -11   3  12       33.84      1.15
 -10   3  12       36.75      1.11
  -9   3  12       48.30      1.19
  -8   3  12       85.51      2.16
  -7   3  12       15.11      0.64
  -6   3  12       36.58      1.10
  -5   3  12       13.02      0.55
  -4   3  12        1.69      0.08
  -3   3  12      233.60      6.03
  -2   3  12       29.54      1.04
  -1   3  12        7.78      0.34
   0   3  12       90.35      2.30
   1   3  12       30.15      0.99
   2   3  12       56.15      1.39
   3   3  12       19.87      0.75
   4   3  12        1.80      0.10
   5   3  12       29.94      1.03
   6   3  12       10.41      0.52
   7   3  12       13.48      0.63
   8   3  12       30.88      1.23
   9   3  12       10.05      0.60
  10   3  12       20.97      1.20
  11   3  12       73.97      1.88
  12   3  12       19.30      1.63
  13   3  12        8.76      0.91
  14   3  12       36.10      3.01
  15   3  12       14.79      1.89
  16   3  12        3.22      0.46
  17   3  12        6.59      1.06
 -21   4  12        7.29      1.36
 -20   4  12        2.21      0.39
 -19   4  12        5.21      0.85
 -18   4  12       29.76      3.29
 -17   4  12        1.91      0.28
 -16   4  12       23.18      2.22
 -15   4  12        6.45      0.56
 -14   4  12        7.42      0.57
 -13   4  12       12.32      0.75
 -12   4  12       29.11      1.29
 -11   4  12       11.62      0.60
 -10   4  12        7.35      0.39
  -9   4  12       32.49      1.12
  -8   4  12       86.57      2.15
  -7   4  12       14.35      0.62
  -6   4  12        7.33      0.33
  -5   4  12       12.34      0.52
  -4   4  12        4.63      0.24
  -3   4  12       13.45      0.61
  -2   4  12       44.85      1.22
  -1   4  12       37.04      1.09
   0   4  12        0.60      0.10
   1   4  12      223.48      5.74
   2   4  12       35.12      1.07
   3   4  12        3.92      0.20
   4   4  12       23.59      0.92
   5   4  12       27.67      1.05
   6   4  12       17.12      0.87
   7   4  12       23.88      1.09
   8   4  12       25.95      1.30
   9   4  12        1.11      0.14
  10   4  12        2.29      0.20
  11   4  12       26.96      2.04
  12   4  12        1.80      0.23
  13   4  12       23.20      2.35
  14   4  12        4.07      0.49
  15   4  12        3.24      0.51
  16   4  12        6.04      1.11
  17   4  12        2.93      0.56
 -20   5  12        0.07      0.09
 -19   5  12       38.69      4.75
 -18   5  12       30.02      3.97
 -17   5  12        1.30      0.16
 -16   5  12        7.85      0.84
 -15   5  12       31.17      2.42
 -14   5  12        8.76      0.77
 -13   5  12        5.94      0.45
 -12   5  12       32.17      1.67
 -11   5  12        2.50      0.17
 -10   5  12        6.11      0.38
  -9   5  12       28.35      1.17
  -8   5  12       34.09      1.21
  -7   5  12       13.59      0.64
  -6   5  12       25.95      1.06
  -5   5  12        6.96      0.37
  -4   5  12        6.83      0.39
  -3   5  12        0.75      0.08
  -2   5  12       50.62      1.38
  -1   5  12        0.86      0.13
   0   5  12       30.24      1.09
   1   5  12      180.88      4.54
   2   5  12       87.96      2.12
   3   5  12        7.80      0.42
   4   5  12      128.76      3.15
   5   5  12       59.77      1.67
   6   5  12       23.37      1.25
   7   5  12        4.77      0.35
   8   5  12       15.71      0.99
   9   5  12        8.04      0.65
  10   5  12       27.70      1.97
  11   5  12       21.94      1.86
  12   5  12        1.41      0.19
  13   5  12        9.35      1.13
  14   5  12        3.11      0.44
  15   5  12        2.62      0.38
  16   5  12        3.90      0.85
 -19   6  12        0.87      0.16
 -18   6  12        6.04      0.92
 -17   6  12        2.39      0.42
 -16   6  12        8.86      1.17
 -15   6  12       60.93      3.52
 -14   6  12        3.15      0.36
 -13   6  12       33.49      2.51
 -12   6  12       94.44      2.72
 -11   6  12        5.74      0.43
 -10   6  12       14.54      1.03
  -9   6  12       64.81      1.86
  -8   6  12       17.56      0.97
  -7   6  12       19.01      0.98
  -6   6  12        3.55      0.23
  -5   6  12       14.48      0.79
  -4   6  12       15.06      0.83
  -3   6  12        4.94      0.32
  -2   6  12       26.19      1.24
  -1   6  12        5.84      0.39
   0   6  12        2.51      0.15
   1   6  12        0.26      0.08
   2   6  12        3.00      0.19
   3   6  12        0.65      0.11
   4   6  12       26.46      1.47
   5   6  12       24.38      1.39
   6   6  12        7.30      0.53
   7   6  12       17.56      1.31
   8   6  12       14.87      1.18
   9   6  12       14.90      1.33
  10   6  12        9.74      0.96
  11   6  12        3.32      0.39
  12   6  12        2.78      0.41
  13   6  12        2.91      0.53
  14   6  12        1.87      0.30
 -17   7  12        7.54      1.24
 -16   7  12        9.45      1.51
 -15   7  12       10.53      1.43
 -14   7  12        3.77      0.50
 -13   7  12        1.62      0.18
 -12   7  12       15.91      1.51
 -11   7  12        8.49      0.86
 -10   7  12       10.17      0.95
  -9   7  12        5.42      0.47
  -8   7  12        0.27      0.11
  -7   7  12       34.18      2.39
  -6   7  12       19.19      1.40
  -5   7  12       13.57      0.99
  -4   7  12        8.75      0.77
  -3   7  12        4.88      0.42
  -2   7  12        3.68      0.32
  -1   7  12        9.87      0.76
   0   7  12        5.50      0.40
   1   7  12       13.84      0.94
   2   7  12       45.45      2.03
   3   7  12        1.16      0.12
   4   7  12        7.15      0.62
   5   7  12        6.38      0.55
   6   7  12        7.12      0.68
   7   7  12        2.83      0.27
   8   7  12        1.10      0.14
   9   7  12        3.07      0.39
  10   7  12        5.96      0.87
  11   7  12        3.77      0.55
  12   7  12        8.07      1.27
  13   7  12        5.46      1.06
 -15   8  12        5.64      1.01
 -14   8  12        9.95      1.57
 -13   8  12        3.60      0.53
 -12   8  12        5.84      0.79
 -11   8  12        1.95      0.25
 -10   8  12       10.13      1.12
  -9   8  12        4.98      0.60
  -8   8  12       16.30      1.92
  -7   8  12        6.31      0.71
  -6   8  12        8.24      0.82
  -5   8  12       48.27      3.47
  -4   8  12       41.38      3.48
  -3   8  12        1.53      0.21
  -2   8  12       29.53      2.88
  -1   8  12       39.50      2.79
   0   8  12        5.18      0.54
   1   8  12        4.35      0.52
   2   8  12        6.35      0.71
   3   8  12        1.80      0.19
   4   8  12        5.54      0.68
   5   8  12       12.32      1.40
   6   8  12       13.03      1.45
   7   8  12        5.00      0.68
   8   8  12       13.02      1.75
   9   8  12        6.42      0.96
  10   8  12       15.23      2.56
 -12   9  12        2.60      0.49
 -11   9  12        0.68      0.18
 -10   9  12        4.30      0.64
  -9   9  12        0.47      0.12
  -8   9  12        3.50      0.54
  -7   9  12        1.23      0.20
  -6   9  12       11.89      1.61
  -5   9  12        8.26      1.16
  -4   9  12        6.08      0.91
  -3   9  12        4.65      0.69
  -2   9  12       20.59      3.11
  -1   9  12       19.67      2.90
   0   9  12       17.43      2.24
   1   9  12        3.02      0.46
   2   9  12       16.01      2.43
   3   9  12        9.18      1.24
   4   9  12        6.51      1.05
   5   9  12        5.88      0.93
   6   9  12        0.82      0.21
   7   9  12        6.99      1.19
  -6  10  12        3.14      0.64
  -5  10  12       10.63      2.13
  -4  10  12        2.91      0.62
  -3  10  12        0.06      0.06
  -2  10  12        7.76      1.47
  -1  10  12        5.88      1.21
   0  10  12        1.75      0.29
   1  10  12        2.47      0.50
   2  10  12       15.07      2.71
 -22   0  13        0.33      0.30
 -21   0  13        8.51      1.89
 -20   0  13        0.36      0.34
 -19   0  13       11.58      1.91
 -18   0  13        0.02      0.02
 -17   0  13        0.13      0.11
 -16   0  13        2.92      0.32
 -15   0  13      109.72      2.89
 -14   0  13        0.09      0.07
 -13   0  13        0.31      0.11
 -12   0  13      108.62      2.87
 -11   0  13       53.40      1.93
 -10   0  13       40.21      1.72
  -9   0  13       77.31      2.03
  -8   0  13        3.58      0.27
  -7   0  13      146.09      4.04
  -6   0  13       17.42      1.20
  -5   0  13       22.74      1.99
  -4   0  13      104.80      5.77
  -3   0  13        0.11      0.06
  -2   0  13        9.00      0.72
  -1   0  13       40.74      2.09
   0   0  13      136.17      3.42
   1   0  13        2.37      0.18
   2   0  13       13.48      0.98
   3   0  13      448.62     12.62
   4   0  13      101.95      4.22
   5   0  13       26.88      1.37
   6   0  13      190.78      5.54
   7   0  13       35.04      2.13
   8   0  13        2.30      0.20
   9   0  13       28.24      1.65
  10   0  13       18.50      1.53
  11   0  13        0.74      0.19
  12   0  13       63.19      2.92
  13   0  13        0.16      0.12
  14   0  13        0.30      0.34
  15   0  13       12.99      2.76
  16   0  13       16.24      3.10
  17   0  13        2.51      0.74
 -22   1  13        3.18      0.59
 -21   1  13       17.26      2.47
 -20   1  13        0.75      0.16
 -19   1  13       29.85      3.13
 -18   1  13        8.24      0.80
 -17   1  13        5.90      0.53
 -16   1  13       39.31      1.93
 -15   1  13        8.08      0.53
 -14   1  13        8.31      0.50
 -13   1  13       21.14      0.95
 -12   1  13       70.48      1.82
 -11   1  13       38.24      1.12
 -10   1  13        1.62      0.16
  -9   1  13       46.07      1.36
  -8   1  13       27.15      1.05
  -7   1  13       20.93      0.85
  -6   1  13        8.83      0.46
  -5   1  13       35.47      1.25
  -4   1  13        9.74      0.57
  -3   1  13       41.20      1.34
  -2   1  13        9.11      0.50
  -1   1  13        0.68      0.05
   0   1  13       82.11      2.07
   1   1  13       39.54      1.27
   2   1  13        3.82      0.20
   3   1  13       19.64      0.85
   4   1  13       34.36      1.14
   5   1  13        5.49      0.29
   6   1  13       40.12      1.19
   7   1  13       11.26      0.56
   8   1  13        3.27      0.20
   9   1  13        0.62      0.10
  10   1  13        9.88      0.65
  11   1  13        9.05      0.79
  12   1  13        0.92      0.18
  13   1  13       13.76      1.43
  14   1  13       10.31      1.05
  15   1  13       20.05      2.77
  16   1  13        2.32      0.31
  17   1  13        5.17      0.89
 -22   2  13        2.27      0.40
 -21   2  13        1.65      0.25
 -20   2  13        1.18      0.16
 -19   2  13        5.14      0.58
 -18   2  13        8.62      0.80
 -17   2  13        0.48      0.16
 -16   2  13       28.57      1.93
 -15   2  13       24.24      1.43
 -14   2  13        2.76      0.20
 -13   2  13       44.79      1.36
 -12   2  13       70.94      1.97
 -11   2  13      113.20      2.93
 -10   2  13       24.62      0.97
  -9   2  13       44.69      1.22
  -8   2  13      138.89      3.40
  -7   2  13       20.66      0.87
  -6   2  13       82.94      2.31
  -5   2  13       65.29      1.65
  -4   2  13       50.95      1.51
  -3   2  13       35.35      1.31
  -2   2  13       18.29      0.75
  -1   2  13       64.52      1.71
   0   2  13       34.98      1.16
   1   2  13        1.73      0.10
   2   2  13        5.72      0.32
   3   2  13       31.38      1.07
   4   2  13       35.10      1.11
   5   2  13        3.36      0.19
   6   2  13       19.71      0.90
   7   2  13       45.12      1.30
   8   2  13       42.77      1.33
   9   2  13       15.51      0.96
  10   2  13       13.62      0.90
  11   2  13        0.86      0.15
  12   2  13       15.91      1.28
  13   2  13        3.40      0.35
  14   2  13       20.13      2.02
  15   2  13        4.23      0.55
  16   2  13       16.65      2.63
  17   2  13       17.81      2.86
 -21   3  13        6.10      0.94
 -20   3  13        1.91      0.29
 -19   3  13        3.57      0.48
 -18   3  13        1.90      0.24
 -17   3  13        6.44      0.68
 -16   3  13       13.56      1.27
 -15   3  13        0.33      0.07
 -14   3  13       15.06      1.04
 -13   3  13        8.29      0.54
 -12   3  13        8.03      0.46
 -11   3  13        1.43      0.10
 -10   3  13       30.42      1.17
  -9   3  13       35.08      1.15
  -8   3  13       25.79      0.96
  -7   3  13       22.91      0.84
  -6   3  13       32.90      1.09
  -5   3  13       19.52      0.81
  -4   3  13       13.25      0.60
  -3   3  13       45.88      1.23
  -2   3  13       82.93      2.18
  -1   3  13       33.58      1.09
   0   3  13       56.14      1.49
   1   3  13       22.60      0.84
   2   3  13       30.82      1.03
   3   3  13       22.45      0.91
   4   3  13       17.43      0.80
   5   3  13       35.58      1.16
   6   3  13       35.70      1.37
   7   3  13       13.36      0.73
   8   3  13        6.86      0.45
   9   3  13        0.62      0.11
  10   3  13       46.96      1.87
  11   3  13        0.62      0.10
  12   3  13        2.87      0.30
  13   3  13       15.01      1.73
  14   3  13        1.19      0.17
  15   3  13        0.92      0.16
  16   3  13        6.51      1.01
  17   3  13       19.36      3.62
 -21   4  13        4.31      0.99
 -20   4  13        8.17      1.37
 -19   4  13       19.57      2.69
 -18   4  13        4.09      0.52
 -17   4  13       24.97      2.22
 -16   4  13       24.73      2.10
 -15   4  13        4.90      0.44
 -14   4  13       40.03      1.98
 -13   4  13       56.80      1.67
 -12   4  13       20.36      1.10
 -11   4  13       14.61      0.81
 -10   4  13       29.33      1.28
  -9   4  13       26.57      1.21
  -8   4  13        4.08      0.22
  -7   4  13       35.62      1.23
  -6   4  13       28.28      1.01
  -5   4  13       49.91      1.46
  -4   4  13       43.66      1.20
  -3   4  13       30.70      1.10
  -2   4  13       57.14      1.43
  -1   4  13      167.55      4.04
   0   4  13       45.19      1.22
   1   4  13       44.74      1.18
   2   4  13       23.07      0.90
   3   4  13       24.04      0.95
   4   4  13       10.85      0.59
   5   4  13       59.16      1.49
   6   4  13       21.06      1.03
   7   4  13       45.24      1.55
   8   4  13      115.92      3.36
   9   4  13       18.54      1.16
  10   4  13       21.88      1.63
  11   4  13        2.64      0.31
  12   4  13        6.85      0.87
  13   4  13       11.54      1.38
  14   4  13       14.68      1.94
  15   4  13        2.94      0.50
  16   4  13        1.64      0.33
 -20   5  13        2.12      0.47
 -19   5  13        1.53      0.29
 -18   5  13        3.24      0.50
 -17   5  13        2.57      0.36
 -16   5  13       15.85      1.64
 -15   5  13        6.46      0.73
 -14   5  13       22.91      2.68
 -13   5  13       44.05      2.35
 -12   5  13        1.18      0.11
 -11   5  13       28.49      1.63
 -10   5  13       27.08      1.33
  -9   5  13        6.58      0.43
  -8   5  13        3.74      0.23
  -7   5  13        3.55      0.23
  -6   5  13        0.09      0.07
  -5   5  13       10.62      0.63
  -4   5  13       40.33      1.30
  -3   5  13       44.84      1.32
  -2   5  13       12.42      0.73
  -1   5  13       13.12      0.65
   0   5  13        9.97      0.53
   1   5  13       96.26      2.59
   2   5  13        3.22      0.21
   3   5  13       17.14      0.89
   4   5  13      100.57      2.59
   5   5  13       11.89      0.75
   6   5  13        6.20      0.45
   7   5  13       18.21      1.21
   8   5  13       37.78      2.17
   9   5  13        3.39      0.34
  10   5  13        7.35      0.71
  11   5  13        6.15      0.73
  12   5  13        3.01      0.42
  13   5  13        1.36      0.20
  14   5  13        7.28      1.28
  15   5  13        4.89      1.00
 -18   6  13        5.73      0.95
 -17   6  13        1.85      0.32
 -16   6  13        0.29      0.09
 -15   6  13       23.23      3.04
 -14   6  13        5.18      0.54
 -13   6  13       17.75      1.79
 -12   6  13        8.05      0.80
 -11   6  13       19.57      1.53
 -10   6  13       38.14      2.14
  -9   6  13       25.65      1.68
  -8   6  13       32.75      1.66
  -7   6  13       21.81      1.29
  -6   6  13        7.68      0.49
  -5   6  13       17.42      1.11
  -4   6  13       16.21      1.06
  -3   6  13        0.47      0.09
  -2   6  13        2.47      0.19
  -1   6  13       20.85      1.11
   0   6  13        2.80      0.20
   1   6  13        0.86      0.10
   2   6  13       16.74      1.07
   3   6  13       25.58      1.39
   4   6  13       13.04      1.01
   5   6  13        9.13      0.72
   6   6  13        7.77      0.63
   7   6  13        1.25      0.13
   8   6  13        9.31      0.92
   9   6  13        6.64      0.77
  10   6  13        4.97      0.58
  11   6  13        5.16      0.77
  12   6  13        7.47      1.18
  13   6  13        4.93      0.85
 -17   7  13        1.20      0.24
 -16   7  13        0.22      0.15
 -15   7  13        2.45      0.39
 -14   7  13        4.56      0.66
 -13   7  13       32.17      3.45
 -12   7  13        5.11      0.62
 -11   7  13       19.46      1.96
 -10   7  13       25.07      2.30
  -9   7  13       12.39      1.10
  -8   7  13        8.77      0.80
  -7   7  13       16.45      1.24
  -6   7  13       33.26      2.28
  -5   7  13        8.00      0.66
  -4   7  13        0.64      0.17
  -3   7  13       33.78      2.21
  -2   7  13       20.61      1.95
  -1   7  13        2.99      0.27
   0   7  13       40.60      1.94
   1   7  13       32.34      2.00
   2   7  13        8.27      0.69
   3   7  13        7.48      0.63
   4   7  13        2.88      0.32
   5   7  13        9.04      0.93
   6   7  13       15.13      1.51
   7   7  13        2.85      0.34
   8   7  13        2.30      0.30
   9   7  13        0.81      0.13
  10   7  13        0.21      0.12
  11   7  13        1.45      0.26
  12   7  13        1.93      0.34
 -14   8  13        1.07      0.16
 -13   8  13        0.27      0.30
 -12   8  13        0.92      0.17
 -11   8  13        2.13      0.32
 -10   8  13        0.26      0.20
  -9   8  13        1.83      0.24
  -8   8  13       17.59      2.04
  -7   8  13        1.25      0.14
  -6   8  13        4.86      0.58
  -5   8  13       14.55      1.52
  -4   8  13        7.95      0.97
  -3   8  13       11.66      1.27
  -2   8  13        0.42      0.18
  -1   8  13        1.40      0.18
   0   8  13       11.82      1.27
   1   8  13       21.60      2.15
   2   8  13        2.70      0.36
   3   8  13        2.90      0.36
   4   8  13       53.19      4.72
   5   8  13        3.57      0.52
   6   8  13        2.10      0.30
   7   8  13        5.68      0.83
   8   8  13       12.16      1.88
   9   8  13        4.69      0.76
 -11   9  13        1.95      0.35
 -10   9  13        7.12      1.17
  -9   9  13        1.15      0.20
  -8   9  13        8.25      1.31
  -7   9  13       13.46      2.07
  -6   9  13        5.26      0.82
  -5   9  13        1.23      0.20
  -4   9  13       26.52      4.58
  -3   9  13       26.14      4.04
  -2   9  13        5.03      0.75
  -1   9  13       14.28      2.06
   0   9  13       22.36      3.14
   1   9  13        1.83      0.28
   2   9  13       13.07      2.36
   3   9  13       14.56      2.30
   4   9  13       10.45      1.82
   5   9  13       13.49      2.38
   6   9  13       17.24      2.77
 -22   0  14        0.13      0.04
 -21   0  14        7.24      1.65
 -20   0  14        4.19      0.82
 -19   0  14        5.44      0.88
 -18   0  14       11.73      1.71
 -17   0  14       29.36      2.95
 -16   0  14        1.12      0.26
 -15   0  14        0.11      0.08
 -14   0  14        7.26      0.68
 -13   0  14        0.23      0.05
 -12   0  14        2.25      0.25
 -11   0  14       29.68      1.62
 -10   0  14       11.12      0.77
  -9   0  14       47.63      1.53
  -8   0  14        1.55      0.17
  -7   0  14        0.82      0.17
  -6   0  14        6.92      0.56
  -5   0  14       33.66      1.60
  -4   0  14       19.89      1.27
  -3   0  14        3.74      0.32
  -2   0  14       57.74      1.57
  -1   0  14        1.24      0.11
   0   0  14        2.31      0.23
   1   0  14       16.09      0.98
   2   0  14       28.79      1.75
   3   0  14      109.03      5.93
   4   0  14        4.05      0.30
   5   0  14        1.40      0.17
   6   0  14       52.97      2.36
   7   0  14        1.61      0.16
   8   0  14       40.17      2.42
   9   0  14        8.41      0.96
  10   0  14       45.76      2.58
  11   0  14      116.35      3.32
  12   0  14       27.15      3.57
  13   0  14        0.87      0.20
  14   0  14        4.12      0.96
  15   0  14        1.09      0.23
  16   0  14        0.06      0.03
  17   0  14        1.47      0.43
 -22   1  14        5.44      0.86
 -21   1  14        4.74      0.69
 -20   1  14        3.42      0.49
 -19   1  14        0.29      0.15
 -18   1  14        7.11      0.71
 -17   1  14        8.77      0.76
 -16   1  14       24.23      1.45
 -15   1  14        7.81      0.54
 -14   1  14        9.13      0.60
 -13   1  14       78.51      2.11
 -12   1  14       23.74      1.11
 -11   1  14       10.36      0.61
 -10   1  14      108.25      2.93
  -9   1  14        4.24      0.24
  -8   1  14       36.02      1.20
  -7   1  14       43.00      1.21
  -6   1  14        0.29      0.10
  -5   1  14       63.06      1.63
  -4   1  14       77.00      2.12
  -3   1  14       25.18      1.06
  -2   1  14       13.53      0.64
  -1   1  14       32.71      1.11
   0   1  14        0.45      0.04
   1   1  14      135.72      4.25
   2   1  14       60.50      1.49
   3   1  14        3.30      0.25
   4   1  14       21.90      1.02
   5   1  14       88.97      2.46
   6   1  14       11.95      0.64
   7   1  14       93.92      2.95
   8   1  14       23.32      1.32
   9   1  14        9.66      0.68
  10   1  14       54.37      1.91
  11   1  14       45.99      2.58
  12   1  14        3.79      0.45
  13   1  14        1.31      0.16
  14   1  14       36.30      4.77
  15   1  14        0.16      0.13
  16   1  14        1.90      0.34
  17   1  14        4.74      1.06
 -22   2  14        7.98      1.35
 -21   2  14        0.21      0.15
 -20   2  14        7.73      1.04
 -19   2  14        6.15      0.72
 -18   2  14        3.55      0.40
 -17   2  14       14.19      1.21
 -16   2  14        0.39      0.15
 -15   2  14       14.34      1.08
 -14   2  14       33.17      1.92
 -13   2  14        4.81      0.33
 -12   2  14        9.87      0.53
 -11   2  14       26.48      1.10
 -10   2  14       26.33      1.11
  -9   2  14        4.18      0.30
  -8   2  14       45.87      1.35
  -7   2  14       58.74      1.58
  -6   2  14        6.96      0.34
  -5   2  14       60.07      1.64
  -4   2  14        1.41      0.14
  -3   2  14       33.10      1.11
  -2   2  14       10.92      0.51
  -1   2  14       72.86      1.83
   0   2  14       20.26      0.86
   1   2  14       42.07      1.21
   2   2  14       65.70      1.71
   3   2  14       35.82      1.22
   4   2  14       62.37      1.77
   5   2  14        0.54      0.11
   6   2  14        8.86      0.53
   7   2  14       11.12      0.66
   8   2  14        6.45      0.46
   9   2  14        0.51      0.08
  10   2  14        2.13      0.17
  11   2  14        5.49      0.55
  12   2  14        0.17      0.13
  13   2  14        4.99      0.58
  14   2  14        3.93      0.49
  15   2  14        4.70      0.83
  16   2  14       15.74      2.58
 -21   3  14        0.53      0.17
 -20   3  14        0.63      0.18
 -19   3  14       18.63      2.22
 -18   3  14       18.68      2.13
 -17   3  14        0.55      0.11
 -16   3  14       67.23      2.31
 -15   3  14       10.38      0.84
 -14   3  14        6.73      0.53
 -13   3  14       34.89      1.84
 -12   3  14       17.49      1.04
 -11   3  14        1.69      0.11
 -10   3  14       17.66      0.99
  -9   3  14      137.23      3.33
  -8   3  14       84.30      2.36
  -7   3  14       10.08      0.53
  -6   3  14      153.82      4.05
  -5   3  14       54.96      1.65
  -4   3  14      102.00      2.63
  -3   3  14       36.74      1.13
  -2   3  14        7.83      0.38
  -1   3  14       62.87      1.55
   0   3  14       12.34      0.56
   1   3  14       24.55      0.92
   2   3  14        1.44      0.13
   3   3  14       51.51      1.37
   4   3  14       42.48      1.24
   5   3  14        4.30      0.28
   6   3  14       10.54      0.62
   7   3  14       27.52      1.45
   8   3  14        0.78      0.11
   9   3  14        0.80      0.13
  10   3  14        9.44      0.84
  11   3  14        1.74      0.17
  12   3  14        0.30      0.09
  13   3  14        3.33      0.40
  14   3  14        7.12      1.05
  15   3  14        0.50      0.18
  16   3  14       18.73      4.03
 -20   4  14        3.63      0.64
 -19   4  14        6.93      1.05
 -18   4  14        4.12      0.52
 -17   4  14        9.47      1.25
 -16   4  14        8.27      0.91
 -15   4  14       22.03      2.22
 -14   4  14       57.95      2.22
 -13   4  14       22.03      1.48
 -12   4  14       64.85      1.73
 -11   4  14       28.22      1.39
 -10   4  14        9.24      0.54
  -9   4  14       37.40      1.39
  -8   4  14       27.76      1.16
  -7   4  14        7.28      0.39
  -6   4  14      119.02      2.99
  -5   4  14       14.92      0.81
  -4   4  14        4.50      0.26
  -3   4  14       27.32      1.24
  -2   4  14       15.73      0.69
  -1   4  14        2.55      0.14
   0   4  14       31.25      1.09
   1   4  14        4.84      0.27
   2   4  14       16.17      0.88
   3   4  14       31.87      1.21
   4   4  14       49.36      1.35
   5   4  14       24.36      1.21
   6   4  14       20.01      1.28
   7   4  14       36.36      1.66
   8   4  14       54.74      1.96
   9   4  14       13.80      1.24
  10   4  14        1.86      0.19
  11   4  14        4.65      0.51
  12   4  14        6.34      0.80
  13   4  14        4.49      0.68
  14   4  14        5.23      0.86
  15   4  14        3.51      0.69
 -19   5  14        2.92      0.59
 -18   5  14        1.52      0.24
 -17   5  14       18.42      3.46
 -16   5  14       16.56      2.18
 -15   5  14        1.49      0.17
 -14   5  14       13.88      1.51
 -13   5  14        6.61      0.58
 -12   5  14        9.50      0.81
 -11   5  14        6.20      0.49
 -10   5  14        4.40      0.37
  -9   5  14       23.52      1.39
  -8   5  14       10.08      0.67
  -7   5  14       13.52      0.91
  -6   5  14       17.43      0.95
  -5   5  14        5.34      0.35
  -4   5  14        3.68      0.26
  -3   5  14       50.44      2.01
  -2   5  14       29.83      1.36
  -1   5  14       11.86      0.62
   0   5  14       30.18      1.27
   1   5  14       44.17      1.43
   2   5  14       16.94      1.03
   3   5  14        4.69      0.31
   4   5  14        2.10      0.18
   5   5  14       35.12      1.96
   6   5  14        7.89      0.61
   7   5  14       34.31      2.16
   8   5  14       24.37      2.04
   9   5  14       14.88      1.31
  10   5  14       17.69      1.99
  11   5  14        9.58      1.22
  12   5  14        1.00      0.15
  13   5  14        5.26      0.86
  14   5  14       10.08      2.04
 -18   6  14       13.10      2.78
 -17   6  14        6.44      1.10
 -16   6  14        7.01      1.03
 -15   6  14        9.85      1.32
 -14   6  14       11.68      1.49
 -13   6  14        4.23      0.52
 -12   6  14       13.89      1.36
 -11   6  14       13.82      1.17
 -10   6  14        3.56      0.37
  -9   6  14       24.06      2.20
  -8   6  14        1.34      0.13
  -7   6  14       12.26      0.85
  -6   6  14       21.61      1.40
  -5   6  14       20.74      1.52
  -4   6  14       40.97      1.78
  -3   6  14       12.48      0.93
  -2   6  14       23.01      1.44
  -1   6  14       28.13      1.52
   0   6  14       13.60      0.93
   1   6  14        1.17      0.11
   2   6  14       10.28      0.83
   3   6  14       36.42      2.17
   4   6  14       24.04      1.96
   5   6  14       30.56      1.97
   6   6  14       17.85      1.51
   7   6  14        8.42      0.87
   8   6  14       29.76      3.04
   9   6  14       20.04      2.26
  10   6  14       10.96      1.80
  11   6  14       19.39      2.96
  12   6  14       22.58      4.00
 -16   7  14        4.81      0.79
 -15   7  14        3.34      0.51
 -14   7  14       14.39      2.37
 -13   7  14        7.52      0.98
 -12   7  14        1.54      0.19
 -11   7  14       24.23      2.80
 -10   7  14        8.90      1.00
  -9   7  14        6.55      0.72
  -8   7  14        4.67      0.48
  -7   7  14       40.78      2.68
  -6   7  14       18.76      1.74
  -5   7  14        7.52      0.79
  -4   7  14        6.88      0.69
  -3   7  14        6.66      0.76
  -2   7  14        9.21      0.85
  -1   7  14        4.62      0.42
   0   7  14       23.91      2.17
   1   7  14       61.13      2.28
   2   7  14        8.69      0.83
   3   7  14        5.99      0.63
   4   7  14       14.67      1.55
   5   7  14       10.73      1.29
   6   7  14        0.19      0.06
   7   7  14        5.43      0.69
   8   7  14        3.01      0.42
   9   7  14       13.98      1.85
  10   7  14        2.01      0.36
  11   7  14        8.52      1.66
 -13   8  14        7.96      1.33
 -12   8  14       18.99      3.47
 -11   8  14        9.70      1.38
 -10   8  14        7.34      1.01
  -9   8  14       32.92      4.80
  -8   8  14        9.95      1.26
  -7   8  14       20.26      2.24
  -6   8  14       10.05      1.54
  -5   8  14        4.06      0.53
  -4   8  14        3.33      0.44
  -3   8  14       17.37      2.13
  -2   8  14       16.83      2.04
  -1   8  14       12.23      1.47
   0   8  14       17.37      1.92
   1   8  14       33.93      3.64
   2   8  14        6.15      0.81
   3   8  14       43.09      4.64
   4   8  14       17.33      2.26
   5   8  14       20.66      3.02
   6   8  14       13.50      1.89
   7   8  14        2.85      0.49
   8   8  14        4.23      0.79
 -10   9  14        3.88      0.66
  -9   9  14        4.63      0.75
  -8   9  14        2.26      0.37
  -7   9  14        6.35      0.99
  -6   9  14        2.40      0.38
  -5   9  14        3.77      0.59
  -4   9  14        0.04      0.04
  -3   9  14        1.44      0.23
  -2   9  14        5.91      1.05
  -1   9  14        0.13      0.12
   0   9  14        5.34      0.89
   1   9  14        4.07      0.61
   2   9  14        0.61      0.19
   3   9  14       11.15      2.07
   4   9  14        2.45      0.51
 -21   0  15        0.07      0.08
 -20   0  15        4.96      1.02
 -19   0  15        1.86      0.34
 -18   0  15        0.19      0.18
 -17   0  15        0.86      0.12
 -16   0  15       17.83      2.22
 -15   0  15        9.66      0.96
 -14   0  15        0.61      0.20
 -13   0  15       78.34      2.07
 -12   0  15       85.99      2.35
 -11   0  15       78.11      3.16
 -10   0  15      306.01      8.08
  -9   0  15       90.27      2.41
  -8   0  15       51.40      1.98
  -7   0  15       37.32      1.58
  -6   0  15       21.20      1.33
  -5   0  15        8.43      0.78
  -4   0  15       21.77      1.52
  -3   0  15       33.08      1.57
  -2   0  15      222.86      7.98
  -1   0  15        0.16      0.11
   0   0  15        0.77      0.06
   1   0  15        2.62      0.32
   2   0  15       26.71      1.53
   3   0  15       49.56      3.21
   4   0  15       46.99      1.60
   5   0  15        8.74      0.77
   6   0  15       22.33      1.56
   7   0  15       21.72      1.77
   8   0  15       24.85      2.04
   9   0  15        2.27      0.35
  10   0  15        3.83      0.65
  11   0  15        2.82      0.43
  12   0  15       16.53      2.61
  13   0  15        0.01      0.01
  14   0  15        0.23      0.16
  15   0  15        0.40      0.12
  16   0  15        0.49      0.24
 -21   1  15        5.07      0.79
 -20   1  15       11.06      1.49
 -19   1  15        3.83      0.50
 -18   1  15        7.20      0.75
 -17   1  15        2.77      0.28
 -16   1  15        1.93      0.17
 -15   1  15       20.08      1.34
 -14   1  15       10.35      0.75
 -13   1  15       20.44      1.21
 -12   1  15       92.31      2.68
 -11   1  15       23.53      1.15
 -10   1  15       17.01      0.97
  -9   1  15       22.69      1.11
  -8   1  15       69.64      2.17
  -7   1  15       49.31      1.50
  -6   1  15       26.09      1.16
  -5   1  15       61.48      1.77
  -4   1  15       55.29      1.75
  -3   1  15       44.91      1.26
  -2   1  15        6.48      0.35
  -1   1  15       17.98      0.78
   0   1  15       79.24      2.41
   1   1  15       18.73      0.84
   2   1  15        5.81      0.38
   3   1  15        4.22      0.24
   4   1  15       32.17      1.27
   5   1  15        2.67      0.20
   6   1  15       37.00      1.43
   7   1  15       40.87      1.70
   8   1  15       24.56      1.49
   9   1  15        4.35      0.38
  10   1  15       99.74      2.64
  11   1  15       23.50      2.51
  12   1  15       15.90      2.16
  13   1  15       26.14      3.95
  14   1  15        4.51      0.66
  15   1  15        4.11      0.70
  16   1  15        0.92      0.22
 -21   2  15        1.99      0.38
 -20   2  15        4.17      0.61
 -19   2  15       12.55      1.60
 -18   2  15        4.86      0.53
 -17   2  15       16.41      1.55
 -16   2  15        4.60      0.43
 -15   2  15        2.86      0.26
 -14   2  15       40.00      1.98
 -13   2  15       12.87      0.94
 -12   2  15        2.41      0.16
 -11   2  15       28.34      1.36
 -10   2  15       19.25      1.06
  -9   2  15        1.80      0.17
  -8   2  15        6.70      0.40
  -7   2  15       37.86      1.23
  -6   2  15       76.62      2.35
  -5   2  15        6.55      0.34
  -4   2  15       20.44      0.88
  -3   2  15       74.71      2.29
  -2   2  15      195.81      4.80
  -1   2  15       10.87      0.58
   0   2  15       29.63      1.13
   1   2  15      172.10      4.39
   2   2  15       38.63      1.23
   3   2  15      130.05      3.42
   4   2  15       25.08      1.13
   5   2  15       53.09      1.57
   6   2  15       51.48      1.66
   7   2  15       79.05      1.91
   8   2  15        0.50      0.16
   9   2  15       21.69      1.58
  10   2  15       12.20      1.05
  11   2  15        5.42      0.57
  12   2  15        2.50      0.32
  13   2  15       31.06      3.83
  14   2  15        7.39      1.14
  15   2  15        4.71      0.77
 -20   3  15        4.69      0.73
 -19   3  15        4.25      0.68
 -18   3  15        2.68      0.39
 -17   3  15       12.54      1.37
 -16   3  15        0.72      0.11
 -15   3  15        9.58      0.95
 -14   3  15        0.40      0.06
 -13   3  15        3.01      0.25
 -12   3  15        9.82      0.76
 -11   3  15        0.45      0.10
 -10   3  15       25.66      1.15
  -9   3  15       19.12      0.95
  -8   3  15        7.11      0.39
  -7   3  15       66.58      1.90
  -6   3  15        3.88      0.20
  -5   3  15       30.20      1.12
  -4   3  15      126.76      3.47
  -3   3  15       26.01      1.04
  -2   3  15       15.28      0.68
  -1   3  15      118.30      2.95
   0   3  15       85.17      2.24
   1   3  15        1.84      0.11
   2   3  15       31.79      1.29
   3   3  15      166.73      4.26
   4   3  15       98.60      2.78
   5   3  15        8.32      0.56
   6   3  15       72.33      2.46
   7   3  15       19.05      1.40
   8   3  15       17.00      1.26
   9   3  15        9.91      0.92
  10   3  15       13.20      1.40
  11   3  15       21.25      2.11
  12   3  15        1.89      0.26
  13   3  15        5.83      0.84
  14   3  15        5.67      0.91
  15   3  15       21.54      5.03
 -20   4  15        5.47      1.12
 -19   4  15       14.24      2.18
 -18   4  15        1.39      0.22
 -17   4  15        9.99      1.50
 -16   4  15        2.26      0.28
 -15   4  15        1.22      0.13
 -14   4  15       55.47      2.50
 -13   4  15        1.16      0.14
 -12   4  15        0.20      0.23
 -11   4  15        6.90      0.52
 -10   4  15        8.55      0.61
  -9   4  15        8.72      0.57
  -8   4  15        9.35      0.58
  -7   4  15        6.62      0.39
  -6   4  15       17.57      0.84
  -5   4  15       10.31      0.58
  -4   4  15       27.77      1.28
  -3   4  15        1.49      0.12
  -2   4  15       29.58      1.18
  -1   4  15       17.14      0.85
   0   4  15       10.38      0.67
   1   4  15       16.65      0.87
   2   4  15       15.62      0.87
   3   4  15       20.30      1.16
   4   4  15       10.66      0.82
   5   4  15       12.12      0.84
   6   4  15       32.91      2.00
   7   4  15       52.17      2.30
   8   4  15       43.49      2.42
   9   4  15       24.00      2.18
  10   4  15        6.89      0.77
  11   4  15       15.22      2.03
  12   4  15        4.69      0.70
  13   4  15       21.02      3.54
  14   4  15       13.44      2.55
 -19   5  15        0.62      0.14
 -18   5  15        1.26      0.24
 -17   5  15        5.75      0.90
 -16   5  15        1.40      0.23
 -15   5  15        0.85      0.13
 -14   5  15       33.21      3.26
 -13   5  15       29.90      2.50
 -12   5  15        3.94      0.35
 -11   5  15       79.42      2.30
 -10   5  15       71.67      1.95
  -9   5  15       16.63      1.25
  -8   5  15       53.74      1.79
  -7   5  15       55.12      1.71
  -6   5  15       30.38      1.69
  -5   5  15       50.11      1.64
  -4   5  15       12.48      0.88
  -3   5  15       16.02      1.04
  -2   5  15       12.37      0.77
  -1   5  15       12.57      0.75
   0   5  15        4.76      0.32
   1   5  15       27.78      1.36
   2   5  15       23.00      1.37
   3   5  15        2.54      0.19
   4   5  15        9.39      0.70
   5   5  15       63.41      2.10
   6   5  15       10.76      0.98
   7   5  15       18.63      1.77
   8   5  15        1.30      0.15
   9   5  15       14.80      1.67
  10   5  15       14.26      1.92
  11   5  15       12.69      1.95
  12   5  15        3.41      0.57
  13   5  15       14.13      2.37
 -17   6  15        6.53      1.15
 -16   6  15        5.05      0.85
 -15   6  15        5.03      0.68
 -14   6  15       15.64      2.87
 -13   6  15       11.36      1.51
 -12   6  15       22.06      2.21
 -11   6  15        8.08      0.84
 -10   6  15       74.33      2.45
  -9   6  15       16.25      1.46
  -8   6  15        4.42      0.40
  -7   6  15       27.57      2.05
  -6   6  15       19.90      1.46
  -5   6  15        0.14      0.13
  -4   6  15       24.46      1.76
  -3   6  15       40.78      2.41
  -2   6  15       27.07      1.99
  -1   6  15       32.34      1.95
   0   6  15       57.20      2.06
   1   6  15        4.43      0.43
   2   6  15       17.23      1.47
   3   6  15       15.67      1.24
   4   6  15        7.80      0.75
   5   6  15        1.37      0.16
   6   6  15        4.69      0.55
   7   6  15        2.29      0.27
   8   6  15        6.39      0.76
   9   6  15        0.33      0.12
  10   6  15        0.40      0.12
  11   6  15        4.11      0.71
 -15   7  15        2.35      0.39
 -14   7  15        5.55      0.89
 -13   7  15       20.44      2.95
 -12   7  15        6.25      0.88
 -11   7  15        9.77      1.22
 -10   7  15       29.99      3.27
  -9   7  15        3.52      0.40
  -8   7  15        5.36      0.58
  -7   7  15       22.24      2.62
  -6   7  15       31.00      3.06
  -5   7  15       10.00      1.04
  -4   7  15       59.80      3.68
  -3   7  15       33.92      3.23
  -2   7  15       20.31      2.20
  -1   7  15        6.25      0.67
   0   7  15       86.14      2.45
   1   7  15        4.54      0.53
   2   7  15        1.02      0.17
   3   7  15       24.95      2.60
   4   7  15       14.91      1.78
   5   7  15       18.44      2.20
   6   7  15       15.67      1.99
   7   7  15        5.28      0.75
   8   7  15        2.47      0.37
   9   7  15        8.00      1.37
 -12   8  15       12.72      2.18
 -11   8  15        2.02      0.35
 -10   8  15       16.01      2.53
  -9   8  15       22.73      3.59
  -8   8  15       12.75      1.77
  -7   8  15        1.65      0.23
  -6   8  15        9.13      1.46
  -5   8  15       22.73      2.78
  -4   8  15        0.46      0.21
  -3   8  15        1.75      0.24
  -2   8  15       27.15      3.45
  -1   8  15        6.53      0.87
   0   8  15       11.26      1.50
   1   8  15        9.46      1.23
   2   8  15       22.33      3.08
   3   8  15       18.41      2.63
   4   8  15        9.27      1.48
   5   8  15        0.70      0.16
   6   8  15       14.63      2.49
   7   8  15        5.55      1.04
  -8   9  15        5.04      0.93
  -7   9  15        9.57      1.73
  -6   9  15        0.85      0.17
  -5   9  15        7.36      1.35
  -4   9  15       11.50      2.29
  -3   9  15        4.09      0.75
  -2   9  15        2.70      0.50
  -1   9  15       10.40      2.02
   0   9  15        9.30      1.50
   1   9  15        3.54      0.61
   2   9  15        3.43      0.63
 -21   0  16       15.93      4.00
 -20   0  16        8.84      2.12
 -19   0  16        9.67      2.26
 -18   0  16       45.26      6.95
 -17   0  16        4.30      0.60
 -16   0  16        1.65      0.24
 -15   0  16       41.52      3.08
 -14   0  16        0.22      0.15
 -13   0  16        3.59      0.52
 -12   0  16       22.89      1.73
 -11   0  16       32.94      2.01
 -10   0  16        0.13      0.08
  -9   0  16       57.65      1.58
  -8   0  16       71.09      2.51
  -7   0  16       10.32      0.90
  -6   0  16       42.87      1.80
  -5   0  16       89.31      3.07
  -4   0  16       39.60      3.19
  -3   0  16       76.43      3.00
  -2   0  16        2.65      0.31
  -1   0  16      180.55      8.70
   0   0  16        8.82      0.71
   1   0  16       77.99      2.33
   2   0  16       52.13      1.98
   3   0  16        1.54      0.39
   4   0  16       47.45      2.01
   5   0  16        0.92      0.13
   6   0  16        3.04      0.35
   7   0  16        6.30      0.80
   8   0  16        5.26      0.75
   9   0  16       85.59      2.92
  10   0  16      118.74      3.33
  11   0  16        7.34      1.47
  12   0  16       34.68      6.50
  13   0  16       27.07      6.35
  14   0  16       25.09      6.18
  15   0  16        9.60      4.19
 -21   1  16        8.35      1.58
 -20   1  16        5.34      0.94
 -19   1  16        5.61      0.82
 -18   1  16       13.24      1.56
 -17   1  16       33.59      2.94
 -16   1  16       24.52      2.03
 -15   1  16       16.87      1.40
 -14   1  16        9.09      0.79
 -13   1  16       29.69      1.95
 -12   1  16       10.21      0.71
 -11   1  16       18.86      1.21
 -10   1  16        7.06      0.46
  -9   1  16       62.95      1.86
  -8   1  16       59.10      1.76
  -7   1  16       27.69      1.45
  -6   1  16      107.71      3.09
  -5   1  16      114.48      3.01
  -4   1  16       53.23      1.70
  -3   1  16      131.32      3.51
  -2   1  16      115.25      3.59
  -1   1  16       25.43      1.34
   0   1  16       68.90      1.83
   1   1  16       33.11      1.35
   2   1  16       37.45      1.36
   3   1  16        3.04      0.20
   4   1  16       36.73      1.52
   5   1  16      145.98      3.82
   6   1  16       84.74      2.62
   7   1  16       72.82      2.14
   8   1  16       49.73      3.08
   9   1  16       65.88      2.18
  10   1  16        0.72      0.18
  11   1  16        8.62      1.03
  12   1  16        5.37      0.72
  13   1  16        2.38      0.38
  14   1  16        4.16      0.74
  15   1  16        9.39      2.22
 -21   2  16        5.85      1.04
 -20   2  16        7.49      1.15
 -19   2  16       13.12      1.75
 -18   2  16       12.90      1.59
 -17   2  16        1.70      0.21
 -16   2  16        2.33      0.23
 -15   2  16       29.60      2.30
 -14   2  16       23.20      1.89
 -13   2  16       13.00      1.27
 -12   2  16       15.31      1.16
 -11   2  16       56.04      1.53
 -10   2  16       19.95      1.18
  -9   2  16       17.06      1.13
  -8   2  16        2.38      0.20
  -7   2  16       94.73      2.51
  -6   2  16       24.00      1.23
  -5   2  16       21.56      1.11
  -4   2  16       19.72      1.00
  -3   2  16        5.18      0.30
  -2   2  16        8.58      0.48
  -1   2  16       33.72      1.21
   0   2  16        5.65      0.38
   1   2  16      104.08      3.47
   2   2  16       85.53      2.25
   3   2  16       30.76      1.44
   4   2  16       41.40      1.56
   5   2  16       66.96      1.97
   6   2  16       26.60      1.60
   7   2  16       12.76      1.01
   8   2  16        1.64      0.14
   9   2  16       12.76      1.21
  10   2  16        7.57      0.81
  11   2  16        2.13      0.26
  12   2  16        1.27      0.18
  13   2  16        3.47      0.51
  14   2  16        9.98      1.63
 -20   3  16        5.37      0.90
 -19   3  16        0.90      0.13
 -18   3  16        1.42      0.21
 -17   3  16       36.16      3.65
 -16   3  16        2.23      0.27
 -15   3  16        9.59      0.93
 -14   3  16        8.23      0.76
 -13   3  16       26.36      2.15
 -12   3  16        9.03      0.75
 -11   3  16       36.06      2.17
 -10   3  16       49.53      1.88
  -9   3  16       60.20      1.63
  -8   3  16       65.59      1.81
  -7   3  16       11.41      0.71
  -6   3  16       27.47      1.24
  -5   3  16       20.64      0.95
  -4   3  16       28.91      1.61
  -3   3  16        8.92      0.50
  -2   3  16        5.09      0.35
  -1   3  16       24.29      1.16
   0   3  16        4.40      0.29
   1   3  16       84.35      2.36
   2   3  16       22.58      1.31
   3   3  16       15.54      1.00
   4   3  16       47.05      1.93
   5   3  16        4.44      0.42
   6   3  16        7.93      0.63
   7   3  16        0.61      0.12
   8   3  16       10.73      1.08
   9   3  16        8.71      0.88
  10   3  16       19.17      2.18
  11   3  16       24.86      3.01
  12   3  16        7.17      1.07
  13   3  16        0.86      0.17
  14   3  16       19.39      4.97
 -19   4  16        1.79      0.34
 -18   4  16        1.68      0.28
 -17   4  16        8.33      1.22
 -16   4  16       21.32      2.71
 -15   4  16        2.01      0.23
 -14   4  16        8.65      0.95
 -13   4  16        3.61      0.35
 -12   4  16        0.75      0.13
 -11   4  16       16.25      1.31
 -10   4  16        7.15      0.53
  -9   4  16       30.32      1.76
  -8   4  16       14.20      0.91
  -7   4  16      154.01      3.95
  -6   4  16       46.21      1.68
  -5   4  16        1.37      0.14
  -4   4  16       33.08      1.58
  -3   4  16        7.20      0.49
  -2   4  16        1.40      0.15
  -1   4  16       20.78      1.03
   0   4  16       26.99      1.43
   1   4  16       14.29      0.87
   2   4  16       33.00      1.68
   3   4  16       76.45      2.20
   4   4  16        7.88      0.69
   5   4  16        6.93      0.56
   6   4  16       99.20      2.87
   7   4  16       30.03      2.30
   8   4  16        9.50      1.04
   9   4  16       11.96      1.32
  10   4  16       18.21      2.06
  11   4  16        5.31      0.79
  12   4  16        6.91      1.22
  13   4  16        6.44      1.20
 -18   5  16        3.65      0.73
 -17   5  16       21.32      3.18
 -16   5  16        1.27      0.20
 -15   5  16        3.28      0.44
 -14   5  16        4.86      0.57
 -13   5  16        4.31      0.47
 -12   5  16        1.82      0.22
 -11   5  16       32.00      2.91
 -10   5  16       18.45      1.67
  -9   5  16       12.84      1.09
  -8   5  16       32.86      2.12
  -7   5  16       70.82      2.18
  -6   5  16       12.71      0.90
  -5   5  16        3.71      0.32
  -4   5  16       85.13      2.72
  -3   5  16       11.27      0.88
  -2   5  16       19.08      1.41
  -1   5  16       39.33      1.92
   0   5  16       45.96      2.10
   1   5  16        9.42      0.68
   2   5  16        3.40      0.29
   3   5  16       55.75      2.04
   4   5  16       17.83      1.58
   5   5  16        1.26      0.13
   6   5  16        3.12      0.37
   7   5  16       28.95      2.63
   8   5  16        9.10      1.17
   9   5  16       21.36      3.01
  10   5  16        6.33      0.98
  11   5  16        5.88      1.01
  12   5  16       24.77      4.55
 -16   6  16        2.11      0.37
 -15   6  16       25.70      4.05
 -14   6  16        4.33      0.70
 -13   6  16       13.80      1.93
 -12   6  16        1.01      0.14
 -11   6  16        5.24      0.60
 -10   6  16        3.08      0.35
  -9   6  16        1.27      0.12
  -8   6  16        5.48      0.58
  -7   6  16        9.65      0.97
  -6   6  16       11.28      1.22
  -5   6  16        1.86      0.23
  -4   6  16        5.00      0.52
  -3   6  16       41.71      2.70
  -2   6  16       52.22      3.08
  -1   6  16        1.47      0.18
   0   6  16       26.00      1.87
   1   6  16       15.62      1.29
   2   6  16       21.20      1.84
   3   6  16       19.35      1.69
   4   6  16       41.35      3.36
   5   6  16       10.37      1.15
   6   6  16       25.22      3.01
   7   6  16       28.96      3.21
   8   6  16       23.59      3.37
   9   6  16       34.20      4.66
  10   6  16        0.64      0.14
 -14   7  16        1.26      0.20
 -13   7  16        7.41      1.20
 -12   7  16        8.86      1.46
 -11   7  16        1.83      0.24
 -10   7  16       14.98      2.20
  -9   7  16       15.79      2.31
  -8   7  16       17.02      2.17
  -7   7  16       20.53      2.68
  -6   7  16        2.77      0.39
  -5   7  16        0.10      0.11
  -4   7  16        7.40      0.91
  -3   7  16        4.85      0.60
  -2   7  16        9.70      1.18
  -1   7  16       33.51      2.90
   0   7  16        6.04      0.66
   1   7  16        4.90      0.60
   2   7  16       25.43      4.32
   3   7  16       11.64      1.45
   4   7  16        9.38      1.15
   5   7  16       19.91      2.54
   6   7  16       18.23      2.93
   7   7  16       36.24      4.80
   8   7  16        6.01      1.21
 -11   8  16       34.94      5.68
 -10   8  16        9.32      1.73
  -9   8  16        1.05      0.16
  -8   8  16        9.50      1.50
  -7   8  16        8.40      1.18
  -6   8  16        4.77      0.81
  -5   8  16       21.86      3.62
  -4   8  16       23.64      3.87
  -3   8  16        0.05      0.05
  -2   8  16        4.99      0.76
  -1   8  16       11.88      1.69
   0   8  16        1.88      0.27
   1   8  16       16.35      2.22
   2   8  16        1.18      0.18
   3   8  16        5.26      0.91
   4   8  16       17.09      2.87
   5   8  16        2.12      0.44
  -4   9  16        1.00      0.24
  -3   9  16        3.06      0.57
  -2   9  16        7.34      1.58
 -20   0  17       42.75      9.13
 -19   0  17        0.23      0.18
 -18   0  17       22.82      4.00
 -17   0  17       84.23      3.30
 -16   0  17        0.18      0.16
 -15   0  17        3.95      0.62
 -14   0  17       78.98      3.28
 -13   0  17        8.10      1.25
 -12   0  17       28.87      2.40
 -11   0  17        4.74      0.51
 -10   0  17        0.24      0.06
  -9   0  17       59.90      2.25
  -8   0  17        6.74      0.73
  -7   0  17       21.03      1.68
  -6   0  17        0.02      0.02
  -5   0  17       75.54      4.85
  -4   0  17      245.27     17.73
  -3   0  17       58.12     61.45
  -2   0  17        0.29      0.22
  -1   0  17       84.77      3.08
   0   0  17       22.17     20.66
   1   0  17       21.03      1.90
   2   0  17       17.71      2.25
   3   0  17       20.66      1.87
   4   0  17        9.34      1.11
   5   0  17        0.12      0.12
   6   0  17        3.69      0.43
   7   0  17       42.64      3.78
   8   0  17        2.31      0.40
   9   0  17        2.14      0.48
  10   0  17        2.05      0.57
  11   0  17        2.90      0.89
  12   0  17        5.45      1.45
  13   0  17        1.08      0.37
  14   0  17        0.11      0.11
 -20   1  17        0.57      0.11
 -19   1  17       22.14      3.18
 -18   1  17        2.61      0.38
 -17   1  17        3.41      0.38
 -16   1  17       34.56      3.26
 -15   1  17        3.86      0.44
 -14   1  17       99.97      2.86
 -13   1  17        6.00      0.60
 -12   1  17       22.51      1.50
 -11   1  17       40.31      1.77
 -10   1  17       50.58      1.61
  -9   1  17       11.06      0.78
  -8   1  17       78.36      3.67
  -7   1  17       56.91      1.96
  -6   1  17       24.40      1.50
  -5   1  17      169.12      7.74
  -4   1  17       18.89      1.27
  -3   1  17       36.69      1.38
  -2   1  17        5.45      0.41
  -1   1  17      134.65      4.65
   0   1  17       11.23      0.88
   1   1  17        3.18      0.23
   2   1  17       52.86      1.68
   3   1  17       23.70      1.85
   4   1  17       13.48      1.29
   5   1  17        7.80      0.74
   6   1  17       18.50      1.39
   7   1  17       19.11      1.62
   8   1  17        2.55      0.28
   9   1  17        1.59      0.18
  10   1  17        9.29      1.31
  11   1  17        6.25      0.89
  12   1  17        1.78      0.29
  13   1  17        2.86      0.53
  14   1  17        6.75      1.45
 -20   2  17       14.33      2.62
 -19   2  17        8.64      1.24
 -18   2  17        3.38      0.48
 -17   2  17       15.11      1.91
 -16   2  17        1.09      0.12
 -15   2  17        5.55      0.66
 -14   2  17       82.20      2.50
 -13   2  17        5.33      0.58
 -12   2  17       33.85      2.47
 -11   2  17      160.44      4.92
 -10   2  17       84.13      2.89
  -9   2  17       33.24      1.77
  -8   2  17       89.12      2.60
  -7   2  17       24.74      1.35
  -6   2  17       14.06      0.98
  -5   2  17        7.70      0.52
  -4   2  17       14.52      1.14
  -3   2  17        3.68      0.32
  -2   2  17       16.18      0.94
  -1   2  17        3.63      0.33
   0   2  17       52.16      1.81
   1   2  17       14.69      0.89
   2   2  17       11.20      0.81
   3   2  17       22.45      1.49
   4   2  17       40.11      1.85
   5   2  17       24.65      1.60
   6   2  17       11.66      1.06
   7   2  17        8.43      0.73
   8   2  17       56.40      3.18
   9   2  17       18.62      1.95
  10   2  17       16.09      1.92
  11   2  17        9.37      1.32
  12   2  17       45.99      5.55
  13   2  17        9.34      1.75
 -19   3  17        4.62      0.80
 -18   3  17        0.80      0.17
 -17   3  17        2.27      0.34
 -16   3  17       15.39      1.83
 -15   3  17       26.55      3.23
 -14   3  17       12.67      1.45
 -13   3  17       26.08      2.50
 -12   3  17      157.69      4.31
 -11   3  17        0.86      0.15
 -10   3  17       13.27      1.02
  -9   3  17       80.14      2.19
  -8   3  17        1.20      0.15
  -7   3  17       54.88      1.64
  -6   3  17       31.27      1.83
  -5   3  17       24.78      1.46
  -4   3  17       46.06      1.59
  -3   3  17       13.66      0.89
  -2   3  17        6.22      0.47
  -1   3  17        9.02      0.69
   0   3  17       18.31      1.15
   1   3  17       13.76      0.98
   2   3  17       52.86      1.69
   3   3  17       28.82      1.94
   4   3  17       11.13      0.93
   5   3  17       37.70      2.47
   6   3  17       13.06      1.23
   7   3  17       22.24      2.04
   8   3  17       33.44      3.06
   9   3  17       17.00      2.06
  10   3  17       82.51      3.47
  11   3  17        4.74      0.68
  12   3  17        8.60      1.32
  13   3  17        8.17      1.65
 -18   4  17        4.51      0.76
 -17   4  17       11.72      1.85
 -16   4  17       17.01      2.77
 -15   4  17        5.28      0.70
 -14   4  17       21.33      2.99
 -13   4  17       18.91      2.05
 -12   4  17       18.67      1.77
 -11   4  17       19.99      1.81
 -10   4  17       33.25      2.34
  -9   4  17        7.21      0.62
  -8   4  17       26.13      1.85
  -7   4  17       91.39      2.43
  -6   4  17       30.21      1.69
  -5   4  17        3.46      0.27
  -4   4  17       85.97      2.56
  -3   4  17      130.97      3.50
  -2   4  17       36.74      1.68
  -1   4  17       36.97      1.66
   0   4  17      176.77      4.71
   1   4  17       24.58      1.87
   2   4  17       17.59      1.29
   3   4  17       55.99      2.19
   4   4  17       53.07      2.52
   5   4  17        1.34      0.22
   6   4  17        3.66      0.41
   7   4  17       12.42      1.35
   8   4  17        3.46      0.49
   9   4  17        0.33      0.09
  10   4  17        2.47      0.44
  11   4  17        8.49      1.39
  12   4  17        6.69      1.25
 -17   5  17        6.39      1.02
 -16   5  17        5.97      1.11
 -15   5  17        7.96      1.45
 -14   5  17        7.75      1.10
 -13   5  17        0.93      0.14
 -12   5  17        0.17      0.06
 -11   5  17        3.90      0.43
 -10   5  17        2.35      0.22
  -9   5  17        1.03      0.16
  -8   5  17        5.22      0.52
  -7   5  17        9.94      0.84
  -6   5  17       29.45      1.96
  -5   5  17       13.12      1.10
  -4   5  17        9.46      0.82
  -3   5  17       26.30      1.97
  -2   5  17       33.96      2.20
  -1   5  17       19.51      1.45
   0   5  17       33.50      2.03
   1   5  17       28.69      2.05
   2   5  17       17.71      1.42
   3   5  17        3.74      0.37
   4   5  17        0.99      0.12
   5   5  17        3.88      0.52
   6   5  17       14.95      1.88
   7   5  17        6.18      0.86
   8   5  17       13.36      1.90
   9   5  17       10.79      1.76
  10   5  17       26.33      4.26
  11   5  17        6.12      1.08
 -15   6  17       18.85      3.85
 -14   6  17        1.42      0.24
 -13   6  17        5.71      0.82
 -12   6  17       10.99      1.52
 -11   6  17        6.13      0.85
 -10   6  17        7.21      0.89
  -9   6  17       26.13      2.90
  -8   6  17        1.32      0.15
  -7   6  17       10.05      0.99
  -6   6  17       17.45      2.12
  -5   6  17       41.83      4.24
  -4   6  17       39.95      3.76
  -3   6  17       42.46      3.34
  -2   6  17       17.23      1.81
  -1   6  17        1.14      0.13
   0   6  17       20.23      1.67
   1   6  17        3.89      0.46
   2   6  17       11.52      1.19
   3   6  17        6.10      0.75
   4   6  17        1.20      0.26
   5   6  17       35.19      3.70
   6   6  17        1.82      0.25
   7   6  17       22.77      3.57
   8   6  17       22.60      3.98
   9   6  17        4.01      0.71
 -13   7  17       13.40      2.81
 -12   7  17        8.53      1.67
 -11   7  17       26.82      4.50
 -10   7  17       16.99      2.73
  -9   7  17       22.58      3.67
  -8   7  17       16.45      2.24
  -7   7  17       27.67      4.10
  -6   7  17       24.93      3.40
  -5   7  17        0.35      0.14
  -4   7  17        2.15      0.33
  -3   7  17        1.94      0.26
  -2   7  17        5.80      0.86
  -1   7  17        9.27      1.09
   0   7  17        8.51      1.10
   1   7  17        4.65      0.60
   2   7  17        3.27      0.46
   3   7  17        2.13      0.30
   4   7  17        0.59      0.12
   5   7  17       16.35      3.04
   6   7  17        1.39      0.30
   7   7  17        0.98      0.22
  -9   8  17        3.11      0.58
  -8   8  17       18.23      3.24
  -7   8  17        0.45      0.10
  -6   8  17       10.68      2.03
  -5   8  17        4.20      0.78
  -4   8  17        4.37      0.76
  -3   8  17       11.83      2.09
  -2   8  17        4.85      0.74
  -1   8  17        2.84      0.45
   0   8  17        1.95      0.31
   1   8  17        1.00      0.15
   2   8  17        1.61      0.26
   3   8  17        1.82      0.31
 -20   0  18        1.73      0.46
 -19   0  18        9.67      2.68
 -18   0  18       16.61      4.06
 -17   0  18       32.13      7.08
 -16   0  18       20.08      3.53
 -15   0  18        1.59      0.45
 -14   0  18        2.97      0.49
 -13   0  18        0.36      0.06
 -12   0  18        8.44      1.32
 -11   0  18       10.14      1.45
 -10   0  18        2.63      0.40
  -9   0  18        9.11      1.12
  -8   0  18       16.90      1.76
  -7   0  18        0.06      0.07
  -6   0  18       21.95      2.23
  -5   0  18        3.74      0.63
  -4   0  18      129.28     14.04
  -3   0  18        0.49      0.16
  -2   0  18       52.85      2.51
  -1   0  18      218.00     12.58
   0   0  18       59.39      3.82
   1   0  18       33.18      3.32
   2   0  18      150.07      4.13
   3   0  18      166.76      4.98
   4   0  18        5.23      0.91
   5   0  18        2.39      0.42
   6   0  18       72.88      2.44
   7   0  18       31.43      3.46
   8   0  18        1.29      0.26
   9   0  18       10.37      2.04
  10   0  18        1.22      0.29
  11   0  18        0.24      0.13
  12   0  18        0.07      0.08
  13   0  18        1.60      0.61
 -20   1  18        5.76      1.31
 -19   1  18        8.72      1.65
 -18   1  18        8.30      1.36
 -17   1  18       16.81      2.25
 -16   1  18        1.75      0.26
 -15   1  18       27.97      2.92
 -14   1  18       23.34      2.46
 -13   1  18        8.99      0.90
 -12   1  18       40.84      2.44
 -11   1  18        2.51      0.25
 -10   1  18       27.75      1.85
  -9   1  18       33.03      2.06
  -8   1  18       40.91      2.00
  -7   1  18       25.92      1.84
  -6   1  18       64.25      2.13
  -5   1  18       43.99      2.17
  -4   1  18       26.83      1.90
  -3   1  18       79.73      2.40
  -2   1  18       39.67      1.89
  -1   1  18        2.16      0.19
   0   1  18        9.13      0.82
   1   1  18       32.49      1.87
   2   1  18        1.42      0.19
   3   1  18        5.42      0.60
   4   1  18       23.60      2.16
   5   1  18       35.18      3.10
   6   1  18       21.58      2.13
   7   1  18        1.85      0.20
   8   1  18       14.86      1.66
   9   1  18        3.47      0.48
  10   1  18        1.23      0.20
  11   1  18        3.25      0.56
  12   1  18        0.98      0.17
  13   1  18        5.07      1.26
 -19   2  18        1.14      0.26
 -18   2  18       10.50      1.68
 -17   2  18       12.43      1.81
 -16   2  18        0.16      0.14
 -15   2  18        2.37      0.31
 -14   2  18        8.01      0.93
 -13   2  18       18.06      1.80
 -12   2  18       92.27      2.68
 -11   2  18       31.96      2.38
 -10   2  18       28.12      1.88
  -9   2  18       10.29      0.88
  -8   2  18      320.82      9.30
  -7   2  18       35.64      2.02
  -6   2  18        3.81      0.38
  -5   2  18      117.42      5.08
  -4   2  18       61.95      2.05
  -3   2  18       18.70      1.30
  -2   2  18        4.09      0.37
  -1   2  18       98.45      3.44
   0   2  18        4.63      0.46
   1   2  18        3.88      0.37
   2   2  18       16.38      1.42
   3   2  18       20.53      1.45
   4   2  18       18.86      1.60
   5   2  18        5.94      0.60
   6   2  18        5.74      0.62
   7   2  18        5.72      0.79
   8   2  18       11.72      1.37
   9   2  18       26.30      3.32
  10   2  18       22.00      3.21
  11   2  18       12.40      2.25
  12   2  18       37.06      6.82
 -18   3  18       36.28      6.93
 -17   3  18        6.78      1.23
 -16   3  18        1.63      0.30
 -15   3  18       28.15      3.84
 -14   3  18       23.68      2.96
 -13   3  18       14.49      1.77
 -12   3  18        2.76      0.32
 -11   3  18       91.67      2.82
 -10   3  18       84.73      2.66
  -9   3  18       30.43      2.39
  -8   3  18       39.90      2.58
  -7   3  18       29.20      2.61
  -6   3  18       83.00      2.99
  -5   3  18       51.62      1.89
  -4   3  18        3.72      0.31
  -3   3  18      137.22      3.69
  -2   3  18       38.38      1.75
  -1   3  18        7.79      0.67
   0   3  18       16.67      1.30
   1   3  18       11.73      1.00
   2   3  18       37.45      2.17
   3   3  18        7.73      0.72
   4   3  18       14.01      1.30
   5   3  18       35.24      2.78
   6   3  18        7.60      1.12
   7   3  18        8.97      1.05
   8   3  18       11.04      1.64
   9   3  18        7.06      1.00
  10   3  18        0.50      0.14
  11   3  18        2.63      0.41
  12   3  18        6.78      1.44
 -18   4  18       30.88      6.63
 -17   4  18        6.90      1.34
 -16   4  18       25.61      4.35
 -15   4  18       19.92      3.51
 -14   4  18        6.72      0.80
 -13   4  18       45.26      5.05
 -12   4  18        2.82      0.33
 -11   4  18        5.61      0.63
 -10   4  18        3.98      0.39
  -9   4  18       20.55      2.06
  -8   4  18       33.33      2.34
  -7   4  18        9.35      0.90
  -6   4  18       22.06      1.76
  -5   4  18       36.99      2.70
  -4   4  18        6.38      0.57
  -3   4  18       32.03      2.30
  -2   4  18        6.17      0.51
  -1   4  18       26.12      2.43
   0   4  18       76.27      2.14
   1   4  18        0.47      0.09
   2   4  18        5.87      0.66
   3   4  18       65.27      2.70
   4   4  18        4.95      0.58
   5   4  18        3.51      0.42
   6   4  18       16.62      2.01
   7   4  18       23.20      2.68
   8   4  18        6.82      0.94
   9   4  18        4.05      0.65
  10   4  18        0.62      0.14
  11   4  18        0.74      0.15
 -16   5  18        5.79      0.99
 -15   5  18       11.54      2.05
 -14   5  18        0.88      0.15
 -13   5  18        0.11      0.09
 -12   5  18       13.88      1.87
 -11   5  18        8.36      1.12
 -10   5  18       24.15      2.97
  -9   5  18       18.26      2.15
  -8   5  18       12.70      1.44
  -7   5  18        7.18      0.73
  -6   5  18       16.42      1.64
  -5   5  18       11.56      1.07
  -4   5  18        9.20      0.93
  -3   5  18        3.88      0.41
  -2   5  18       74.00      2.09
  -1   5  18        0.78      0.10
   0   5  18       19.13      1.75
   1   5  18       57.23      3.38
   2   5  18       34.04      2.67
   3   5  18        4.05      0.48
   4   5  18       35.81      3.90
   5   5  18       64.49      4.26
   6   5  18       14.07      1.92
   7   5  18       10.33      1.59
   8   5  18       24.91      4.18
   9   5  18        7.66      1.39
 -14   6  18        1.89      0.33
 -13   6  18        5.02      0.92
 -12   6  18        2.00      0.33
 -11   6  18        4.73      0.68
 -10   6  18        0.42      0.09
  -9   6  18        2.84      0.37
  -8   6  18       32.91      3.77
  -7   6  18       17.91      2.69
  -6   6  18       22.43      2.95
  -5   6  18       56.66      4.09
  -4   6  18        7.19      0.95
  -3   6  18        5.05      0.67
  -2   6  18       32.72      3.19
  -1   6  18        1.25      0.17
   0   6  18        4.90      0.61
   1   6  18        4.90      0.58
   2   6  18        0.94      0.13
   3   6  18       13.63      1.64
   4   6  18        2.24      0.31
   5   6  18       14.54      2.20
   6   6  18       10.76      1.89
   7   6  18       19.07      3.32
   8   6  18        5.19      1.04
 -12   7  18        1.36      0.25
 -11   7  18       12.66      2.28
 -10   7  18       34.28      5.79
  -9   7  18       17.33      2.97
  -8   7  18        9.41      1.69
  -7   7  18       25.78      3.78
  -6   7  18       20.33      3.74
  -5   7  18        4.81      0.72
  -4   7  18        6.27      1.01
  -3   7  18        7.02      1.07
  -2   7  18        2.02      0.30
  -1   7  18        3.58      0.52
   0   7  18        1.68      0.23
   1   7  18       13.45      1.92
   2   7  18        5.75      0.88
   3   7  18        1.21      0.20
   4   7  18        2.44      0.46
   5   7  18        3.25      0.67
  -7   8  18       13.37      2.67
  -6   8  18        3.97      0.77
  -5   8  18        1.90      0.39
  -4   8  18       21.30      5.65
  -3   8  18        9.00      1.86
  -2   8  18        6.93      1.16
  -1   8  18        7.20      1.22
   0   8  18        3.80      0.75
 -19   0  19        0.84      0.33
 -18   0  19        1.87      0.44
 -17   0  19       31.92      7.84
 -16   0  19        4.32      0.96
 -15   0  19        0.82      0.27
 -14   0  19       25.67      3.50
 -13   0  19        2.62      0.45
 -12   0  19       17.66      2.49
 -11   0  19        9.76      1.49
 -10   0  19       18.45      2.40
  -9   0  19       18.41      2.67
  -8   0  19        0.71      0.15
  -7   0  19        2.05      0.31
  -6   0  19       30.01      3.00
  -5   0  19        9.38      1.68
  -4   0  19        1.72      0.35
  -3   0  19        7.05      0.90
  -2   0  19        0.38      0.10
  -1   0  19        6.00      0.84
   0   0  19        6.93      1.36
   1   0  19       15.52      2.75
   2   0  19        1.31      0.44
   3   0  19       41.31     44.65
   4   0  19       14.62      2.60
   5   0  19       51.02      4.60
   6   0  19       28.26      5.83
   7   0  19       23.61      4.97
   8   0  19       33.62      6.14
   9   0  19       16.42      3.54
  10   0  19        4.44      1.39
  11   0  19       25.29     10.55
  12   0  19        6.15      2.29
 -19   1  19       32.54      5.90
 -18   1  19       10.37      1.86
 -17   1  19       19.01      2.97
 -16   1  19       41.56      4.77
 -15   1  19       53.10      4.28
 -14   1  19       25.11      2.93
 -13   1  19       24.44      2.64
 -12   1  19       39.18      2.84
 -11   1  19        1.75      0.20
 -10   1  19       34.01      2.82
  -9   1  19       38.34      2.55
  -8   1  19       11.75      1.30
  -7   1  19       33.45      2.35
  -6   1  19       94.95      3.32
  -5   1  19       29.99      2.69
  -4   1  19        4.58      0.55
  -3   1  19       22.60      2.01
  -2   1  19       57.40      2.15
  -1   1  19       38.07      2.54
   0   1  19       91.14      2.50
   1   1  19       55.72      2.35
   2   1  19        1.19      0.16
   3   1  19       90.14      2.47
   4   1  19       17.06      1.88
   5   1  19       14.57      1.91
   6   1  19       38.88      4.35
   7   1  19       33.36      3.31
   8   1  19       27.49      5.11
   9   1  19       31.46      5.55
  10   1  19       11.51      3.31
  11   1  19       32.58      6.11
  12   1  19        0.25      0.22
 -18   2  19       10.59      2.34
 -17   2  19        3.15      0.63
 -16   2  19        0.24      0.15
 -15   2  19        1.17      0.19
 -14   2  19       12.17      1.87
 -13   2  19       10.16      1.36
 -12   2  19        3.03      0.45
 -11   2  19        8.05      0.99
 -10   2  19       11.09      1.16
  -9   2  19       42.78      3.16
  -8   2  19        6.90      0.78
  -7   2  19       11.77      1.20
  -6   2  19       66.29      1.85
  -5   2  19       73.18      2.71
  -4   2  19       68.44      4.13
  -3   2  19       83.14      2.14
  -2   2  19       83.81      2.61
  -1   2  19       22.01      1.98
   0   2  19       27.80      1.99
   1   2  19       38.42      2.47
   2   2  19        4.16      0.48
   3   2  19        7.40      0.80
   4   2  19        8.48      1.02
   5   2  19        0.83      0.11
   6   2  19        1.07      0.13
   7   2  19        2.16      0.30
   8   2  19        3.18      0.53
   9   2  19        3.50      0.55
  10   2  19        0.38      0.10
  11   2  19        5.57      1.21
 -18   3  19        1.14      0.24
 -17   3  19        2.60      0.52
 -16   3  19        5.02      1.08
 -15   3  19        8.29      1.38
 -14   3  19       30.31      4.20
 -13   3  19        1.67      0.21
 -12   3  19        0.55      0.11
 -11   3  19       76.64      2.44
 -10   3  19       11.65      1.49
  -9   3  19        7.02      0.92
  -8   3  19       18.03      1.67
  -7   3  19       15.62      1.47
  -6   3  19        0.88      0.10
  -5   3  19       33.96      2.95
  -4   3  19       41.88      2.75
  -3   3  19        3.00      0.29
  -2   3  19       15.83      1.41
  -1   3  19       80.17      2.40
   0   3  19       28.55      2.33
   1   3  19       17.44      1.80
   2   3  19        5.88      0.64
   3   3  19        9.70      1.03
   4   3  19       32.83      3.02
   5   3  19        0.90      0.12
   6   3  19        0.14      0.08
   7   3  19        8.02      1.15
   8   3  19        3.64      0.54
   9   3  19       11.27      1.83
  10   3  19        3.23      0.66
 -17   4  19        1.65      0.44
 -16   4  19       10.74      2.41
 -15   4  19       18.27      3.39
 -14   4  19        0.35      0.12
 -13   4  19       44.50      4.29
 -12   4  19        7.83      1.07
 -11   4  19       12.67      1.59
 -10   4  19       33.72      3.63
  -9   4  19       15.24      1.95
  -8   4  19       12.73      1.36
  -7   4  19        9.45      0.88
  -6   4  19        8.56      1.01
  -5   4  19        8.69      1.01
  -4   4  19        0.04      0.05
  -3   4  19        2.97      0.30
  -2   4  19        9.68      0.98
  -1   4  19       23.75      2.05
   0   4  19        3.63      0.39
   1   4  19       19.19      2.09
   2   4  19       18.20      1.81
   3   4  19        2.72      0.35
   4   4  19        0.56      0.12
   5   4  19       22.87      3.14
   6   4  19        1.68      0.25
   7   4  19        8.73      1.50
   8   4  19        2.79      0.47
   9   4  19        9.64      1.98
 -15   5  19       12.44      3.42
 -14   5  19        1.73      0.23
 -13   5  19        2.81      0.47
 -12   5  19        7.47      1.37
 -11   5  19        3.11      0.45
 -10   5  19        1.69      0.24
  -9   5  19        5.50      0.69
  -8   5  19       14.18      1.79
  -7   5  19        7.95      0.96
  -6   5  19        1.81      0.24
  -5   5  19       40.54      5.13
  -4   5  19       13.44      1.48
  -3   5  19       13.63      1.43
  -2   5  19       29.64      2.60
  -1   5  19        5.96      0.64
   0   5  19       22.12      2.33
   1   5  19        6.20      0.83
   2   5  19        3.45      0.50
   3   5  19        1.25      0.19
   4   5  19        9.87      1.79
   5   5  19        4.12      0.66
   6   5  19        1.64      0.28
   7   5  19       26.29      4.60
   8   5  19        6.66      1.46
 -13   6  19        2.09      0.41
 -12   6  19        0.30      0.09
 -11   6  19        9.17      1.79
 -10   6  19        3.84      0.53
  -9   6  19       11.15      1.64
  -8   6  19       29.65      4.01
  -7   6  19       31.84      3.92
  -6   6  19        2.39      0.33
  -5   6  19        6.34      0.96
  -4   6  19       25.15      3.62
  -3   6  19       23.86      3.34
  -2   6  19        9.80      1.30
  -1   6  19        0.41      0.07
   0   6  19       13.83      2.23
   1   6  19        7.64      1.02
   2   6  19       16.71      2.45
   3   6  19        4.20      0.68
   4   6  19        1.87      0.36
   5   6  19        4.30      0.82
   6   6  19        3.72      0.82
 -10   7  19        6.53      1.19
  -9   7  19        0.56      0.12
  -8   7  19       19.55      3.85
  -7   7  19       23.68      4.87
  -6   7  19        2.53      0.49
  -5   7  19       11.43      2.42
  -4   7  19       24.84      5.31
  -3   7  19        1.66      0.35
  -2   7  19        8.61      1.39
  -1   7  19       19.03      3.03
   0   7  19        2.05      0.33
   1   7  19        2.34      0.38
   2   7  19       14.84      2.57
   3   7  19        2.95      0.54
 -18   0  20        0.73      0.25
 -17   0  20        3.16      0.83
 -16   0  20       22.89      4.80
 -15   0  20       16.64      3.16
 -14   0  20        0.24      0.09
 -13   0  20       18.05      3.11
 -12   0  20       77.60      7.14
 -11   0  20       12.02      2.19
 -10   0  20        2.55      0.45
  -9   0  20      110.51      4.37
  -8   0  20      220.11     11.18
  -7   0  20       31.28      4.92
  -6   0  20       43.02      5.21
  -5   0  20      120.08      8.36
  -4   0  20       57.91      4.12
  -3   0  20        0.85      0.14
  -2   0  20       13.60      2.20
  -1   0  20        0.72      0.21
   0   0  20        0.61      0.53
   1   0  20       18.91      3.80
   2   0  20       80.01      3.75
   3   0  20        0.24      0.05
   4   0  20        3.27      1.21
   5   0  20       20.18     21.45
   6   0  20        9.91      3.30
   7   0  20        6.18      5.66
   8   0  20       18.32      6.81
   9   0  20        1.53      0.74
  10   0  20       11.40      5.82
 -18   1  20        3.67      0.78
 -17   1  20        1.34      0.29
 -16   1  20        0.81      0.13
 -15   1  20       11.48      1.75
 -14   1  20        4.28      0.67
 -13   1  20       18.33      2.27
 -12   1  20       12.03      1.59
 -11   1  20        1.08      0.15
 -10   1  20       44.45      3.55
  -9   1  20        2.22      0.35
  -8   1  20        2.62      0.32
  -7   1  20       28.80      2.93
  -6   1  20       20.39      2.43
  -5   1  20       23.14      3.14
  -4   1  20       71.36      4.37
  -3   1  20        8.88      1.38
  -2   1  20       84.63      2.77
  -1   1  20       36.75      4.18
   0   1  20       14.57      2.10
   1   1  20       32.75      3.77
   2   1  20       38.24      4.71
   3   1  20        8.06      1.55
   4   1  20       12.95      2.28
   5   1  20       11.45      2.08
   6   1  20        2.30      0.43
   7   1  20        1.28      0.24
   8   1  20        3.93      0.75
   9   1  20        6.27      1.46
  10   1  20        3.97      1.21
 -17   2  20        1.03      0.22
 -16   2  20       13.63      2.61
 -15   2  20       28.09      4.11
 -14   2  20        1.84      0.30
 -13   2  20        2.04      0.32
 -12   2  20       19.56      3.12
 -11   2  20       22.53      3.07
 -10   2  20       10.09      1.30
  -9   2  20        7.07      1.17
  -8   2  20        6.49      0.90
  -7   2  20       16.31      1.95
  -6   2  20        0.77      0.13
  -5   2  20       19.34      2.31
  -4   2  20        0.14      0.07
  -3   2  20       21.49      2.33
  -2   2  20       18.07      2.58
  -1   2  20       17.08      2.43
   0   2  20        0.93      0.15
   1   2  20       45.70      3.72
   2   2  20       42.74      3.45
   3   2  20       12.68      1.62
   4   2  20        8.13      0.99
   5   2  20        6.11      0.81
   6   2  20       25.24      3.60
   7   2  20       18.61      3.32
   8   2  20        3.63      0.75
   9   2  20        0.72      0.14
  10   2  20        8.76      1.84
 -17   3  20       17.14      4.06
 -16   3  20        3.48      0.98
 -15   3  20       14.98      2.92
 -14   3  20        8.41      1.40
 -13   3  20       11.63      1.71
 -12   3  20        3.82      0.65
 -11   3  20        8.00      1.27
 -10   3  20        5.34      0.71
  -9   3  20        9.43      1.32
  -8   3  20        0.94      0.16
  -7   3  20        6.49      0.87
  -6   3  20       16.21      1.93
  -5   3  20       28.47      3.76
  -4   3  20        3.18      0.35
  -3   3  20       32.83      3.08
  -2   3  20       19.10      1.83
  -1   3  20       17.28      2.12
   0   3  20       21.42      2.39
   1   3  20       29.26      2.99
   2   3  20       10.01      1.28
   3   3  20       19.04      2.23
   4   3  20       20.42      2.68
   5   3  20       23.85      3.38
   6   3  20       16.09      2.30
   7   3  20        7.83      1.32
   8   3  20        7.90      1.58
   9   3  20       11.64      2.48
 -15   4  20        8.89      1.78
 -14   4  20        0.94      0.18
 -13   4  20       13.50      3.30
 -12   4  20        8.68      1.63
 -11   4  20        1.78      0.26
 -10   4  20        6.90      1.22
  -9   4  20        5.63      0.79
  -8   4  20       13.78      2.24
  -7   4  20        1.74      0.22
  -6   4  20        2.50      0.34
  -5   4  20        2.69      0.37
  -4   4  20       20.89      2.74
  -3   4  20       20.26      2.10
  -2   4  20        3.32      0.45
  -1   4  20       15.16      1.84
   0   4  20        5.41      0.65
   1   4  20        0.97      0.12
   2   4  20        1.66      0.23
   3   4  20        4.20      0.58
   4   4  20        0.40      0.20
   5   4  20        2.25      0.36
   6   4  20       23.64      4.13
   7   4  20        3.18      0.57
   8   4  20        0.64      0.22
 -14   5  20       17.09      3.94
 -13   5  20        1.51      0.28
 -12   5  20        2.02      0.32
 -11   5  20       27.28      4.99
 -10   5  20       12.68      2.26
  -9   5  20       18.94      2.94
  -8   5  20        8.14      1.14
  -7   5  20       12.49      2.07
  -6   5  20       52.93      5.32
  -5   5  20        3.99      0.58
  -4   5  20        1.71      0.24
  -3   5  20        8.65      1.09
  -2   5  20        5.60      0.67
  -1   5  20       15.27      2.23
   0   5  20        8.30      1.14
   1   5  20        1.32      0.21
   2   5  20       18.17      3.12
   3   5  20       14.69      2.33
   4   5  20       19.13      3.47
   5   5  20        6.83      1.30
   6   5  20        1.31      0.28
 -11   6  20        3.30      0.58
 -10   6  20        1.11      0.17
  -9   6  20        3.15      0.55
  -8   6  20       12.95      2.32
  -7   6  20        0.09      0.08
  -6   6  20       34.03      5.00
  -5   6  20       17.69      3.12
  -4   6  20        0.62      0.23
  -3   6  20       39.68      5.02
  -2   6  20       24.36      3.41
  -1   6  20        2.46      0.39
   0   6  20       21.22      3.26
   1   6  20       12.89      2.41
   2   6  20        6.93      1.33
   3   6  20        5.15      1.06
   4   6  20        6.91      1.62
  -7   7  20        1.45      0.31
  -6   7  20        9.64      2.17
  -5   7  20        1.20      0.31
  -4   7  20        1.70      0.33
  -3   7  20        5.82      1.10
  -2   7  20        9.79      1.95
  -1   7  20        3.69      0.75
 -17   0  21        0.02      0.03
 -16   0  21        8.45      2.19
 -15   0  21        4.91      1.38
 -14   0  21       12.37      2.85
 -13   0  21       19.81      5.25
 -12   0  21       11.25      2.48
 -11   0  21       28.70      5.61
 -10   0  21        0.32      0.16
  -9   0  21       13.37      2.47
  -8   0  21        2.13      1.88
  -7   0  21        2.12      0.49
  -6   0  21        6.27      1.63
  -5   0  21       11.50     10.75
  -4   0  21       18.93      4.08
  -3   0  21        3.65      3.24
  -2   0  21       10.92      2.13
  -1   0  21        0.02      0.02
   0   0  21        3.04      0.89
   1   0  21       30.83      6.16
   2   0  21        3.25      1.05
   3   0  21        9.03      2.88
   4   0  21       10.05      2.87
   5   0  21        0.09      0.04
   6   0  21        0.92      0.81
   7   0  21       20.72      8.09
   8   0  21        0.01      0.02
   9   0  21        2.65      1.48
 -17   1  21        1.93      0.56
 -16   1  21        2.99      0.72
 -15   1  21       13.12      2.44
 -14   1  21        1.91      0.37
 -13   1  21        0.68      0.11
 -12   1  21       12.92      2.18
 -11   1  21        1.05      0.25
 -10   1  21        3.96      0.70
  -9   1  21        2.13      0.36
  -8   1  21        1.71      0.22
  -7   1  21       21.36      2.89
  -6   1  21       26.77      3.65
  -5   1  21        1.81      0.36
  -4   1  21       29.34      5.42
  -3   1  21       28.16      2.93
  -2   1  21        2.26      0.35
  -1   1  21       22.18      2.71
   0   1  21       35.68      6.35
   1   1  21        5.67      1.58
   2   1  21        3.49      0.58
   3   1  21       20.75      3.25
   4   1  21       51.38      5.47
   5   1  21        2.13      0.45
   6   1  21        7.65      1.89
   7   1  21       10.41      2.64
   8   1  21       13.18      3.80
   9   1  21       22.02      7.48
 -16   2  21        0.86      0.21
 -15   2  21        2.34      0.50
 -14   2  21        1.94      0.36
 -13   2  21       17.24      3.44
 -12   2  21        1.07      0.19
 -11   2  21        0.54      0.15
 -10   2  21       26.11      4.22
  -9   2  21        8.90      1.45
  -8   2  21        9.19      1.56
  -7   2  21       31.95      3.77
  -6   2  21        5.97      1.08
  -5   2  21        5.46      1.08
  -4   2  21        7.41      1.39
  -3   2  21       36.43      3.99
  -2   2  21       21.43      3.48
  -1   2  21        5.09      0.99
   0   2  21       64.99      4.79
   1   2  21       13.61      2.14
   2   2  21       15.76      2.34
   3   2  21       27.19      4.01
   4   2  21       30.23      4.20
   5   2  21       10.00      2.05
   6   2  21        4.92      1.05
   7   2  21       18.37      3.86
   8   2  21        1.85      0.44
 -15   3  21        1.19      0.30
 -14   3  21        7.87      1.69
 -13   3  21        4.72      0.97
 -12   3  21        0.58      0.19
 -11   3  21       18.35      3.50
 -10   3  21        1.38      0.27
  -9   3  21        2.23      0.35
  -8   3  21       18.01      2.77
  -7   3  21        8.96      1.56
  -6   3  21        4.95      0.89
  -5   3  21        3.79      0.50
  -4   3  21       15.99      2.28
  -3   3  21        2.71      0.38
  -2   3  21       20.67      3.64
  -1   3  21       34.24      4.22
   0   3  21       14.54      2.25
   1   3  21       33.66      4.84
   2   3  21       11.57      1.90
   3   3  21       13.14      2.10
   4   3  21        9.17      1.39
   5   3  21        6.29      1.12
   6   3  21        2.65      0.55
   7   3  21        3.56      0.94
 -14   4  21        1.41      0.42
 -13   4  21       12.16      2.83
 -12   4  21        3.45      0.64
 -11   4  21        3.38      0.65
 -10   4  21       11.66      2.43
  -9   4  21       13.15      2.15
  -8   4  21        3.09      0.48
  -7   4  21       11.96      2.06
  -6   4  21       36.44      5.26
  -5   4  21       10.17      1.63
  -4   4  21       11.58      1.72
  -3   4  21       29.39      3.65
  -2   4  21       10.01      1.57
  -1   4  21        1.31      0.23
   0   4  21        2.82      0.48
   1   4  21        6.12      1.02
   2   4  21        1.13      0.21
   3   4  21       15.62      2.48
   4   4  21       10.23      1.97
   5   4  21        0.68      0.13
   6   4  21       15.54      3.43
 -12   5  21        5.05      1.32
 -11   5  21        7.75      1.78
 -10   5  21        0.71      0.20
  -9   5  21        9.83      1.83
  -8   5  21        8.53      1.98
  -7   5  21        2.82      0.49
  -6   5  21       14.14      2.75
  -5   5  21        4.68      0.78
  -4   5  21        7.37      1.45
  -3   5  21       10.42      1.67
  -2   5  21       14.05      1.99
  -1   5  21       14.63      2.52
   0   5  21        9.47      2.08
   1   5  21       19.50      3.87
   2   5  21        3.27      0.57
   3   5  21       10.83      1.95
   4   5  21        0.90      0.16
  -9   6  21        6.32      1.45
  -8   6  21        3.03      0.79
  -7   6  21        6.43      1.48
  -6   6  21        4.43      0.91
  -5   6  21        4.35      0.89
  -4   6  21       18.38      4.02
  -3   6  21        5.19      0.87
  -2   6  21        0.23      0.26
  -1   6  21        1.25      0.25
   0   6  21        7.06      1.40
   1   6  21        1.70      0.34
 -16   0  22        0.37      0.40
 -15   0  22        7.43      2.40
 -14   0  22        3.12      1.06
 -13   0  22        3.91      1.16
 -12   0  22       39.29      7.73
 -11   0  22       29.92      5.57
 -10   0  22        1.09      0.34
  -9   0  22        9.20      8.69
  -8   0  22        6.49      1.49
  -7   0  22        2.17      0.74
  -6   0  22        7.25      2.28
  -5   0  22        0.92      0.31
  -4   0  22       11.92     11.46
  -3   0  22        0.12      0.10
  -2   0  22        8.19      2.93
  -1   0  22        6.75      2.21
   0   0  22        0.01      0.02
   1   0  22        0.68      0.60
   2   0  22        0.18      0.12
   3   0  22        4.14      1.07
   4   0  22       16.79      6.41
   5   0  22        0.26      0.20
   6   0  22        0.08      0.09
   7   0  22        2.10      1.15
 -15   1  22       12.58      3.05
 -14   1  22        3.85      0.80
 -13   1  22        3.61      0.71
 -12   1  22       17.16      4.15
 -11   1  22        5.77      1.29
 -10   1  22        6.21      1.26
  -9   1  22        2.98      0.57
  -8   1  22       13.26      2.09
  -7   1  22       17.63      3.08
  -6   1  22       22.99      4.17
  -5   1  22       17.69      4.94
  -4   1  22       27.86      4.59
  -3   1  22        0.55      0.13
  -2   1  22       15.73      3.50
  -1   1  22       15.56      2.78
   0   1  22        2.14      0.53
   1   1  22        6.09      1.74
   2   1  22        2.59      0.72
   3   1  22        0.52      0.23
   4   1  22        9.18      1.92
   5   1  22        2.11      0.50
   6   1  22       14.28      4.44
   7   1  22        3.53      1.09
 -15   2  22        6.99      2.64
 -14   2  22       26.31      6.27
 -13   2  22        0.53      0.16
 -12   2  22        5.06      1.05
 -11   2  22       16.88      3.75
 -10   2  22        0.23      0.12
  -9   2  22        3.05      0.68
  -8   2  22        5.25      1.04
  -7   2  22        2.58      0.55
  -6   2  22        7.28      1.30
  -5   2  22        7.03      1.31
  -4   2  22        5.40      0.92
  -3   2  22       14.39      2.89
  -2   2  22       10.90      1.94
  -1   2  22       11.37      2.15
   0   2  22       42.15      6.06
   1   2  22       14.86      3.21
   2   2  22       11.59      2.88
   3   2  22       44.31      8.75
   4   2  22        7.95      1.90
   5   2  22       10.69      2.37
   6   2  22       26.42      6.66
   7   2  22        6.36      1.86
 -14   3  22        4.33      1.47
 -13   3  22        7.46      1.71
 -12   3  22        0.66      0.18
 -11   3  22       20.20      3.59
 -10   3  22        1.75      0.40
  -9   3  22        0.16      0.07
  -8   3  22       12.99      2.39
  -7   3  22        3.75      0.78
  -6   3  22        0.60      0.12
  -5   3  22        2.87      0.54
  -4   3  22        2.54      0.43
  -3   3  22       11.03      1.59
  -2   3  22        2.67      0.45
  -1   3  22       11.02      2.03
   0   3  22        3.49      0.63
   1   3  22        4.99      0.82
   2   3  22        6.23      1.09
   3   3  22        4.41      0.89
   4   3  22        3.77      1.07
   5   3  22        0.69      0.18
   6   3  22        1.62      0.39
 -12   4  22        2.84      0.69
 -11   4  22        1.03      0.22
 -10   4  22       13.96      3.49
  -9   4  22       13.00      2.81
  -8   4  22        3.69      0.77
  -7   4  22        0.07      0.06
  -6   4  22        2.37      0.48
  -5   4  22        3.29      0.58
  -4   4  22        0.48      0.13
  -3   4  22        3.91      0.71
  -2   4  22        6.31      1.33
  -1   4  22        8.56      1.78
   0   4  22        7.52      1.30
   1   4  22        1.69      0.33
   2   4  22        5.26      1.02
   3   4  22        0.50      0.16
   4   4  22        1.64      0.52
 -10   5  22        0.63      0.16
  -9   5  22        6.89      2.02
  -8   5  22        4.13      1.26
  -7   5  22        4.17      0.88
  -6   5  22        3.97      0.75
  -5   5  22        2.57      0.54
  -4   5  22       17.29      3.67
  -3   5  22        0.77      0.19
  -2   5  22        4.31      0.86
  -1   5  22        7.14      1.39
   0   5  22        3.29      0.64
   1   5  22        8.20      2.09
 -14   0  23        3.21      1.19
 -13   0  23       17.85      5.45
 -12   0  23        3.72      1.67
 -11   0  23        3.30      1.02
 -10   0  23       10.29      4.34
  -9   0  23       17.79      5.10
  -8   0  23        1.06      0.33
  -7   0  23        2.53      1.03
  -6   0  23        1.80      1.58
  -5   0  23       15.54     15.83
  -4   0  23        0.74      0.29
  -3   0  23        2.46      0.98
  -2   0  23        3.93      1.04
  -1   0  23        0.64      0.56
   0   0  23       12.94      4.98
   1   0  23        9.94      9.72
   3   0  23       60.93     12.00
   4   0  23        0.14      0.15
   5   0  23        0.53      0.29
 -14   1  23        1.45      0.47
 -13   1  23        3.18      0.84
 -12   1  23        0.25      0.28
 -11   1  23        2.82      0.71
 -10   1  23        6.86      1.75
  -9   1  23        7.38      1.90
  -8   1  23        0.26      0.08
  -7   1  23       36.64      6.53
  -6   1  23        1.40      0.37
  -5   1  23        5.30      2.11
  -4   1  23        4.33      1.21
  -3   1  23        2.79      0.57
  -2   1  23        9.56      2.18
  -1   1  23        5.42      1.72
   0   1  23       10.83      3.46
   1   1  23       17.86      5.10
   2   1  23        1.79      0.71
   3   1  23       18.61      6.26
   4   1  23        5.19      2.27
   5   1  23        6.35      3.73
 -13   2  23       15.49      4.66
 -12   2  23       14.46      3.51
 -11   2  23        6.71      2.11
 -10   2  23       12.21      3.82
  -9   2  23       14.28      4.85
  -8   2  23       16.79      4.94
  -7   2  23        4.65      1.37
  -6   2  23        0.91      0.35
  -5   2  23        4.93      1.15
  -3   2  23        6.94      1.71
  -2   2  23        2.20      0.75
  -1   2  23        3.85      0.99
   0   2  23       20.79      5.37
   1   2  23       13.99      4.16
   2   2  23        2.22      0.71
   3   2  23        1.34      0.47
   4   2  23        8.50      3.58
 -12   3  23        2.93      0.76
 -11   3  23        5.23      1.37
 -10   3  23       18.34      5.71
  -9   3  23       16.22      4.42
  -8   3  23        1.62      0.47
  -7   3  23       12.51      3.67
  -6   3  23       28.81      6.46
  -5   3  23        6.61      1.62
  -4   3  23        4.15      0.96
  -3   3  23       24.69      6.78
  -2   3  23        3.78      1.09
  -1   3  23       15.13      3.64
   0   3  23        4.63      1.14
   1   3  23        1.58      0.42
   2   3  23       17.75      7.67
   3   3  23        2.52      0.94
 -10   4  23        4.37      1.25
  -9   4  23       22.47      7.25
  -8   4  23        0.44      0.15
  -7   4  23        4.35      1.15
  -6   4  23        1.46      0.38
  -5   4  23        0.64      0.22
  -4   4  23        4.11      1.49
  -3   4  23        2.39      0.57
  -2   4  23        6.61      1.56
  -1   4  23       17.11      5.53
   0   4  23       14.75      5.17
   1   4  23       16.77      5.02
 -12   0  24       15.98      8.64
 -11   0  24        1.85      1.01
 -10   0  24        0.77      0.40
  -9   0  24        8.23      4.04
  -8   0  24        8.81      4.13
  -6   0  24        3.17      1.49
  -5   0  24        0.25      0.22
  -4   0  24        0.57      0.27
  -1   0  24        0.08      0.07
   0   0  24        5.54      2.77
   1   0  24        7.99      4.08
 -12   1  24        8.47      4.06
 -11   1  24       14.17      4.34
 -10   1  24        8.88      3.77
  -9   1  24        3.70      1.95
  -8   1  24       12.11      3.71
  -7   1  24       28.94      8.56
  -6   1  24       21.42      9.11
  -5   1  24        7.61      2.23
  -4   1  24        5.43      5.37
  -3   1  24       15.99      7.28
  -1   1  24        2.20      0.76
   0   1  24        2.95      0.98
   1   1  24        8.60      2.79
   2   1  24       12.90      7.62
   3   1  24       13.49      8.83
 -11   2  24        0.63      0.32
 -10   2  24        3.93      1.39
  -9   2  24        6.39      2.66
  -8   2  24        1.82      0.96
  -7   2  24       12.92      4.98
  -6   2  24        6.61      1.94
  -5   2  24        4.59      1.51
  -4   2  24        2.85      1.45
  -3   2  24        8.47      4.39
  -2   2  24        1.55      0.80
  -1   2  24        6.19      3.33
   0   2  24       10.38      3.81
   1   2  24        7.02      3.04
   2   2  24        2.87      1.13
  -9   3  24        2.22      0.67
  -8   3  24        5.06      1.53
  -7   3  24        1.70      0.65
  -6   3  24       28.37     10.02
  -5   3  24        7.35      4.12
  -4   3  24       22.16     11.45
  -3   3  24        7.80      9.31
  -2   3  24        5.08      2.89
  -1   3  24       11.63      5.45
   0   3  24        2.70      1.40
  -7   0  25        0.97      0.58
  -6   0  25        2.33      1.28
  -8   1  25       22.41     13.11
  -7   1  25        4.20      1.52
  -6   1  25        7.61      4.48
  -5   1  25        9.91      5.85
  -6   2  25        1.15      0.67
  -5   2  25        6.88      8.30
  -4   2  25        5.46      3.34
   }
  }
 REVERT
;
loop_
_symmetry_equiv_pos_as_xyz
'+x, +y, +z'
'-x, +y+1/2, -z'
loop_
_atom_site_label
_atom_site_fract_x
_atom_site_fract_y
_atom_site_fract_z
_atom_site_U_iso_or_equiv
_atom_site_adp_type
_atom_site_occupancy
_atom_site_disorder_group
O1 0.09519(2) 0.4789(2) -0.380786(19) 0.01191(7) Uani 1 0
O2 0.12318(2) 0.5098(3) -0.58414(2) 0.01268(7) Uani 1 0
O3 0.13523(2) 0.7087(3) -0.216558(18) 0.01135(7) Uani 1 0
O4 0.17831(2) 0.8006(3) -0.703287(19) 0.01256(7) Uani 1 0
C1 0.13463(2) 0.6827(3) -0.32530(2) 0.00904(8) Uani 1 0
C2 0.18017(2) 0.9015(3) -0.38885(2) 0.01035(8) Uani 1 0
C3 0.18958(2) 0.9240(3) -0.50384(2) 0.01072(8) Uani 1 0
C4 0.16124(2) 0.7359(3) -0.60350(2) 0.00981(8) Uani 1 0
H1 0.1078(12) 0.489(3) -0.4822(15) 0.01998334 Uani 1 0
H2 0.2046(9) 1.0690(17) -0.3345(7) 0.02180597 Uani 1 0
H3 0.2249(9) 1.1057(18) -0.5315(8) 0.02201039 Uani 1 0
O5 0.22349(2) 1.0888(3) -0.092741(19) 0.01194(7) Uani 1 0
O6 0.095148(18) 0.9228(3) 0.017761(18) 0.00959(6) Uani 1 0
N1 0.12387(2) 1.2986(3) 0.17419(2) 0.01045(7) Uani 1 0
C5 0.16349(2) 1.0925(3) -0.00447(2) 0.00796(7) Uani 1 0
C6 0.18068(2) 1.3376(3) 0.06747(2) 0.00850(7) Uani 1 0
C7 0.31498(2) 1.4373(3) 0.10138(2) 0.00954(8) Uani 1 0
C8 0.40365(2) 1.2630(3) 0.18246(2) 0.00885(7) Uani 1 0
C9 0.41966(2) 1.2880(3) 0.30620(2) 0.01157(8) Uani 1 0
C10 0.49986(3) 1.1256(3) 0.38179(2) 0.01323(9) Uani 1 0
C11 0.56581(2) 0.9371(3) 0.33444(3) 0.01262(9) Uani 1 0
C12 0.55177(2) 0.9119(3) 0.21137(3) 0.01280(9) Uani 1 0
C13 0.47072(2) 1.0738(3) 0.13592(2) 0.01124(8) Uani 1 0
H41 0.1357(9) 1.463(2) 0.2262(9) 0.0206249 Uani 1 0
H42 0.1603(10) 1.144(2) 0.2214(9) 0.02138947 Uani 1 0
H43 0.0279(8) 1.258(2) 0.1504(9) 0.0199827 Uani 1 0
H5 0.1915(11) 0.932(3) -0.1475(11) 0.0184767 Uani 1 0
H6 0.1227(7) 1.4831(17) 0.0122(7) 0.0158157 Uani 1 0
H71 0.3117(8) 1.6239(17) 0.1431(8) 0.0199048 Uani 1 0
H72 0.3468(8) 1.469(2) 0.0173(7) 0.0192018 Uani 1 0
H9 0.3695(8) 1.445(2) 0.3387(7) 0.0224996 Uani 1 0
H10 0.5125(9) 1.148(2) 0.4817(7) 0.0255127 Uani 1 0
H11 0.6285(9) 0.809(2) 0.3957(8) 0.0250307 Uani 1 0
H12 0.6056(10) 0.764(2) 0.1704(8) 0.0241842 Uani 1 0
H13 0.4599(8) 1.052(2) 0.0385(7) 0.0217391 Uani 1 0
loop_
_atom_site_aniso_label
_atom_site_aniso_U_11
_atom_site_aniso_U_22
_atom_site_aniso_U_33
_atom_site_aniso_U_23
_atom_site_aniso_U_13
_atom_site_aniso_U_12
O1 0.01660(7) 0.01097(7) 0.00868(7) -0.00239(5) 0.00374(6) -0.00354(6)
O2 0.01940(8) 0.01081(7) 0.00824(7) -0.00260(5) 0.00368(6) -0.00148(6)
O3 0.01435(7) 0.01262(7) 0.00766(7) -0.00217(5) 0.00356(5) -0.00207(5)
O4 0.01616(7) 0.01469(8) 0.00753(7) -0.00076(6) 0.00407(6) 0.00028(6)
C1 0.01026(7) 0.01003(8) 0.00705(8) -0.00180(6) 0.00227(6) -0.00066(6)
C2 0.01391(8) 0.00995(8) 0.00721(8) -0.00157(6) 0.00217(6) -0.00165(6)
C3 0.01433(8) 0.01051(8) 0.00744(8) -0.00118(6) 0.00246(6) -0.00144(7)
C4 0.01168(7) 0.01100(8) 0.00693(8) -0.00137(6) 0.00230(6) 0.00055(6)
H1 0.022 0.015 0.0229 -0.0007 0.0043 -0.0033
H2 0.0375 0.0145 0.0142 -0.0063 0.007 -0.008
H3 0.0347 0.0136 0.0181 0.0017 0.0061 -0.0091
O5 0.01406(7) 0.01435(8) 0.00854(7) -0.00288(6) 0.00502(5) -0.00439(6)
O6 0.01075(6) 0.00972(6) 0.00888(7) -0.00139(5) 0.00333(5) -0.00197(5)
N1 0.00925(6) 0.01342(8) 0.00890(7) -0.00331(6) 0.00229(5) 0.00010(6)
C5 0.00817(6) 0.00914(7) 0.00660(7) -0.00082(6) 0.00152(5) -0.00073(6)
C6 0.00801(7) 0.00879(7) 0.00819(8) -0.00097(6) 0.00037(5) 0.00009(6)
C7 0.00875(7) 0.00936(8) 0.00999(8) -0.00014(6) 0.00056(6) -0.00077(6)
C8 0.00777(6) 0.01019(8) 0.00840(8) -0.00088(6) 0.00109(5) 0.00030(6)
C9 0.01124(8) 0.01415(9) 0.00873(8) -0.00175(7) 0.00051(6) 0.00284(7)
C10 0.01286(8) 0.01747(11) 0.00878(9) -0.00014(7) 0.00069(7) 0.00371(7)
C11 0.01106(8) 0.01513(10) 0.01131(9) 0.00160(8) 0.00135(6) 0.00323(7)
C12 0.01171(8) 0.01475(10) 0.01195(9) -0.00029(8) 0.00239(7) 0.00447(7)
C13 0.01077(7) 0.01389(9) 0.00918(8) -0.00074(7) 0.00222(6) 0.00300(7)
H41 0.0233 0.0191 0.0201 -0.0107 0.0058 -0.0018
H42 0.0258 0.0214 0.0172 0.0057 0.0048 0.0057
H43 0.0108 0.0277 0.0226 -0.0034 0.0061 -0.0031
H5 0.0199 0.0188 0.0185 -0.0045 0.0081 -0.0025
H6 0.0146 0.0139 0.018 0.0035 0.0009 0.0039
H71 0.0206 0.0124 0.0248 -0.0037 -0.0002 0.0006
H72 0.0178 0.0256 0.0158 0.0055 0.0072 -0.0006
H9 0.0259 0.0241 0.0181 -0.004 0.0058 0.0104
H10 0.032 0.0326 0.0111 -0.001 0.0022 0.0103
H11 0.0253 0.0282 0.0206 0.0055 0.0021 0.014
H12 0.0284 0.0248 0.0201 -0.0036 0.0066 0.0122
H13 0.0258 0.0322 0.007 0.0007 0.0027 0.0086
loop_
_atom_type_symbol
_atom_type_description
_atom_type_scat_dispersion_real
_atom_type_scat_dispersion_imag
_atom_type_scat_source
C C 0 0 'Hirshfeld partitioning of a quantum chemical wavefunction.'
H H 0 0 'Hirshfeld partitioning of a quantum chemical wavefunction.'
N N 0 0 'Hirshfeld partitioning of a quantum chemical wavefunction.'
O O 0 0 'Hirshfeld partitioning of a quantum chemical wavefunction.'
loop_
_geom_angle_atom_site_label_1
_geom_angle_atom_site_label_2
_geom_angle_atom_site_label_3
_geom_angle
_geom_angle_site_symmetry_1
_geom_angle_site_symmetry_2
_geom_angle_site_symmetry_3
_geom_angle_publ_flag
O1 C1 O3 121.53(2) . . . yes
O2 C4 O4 121.43(2) . . . yes
O5 C5 O6 124.79(2) . . . yes
O1 C1 C2 120.82(2) . . . yes
O2 C4 C3 120.02(2) . . . yes
O3 C1 C2 117.64(2) . . . yes
O4 C4 C3 118.52(2) . . . yes
O5 C5 C6 113.88(2) . . . yes
O6 C5 C6 121.27(2) . . . yes
O1 H1 O2 177.1(14) . . . yes
N1 C6 C5 107.60(2) . . . yes
N1 C6 C7 111.781(19) . . . yes
N1 C6 H6 106.3(4) . . . yes
C1 O1 H1 110.8(7) . . . yes
C4 O2 H1 110.9(7) . . . yes
C5 O5 H5 108.3(6) . . . yes
C6 N1 H41 109.4(6) . . . yes
C6 N1 H42 111.4(6) . . . yes
C6 N1 H43 111.7(5) . . . yes
C1 C2 C3 129.83(2) . . . yes
C2 C3 C4 130.20(2) . . . yes
C5 C6 C7 115.843(19) . . . yes
C6 C7 C8 114.52(2) . . . yes
C7 C8 C9 120.20(2) . . . yes
C7 C8 C13 120.98(2) . . . yes
C8 C9 C10 120.64(2) . . . yes
C8 C13 C12 120.70(2) . . . yes
C9 C8 C13 118.82(2) . . . yes
C9 C10 C11 120.05(2) . . . yes
C10 C11 C12 119.91(2) . . . yes
C11 C12 C13 119.88(2) . . . yes
C1 C2 H2 114.3(5) . . . yes
C2 C3 H3 117.2(5) . . . yes
C3 C2 H2 115.8(5) . . . yes
C4 C3 H3 112.6(5) . . . yes
C5 C6 H6 106.1(5) . . . yes
C6 C7 H71 107.7(5) . . . yes
C6 C7 H72 106.4(4) . . . yes
C7 C6 H6 108.7(4) . . . yes
C8 C7 H71 110.2(5) . . . yes
C8 C7 H72 110.8(5) . . . yes
C8 C9 H9 116.4(4) . . . yes
C8 C13 H13 119.9(5) . . . yes
C9 C10 H10 120.0(5) . . . yes
C10 C9 H9 122.9(4) . . . yes
C10 C11 H11 119.1(5) . . . yes
C11 C10 H10 119.9(5) . . . yes
C11 C12 H12 121.5(5) . . . yes
C12 C11 H11 121.0(5) . . . yes
C12 C13 H13 119.4(5) . . . yes
C13 C12 H12 118.6(5) . . . yes
H41 N1 H42 111.4(8) . . . yes
H41 N1 H43 108.8(8) . . . yes
H42 N1 H43 104.0(9) . . . yes
H71 C7 H72 106.9(7) . . . yes
loop_
_geom_bond_atom_site_label_1
_geom_bond_atom_site_label_2
_geom_bond_distance
_geom_bond_site_symmetry_1
_geom_bond_site_symmetry_2
_geom_bond_publ_flag
O1 C1 1.2719(3) . . yes
O2 C4 1.2877(3) . . yes
O3 C1 1.2500(3) . . yes
O4 C4 1.2393(3) . . yes
O5 C5 1.3070(3) . . yes
O6 C5 1.2179(3) . . yes
O1 H1 1.196(18) . . yes
O2 H1 1.215(18) . . yes
O5 H5 1.050(14) . . yes
N1 C6 1.4879(3) . . yes
N1 H41 1.038(10) . . yes
N1 H42 1.010(10) . . yes
N1 H43 1.050(8) . . yes
C1 C2 1.4930(4) . . yes
C2 C3 1.3445(3) . . yes
C3 C4 1.4919(4) . . yes
C5 C6 1.5156(3) . . yes
C6 C7 1.5310(3) . . yes
C7 C8 1.5081(3) . . yes
C8 C9 1.3978(3) . . yes
C8 C13 1.3971(3) . . yes
C9 C10 1.3919(4) . . yes
C10 C11 1.3918(4) . . yes
C11 C12 1.3921(4) . . yes
C12 C13 1.3943(4) . . yes
C2 H2 1.078(8) . . yes
C3 H3 1.095(9) . . yes
C6 H6 1.105(8) . . yes
C7 H71 1.091(9) . . yes
C7 H72 1.098(8) . . yes
C9 H9 1.091(9) . . yes
C10 H10 1.130(8) . . yes
C11 H11 1.104(9) . . yes
C12 H12 1.129(9) . . yes
C13 H13 1.103(8) . . yes
