#------------------------------------------------------------------------------
#$Date: 2020-07-04 04:35:23 +0300 (Sat, 04 Jul 2020) $
#$Revision: 253705 $
#$URL: file:///home/coder/svn-repositories/cod/cif/7/24/08/7240821.cif $
#------------------------------------------------------------------------------
#
# This file is available in the Crystallography Open Database (COD),
# http://www.crystallography.net/
#
# All data on this site have been placed in the public domain by the
# contributors.
#
data_7240821
loop_
_publ_author_name
'Odendal, James A.'
'Bruce, Jocelyn C.'
'Koch, Klaus R.'
'Haynes, Delia A.'
_publ_section_title
;
 Ring stacking and laddering in ammonium carboxylate salts: extension to
 secondary ammonium salts
;
_journal_name_full               CrystEngComm
_journal_paper_doi               10.1039/D0CE00616E
_journal_year                    2020
_chemical_formula_moiety         'C12 H24 N +, C14 H11 O2 -'
_chemical_formula_sum            'C26 H35 N O2'
_chemical_formula_weight         393.55
_chemical_name_common            'dicyclohexylammonium diphenylacetete'
_space_group_crystal_system      triclinic
_space_group_IT_number           1
_space_group_name_Hall           'P 1'
_space_group_name_H-M_alt        'P 1'
_atom_sites_solution_hydrogens   mixed
_atom_sites_solution_primary     direct
_atom_sites_solution_secondary   difmap
_audit_creation_method           SHELXL-2018/3
_audit_update_record
;
2020-04-22 deposited with the CCDC.	2020-06-26 downloaded from the CCDC.
;
_cell_angle_alpha                95.286(2)
_cell_angle_beta                 90.783(2)
_cell_angle_gamma                103.644(2)
_cell_formula_units_Z            1
_cell_length_a                   5.7270(7)
_cell_length_b                   9.4987(12)
_cell_length_c                   10.4310(13)
_cell_measurement_reflns_used    3156
_cell_measurement_temperature    100(2)
_cell_measurement_theta_max      26.33
_cell_measurement_theta_min      2.22
_cell_volume                     548.71(12)
_computing_cell_refinement       'APEX II, Bruker 2007'
_computing_data_collection       'APEX II, Bruker 2007'
_computing_data_reduction        'APEX II, Bruker 2007'
_computing_structure_refinement  'SHELXL-2018/3 (Sheldrick, 2018)'
_computing_structure_solution    'SHELXS-97 (Sheldrick)'
_diffrn_ambient_temperature      100(2)
_diffrn_measured_fraction_theta_full 0.997
_diffrn_measured_fraction_theta_max 0.992
_diffrn_measurement_device_type  'Bruker APEX CCD area-detector'
_diffrn_measurement_method       \w
_diffrn_radiation_monochromator  graphite
_diffrn_radiation_type           MoK\a
_diffrn_radiation_wavelength     0.71073
_diffrn_reflns_av_R_equivalents  0.0185
_diffrn_reflns_av_unetI/netI     0.0359
_diffrn_reflns_Laue_measured_fraction_full 0.997
_diffrn_reflns_Laue_measured_fraction_max 0.992
_diffrn_reflns_limit_h_max       7
_diffrn_reflns_limit_h_min       -7
_diffrn_reflns_limit_k_max       11
_diffrn_reflns_limit_k_min       -11
_diffrn_reflns_limit_l_max       13
_diffrn_reflns_limit_l_min       -13
_diffrn_reflns_number            6017
_diffrn_reflns_point_group_measured_fraction_full 0.983
_diffrn_reflns_point_group_measured_fraction_max 0.973
_diffrn_reflns_theta_full        25.242
_diffrn_reflns_theta_max         26.383
_diffrn_reflns_theta_min         1.962
_diffrn_source                   'fine-focus sealed tube'
_exptl_absorpt_coefficient_mu    0.074
_exptl_absorpt_correction_T_max  0.998
_exptl_absorpt_correction_T_min  0.860
_exptl_absorpt_correction_type   multi-scan
_exptl_absorpt_process_details   '(SADABS, 2002)'
_exptl_crystal_colour            colourless
_exptl_crystal_density_diffrn    1.191
_exptl_crystal_description       shard
_exptl_crystal_F_000             214
_exptl_crystal_size_max          0.20
_exptl_crystal_size_mid          0.10
_exptl_crystal_size_min          0.03
_refine_diff_density_max         0.235
_refine_diff_density_min         -0.197
_refine_diff_density_rms         0.038
_refine_ls_extinction_method     none
_refine_ls_goodness_of_fit_ref   0.952
_refine_ls_hydrogen_treatment    mixed
_refine_ls_matrix_type           full
_refine_ls_number_parameters     270
_refine_ls_number_reflns         4351
_refine_ls_number_restraints     3
_refine_ls_restrained_S_all      0.951
_refine_ls_R_factor_all          0.0464
_refine_ls_R_factor_gt           0.0440
_refine_ls_shift/su_max          0.000
_refine_ls_shift/su_mean         0.000
_refine_ls_structure_factor_coef Fsqd
_refine_ls_weighting_details
'w=1/[\s^2^(Fo^2^)+(0.0735P)^2^+0.1524P] where P=(Fo^2^+2Fc^2^)/3'
_refine_ls_weighting_scheme      calc
_refine_ls_wR_factor_gt          0.1161
_refine_ls_wR_factor_ref         0.1188
_reflns_Friedel_coverage         0.961
_reflns_Friedel_fraction_full    0.968
_reflns_Friedel_fraction_max     0.953
_reflns_number_gt                4107
_reflns_number_total             4351
_reflns_threshold_expression     'I > 2\s(I)'
_cod_data_source_file            d0ce00616e2.cif
_cod_data_source_block           7
_cod_depositor_comments
;
The following automatic conversions were performed:

data item '_atom_sites_solution_secondary' value 'diffmap' was
changed to 'difmap'.

Automatic conversion script
Id: cif_fix_values 7556 2019-12-06 15:28:31Z antanas 
;
_cod_database_code               7240821
_shelx_shelxl_version_number     2018/3
_shelx_space_group_comment
;
The symmetry employed for this shelxl refinement is uniquely defined
by the following loop, which should always be used as a source of
symmetry information in preference to the above space-group names.
They are only intended as comments.
;
_shelx_estimated_absorpt_t_min   0.985
_shelx_estimated_absorpt_t_max   0.998
_shelx_res_file
;
TITL xn in P1
    C:\Users\dhaynes\DOCUME~1\Papers\13SECO~1\STRUCT~1\JBX86\HALVED~1\JBX86.res
    created by SHELXL-2018/3 at 16:23:21 on 15-Mar-2020
CELL 0.71073 5.7270 9.4987 10.4310 95.286 90.783 103.644
ZERR 1.0000 0.0007 0.0012 0.0013 0.002 0.002 0.002
LATT -1
SFAC C H N O
UNIT 26 35 1 2
ACTA
FMAP 2 1 53
GRID
PLAN 5 0 0
MERG 2
TEMP -173
L.S. 20
WGHT    0.073500    0.152400
FVAR       1.40101
O1    4    0.540949    0.213738    0.227378    11.00000    0.02030    0.04577 =
         0.02175    0.00646    0.00187    0.01118
O2    4    0.821471    0.210252    0.083443    11.00000    0.02235    0.04022 =
         0.01927    0.00539    0.00087    0.00757
C1    1    0.747662    0.204703    0.195720    11.00000    0.02143    0.01916 =
         0.02263    0.00203   -0.00201    0.00452
C2    1    0.925000    0.184408    0.301939    11.00000    0.01781    0.02792 =
         0.02006    0.00425    0.00195    0.00689
AFIX  13
H2    2    1.086297    0.197851    0.262862    11.00000   -1.20000
AFIX   0
C3    1    0.857525    0.028414    0.339679    11.00000    0.02264    0.03009 =
         0.01969    0.00371   -0.00681    0.00341
C4    1    1.014316   -0.060300    0.316664    11.00000    0.04467    0.03346 =
         0.02575    0.00563    0.00978    0.01319
AFIX  43
H4    2    1.160252   -0.024764    0.275271    11.00000   -1.20000
AFIX   0
C5    1    0.961678   -0.201010    0.353218    11.00000    0.06737    0.03574 =
         0.03063    0.00344    0.00210    0.02048
AFIX  43
H5    2    1.071317   -0.260813    0.335740    11.00000   -1.20000
AFIX   0
C6    1    0.754921   -0.254308    0.413785    11.00000    0.05301    0.03163 =
         0.05196    0.02061   -0.02344   -0.00488
AFIX  43
H6    2    0.720157   -0.350190    0.439569    11.00000   -1.20000
AFIX   0
C7    1    0.598564   -0.167069    0.436697    11.00000    0.02609    0.08607 =
         0.12428    0.07848    0.00349    0.00687
AFIX  43
H7    2    0.453959   -0.202751    0.479192    11.00000   -1.20000
AFIX   0
C8    1    0.647385   -0.027891    0.399071    11.00000    0.02517    0.06724 =
         0.09241    0.05354    0.01209    0.01786
AFIX  43
H8    2    0.534230    0.029991    0.414386    11.00000   -1.20000
AFIX   0
C9    1    0.952038    0.298243    0.417181    11.00000    0.02656    0.02834 =
         0.02132    0.00327   -0.00381    0.01134
C10   1    1.175894    0.388657    0.449476    11.00000    0.03900    0.03008 =
         0.02549    0.00852   -0.00042   -0.00096
AFIX  43
H10   2    1.308921    0.380191    0.398429    11.00000   -1.20000
AFIX   0
C11   1    1.208716    0.491864    0.555794    11.00000    0.06497    0.02449 =
         0.03314    0.00718   -0.01142   -0.00508
AFIX  43
H11   2    1.363320    0.554011    0.576084    11.00000   -1.20000
AFIX   0
C12   1    1.019456    0.504620    0.631630    11.00000    0.08274    0.04119 =
         0.03065   -0.01021   -0.01723    0.03730
AFIX  43
H12   2    1.042791    0.573621    0.705401    11.00000   -1.20000
AFIX   0
C13   1    0.797220    0.416830    0.599638    11.00000    0.05219    0.13689 =
         0.04155   -0.03892   -0.01339    0.05513
AFIX  43
H13   2    0.664693    0.425422    0.651042    11.00000   -1.20000
AFIX   0
C14   1    0.763666    0.315617    0.493087    11.00000    0.02819    0.10098 =
         0.03936   -0.02525   -0.00671    0.02017
AFIX  43
H14   2    0.607148    0.256577    0.471576    11.00000   -1.20000
AFIX   0
N1    3    0.289399    0.268392    0.016814    11.00000    0.01734    0.02665 =
         0.01834    0.00639    0.00170    0.00565
C15   1    0.305258    0.163823   -0.098012    11.00000    0.02462    0.02545 =
         0.01812    0.00343    0.00219    0.00673
AFIX  13
H15   2    0.474039    0.186957   -0.127835    11.00000   -1.20000
AFIX   0
C16   1    0.246988    0.010148   -0.057764    11.00000    0.03106    0.02843 =
         0.02339    0.00507   -0.00434    0.00831
AFIX  23
H16A  2    0.082458   -0.013483   -0.024758    11.00000   -1.20000
H16B  2    0.361014    0.003065    0.012186    11.00000   -1.20000
AFIX   0
C17   1    0.264642   -0.097668   -0.172494    11.00000    0.04246    0.02847 =
         0.03042    0.00288   -0.00407    0.01150
AFIX  23
H17A  2    0.221896   -0.197775   -0.146108    11.00000   -1.20000
H17B  2    0.432389   -0.078139   -0.201067    11.00000   -1.20000
AFIX   0
C18   1    0.097549   -0.086511   -0.284130    11.00000    0.05449    0.03418 =
         0.02541   -0.00509   -0.01109    0.01406
AFIX  23
H18A  2    0.118260   -0.154380   -0.358646    11.00000   -1.20000
H18B  2   -0.071541   -0.114809   -0.258327    11.00000   -1.20000
AFIX   0
C19   1    0.151980    0.067616   -0.322749    11.00000    0.07033    0.03800 =
         0.01895    0.00114   -0.00657    0.02029
AFIX  23
H19A  2    0.035692    0.074099   -0.391772    11.00000   -1.20000
H19B  2    0.315165    0.091742   -0.357411    11.00000   -1.20000
AFIX   0
C20   1    0.137540    0.177721   -0.208455    11.00000    0.04834    0.03175 =
         0.02166    0.00496   -0.00539    0.01709
AFIX  23
H20A  2    0.183436    0.277548   -0.235315    11.00000   -1.20000
H20B  2   -0.029678    0.160327   -0.179208    11.00000   -1.20000
AFIX   0
C21   1    0.351887    0.426557   -0.004121    11.00000    0.02340    0.02296 =
         0.02216    0.00586    0.00120    0.00666
AFIX  13
H21   2    0.233662    0.442805   -0.069262    11.00000   -1.20000
AFIX   0
C22   1    0.328067    0.517164    0.120527    11.00000    0.05085    0.03007 =
         0.02101    0.00323    0.00349    0.00249
AFIX  23
H22A  2    0.444057    0.503495    0.186760    11.00000   -1.20000
H22B  2    0.163911    0.484992    0.152481    11.00000   -1.20000
AFIX   0
C23   1    0.377133    0.678057    0.097215    11.00000    0.07073    0.02552 =
         0.02738   -0.00301    0.00919    0.00526
AFIX  23
H23A  2    0.249811    0.692568    0.038224    11.00000   -1.20000
H23B  2    0.370939    0.736972    0.179931    11.00000   -1.20000
AFIX   0
C24   1    0.619570    0.730402    0.039712    11.00000    0.04444    0.03029 =
         0.04723    0.01369   -0.01613   -0.00566
AFIX  23
H24A  2    0.636932    0.831530    0.017917    11.00000   -1.20000
H24B  2    0.748048    0.730726    0.104287    11.00000   -1.20000
AFIX   0
C25   1    0.649310    0.634987   -0.079955    11.00000    0.03486    0.03165 =
         0.06227    0.01931    0.01967    0.00947
AFIX  23
H25A  2    0.814981    0.666952   -0.109963    11.00000   -1.20000
H25B  2    0.536689    0.646194   -0.149017    11.00000   -1.20000
AFIX   0
C26   1    0.601302    0.474942   -0.055157    11.00000    0.03227    0.03327 =
         0.07095    0.02590    0.02485    0.01320
AFIX  23
H26A  2    0.614624    0.414848   -0.136226    11.00000   -1.20000
H26B  2    0.722446    0.461550    0.008288    11.00000   -1.20000
AFIX   0
H2N   2    0.144277    0.244189    0.039702    11.00000    0.01240
H1N   2    0.387036    0.252781    0.084524    11.00000    0.01845
HKLF 4




REM  xn in P1
REM wR2 = 0.1188, GooF = S = 0.952, Restrained GooF = 0.951 for all data
REM R1 = 0.0440 for 4107 Fo > 4sig(Fo) and 0.0464 for all 4351 data
REM 270 parameters refined using 3 restraints

END

WGHT      0.0483      0.1556

REM Highest difference peak  0.235,  deepest hole -0.197,  1-sigma level  0.038
Q1    1   0.3408  0.4803  0.0576  11.00000  0.05    0.24
Q2    1   0.4630  0.4464 -0.0485  11.00000  0.05    0.22
Q3    1   0.8835  0.4640  0.5902  11.00000  0.05    0.21
Q4    1   0.5791 -0.1976  0.4019  11.00000  0.05    0.19
Q5    1   0.2237  0.1648 -0.1516  11.00000  0.05    0.19
;
_shelx_res_checksum              39665
_shelx_hkl_file
;
   0  -1   0 1164.09   31.87
   0   1   0 1181.56   31.34
   0   1   0 1195.13   30.33
   0  -2   0  196.47    5.49
   0  -2   0  197.11    6.01
   0   2   0  197.67    5.57
   0   2   0  195.17    5.90
   0  -3   0  498.65   13.23
   0   3   0  476.83   13.85
   0   3   0  494.91   13.19
   0  -3   0  497.26   14.13
   0   4   0 2108.00   58.18
   0  -4   0 2213.30   57.41
   0   4   0 2200.07   56.01
   0  -4   0 2190.17   59.28
   0   5   0   94.57    3.98
   0   5   0  100.55    3.04
   0  -5   0   95.54    4.08
   0   5   0   98.73    3.62
   0   6   0  106.51    4.58
   0   6   0  112.04    4.18
   0  -6   0  113.59    4.76
   0   7   0  172.10    6.62
   0  -7   0  173.78    6.81
   0   7   0  169.71    5.96
   0   8   0   37.99    2.41
   0  -8   0   39.14    2.86
   0   8   0   40.87    2.86
   0   9   0   50.60    3.50
   0  -9   0   50.90    3.52
   0  10   0   45.89    3.49
   0 -10   0   50.46    3.61
   0 -11   0   31.06    3.34
   0  11   0   29.02    3.18
   0  11  -1   67.78    4.55
   0 -11   1   73.24    4.77
   0  10  -1    3.78    1.36
   0 -10   1    3.89    1.23
   0  -9   1    3.20    1.02
   0  -9   1    4.12    1.26
   0   9  -1    3.28    1.12
   0  -8   1   56.64    3.19
   0  -8   1   57.12    3.47
   0   8  -1   54.71    3.37
   0  -7   1   34.94    2.46
   0   7  -1   33.60    2.13
   0   7  -1   33.15    2.38
   0  -6   1   42.83    2.63
   0   6  -1   45.19    2.33
   0   6  -1   42.18    2.56
   0   5  -1   27.36    1.65
   0   5  -1   25.54    1.78
   0   5  -1   25.80    1.10
   0  -5   1   27.89    1.88
   0   4  -1 3460.05   93.36
   0  -4   1 3524.89   94.87
   0   4  -1 3657.74   92.72
   0   4  -1 3450.22   89.99
   0   3  -1  504.44   13.75
   0   3  -1  532.87   13.74
   0   3  -1  494.25   14.36
   0  -3   1  506.91   14.52
   0   2  -1 6034.94  156.45
   0  -2   1 5840.05  152.25
   0   2  -1 5954.98  156.75
   0  -2   1 5736.68  160.57
   0   1  -1    0.12    0.21
   0  -1   1    0.19    0.21
   0  -1   1    0.18    0.26
   0   1  -1    0.16    0.25
   0   0   1  568.99   14.17
   0   0  -1  507.69   14.62
   0   0  -1  554.51   14.66
   0  -1  -1  461.39   12.68
   0  -1  -1  462.28   12.41
   0   1   1  453.99   12.42
   0   1   1  454.47   11.93
   0  -2  -1  463.41   12.87
   0  -2  -1  451.15   12.35
   0   2   1  460.62   11.98
   0   2   1  438.06   12.53
   0   3   1   88.97    3.31
   0  -3  -1   90.79    3.47
   0  -3  -1   94.97    2.95
   0   3   1   90.80    2.99
   0  -4  -1  145.93    4.38
   0  -4  -1  143.33    5.20
   0   4   1  138.47    5.01
   0   4   1  144.34    4.54
   0   5   1  893.20   23.15
   0  -5  -1  866.55   23.30
   0  -5  -1  837.54   24.84
   0   6   1   96.28    3.61
   0  -6  -1   84.58    4.14
   0   6   1   91.77    4.13
   0   7   1   92.43    4.37
   0   7   1   87.15    3.72
   0  -7  -1   92.84    4.50
   0  -8  -1   52.94    3.43
   0   8   1   53.59    2.86
   0   8   1   51.36    3.34
   0   9   1   70.90    4.22
   0  -9  -1   79.33    4.49
   0 -10  -1   33.87    3.03
   0  10   1   35.69    3.09
   0 -11  -1   52.92    3.99
   0  11   1   46.31    3.77
   0 -11   2   30.49    3.31
   0  11  -2   29.47    3.24
   0 -10   2   11.88    2.01
   0  10  -2   11.18    1.99
   0  -9   2   24.32    2.37
   0   9  -2   22.88    2.48
   0  -9   2   23.46    2.43
   0  -8   2    5.20    1.21
   0   8  -2    4.67    1.25
   0  -8   2    4.61    1.18
   0  -7   2   36.14    2.36
   0  -7   2   38.88    2.51
   0   7  -2   30.76    2.35
   0  -6   2  387.78   12.04
   0   6  -2  371.19   11.97
   0  -6   2  386.63   11.50
   0  -5   2  880.15   23.40
   0  -5   2  858.19   24.50
   0   5  -2  863.53   23.06
   0   5  -2  847.88   24.28
   0   4  -2  109.49    3.46
   0   4  -2  112.91    4.23
   0  -4   2  115.74    4.15
   0  -4   2  117.64    4.09
   0  -3   2 2117.05   60.16
   0  -3   2 2271.57   57.45
   0   3  -2 2253.24   58.88
   0   3  -2 2293.40   59.47
   0  -2   2  909.80   23.54
   0   2  -2  894.69   24.26
   0  -2   2  864.55   24.40
   0   2  -2  922.87   24.00
   0   1  -2 2665.51   70.47
   0   1  -2 2625.81   69.76
   0  -1   2 2566.78   71.61
   0  -1   2 2722.77   67.51
   0   0  -2 1333.97   36.62
   0   0   2 1386.65   35.45
   0   0  -2 1431.61   36.72
   0   0  -2 1371.70   37.71
   0  -1  -2 5267.19  139.63
   0  -1  -2 4767.31  139.77
   0   1   2 5298.59  138.00
   0   1   2 5409.35  134.65
   0  -2  -2  477.29   13.82
   0   2   2  489.25   13.58
   0  -2  -2  493.37   13.50
   0   2   2  490.97   12.92
   0  -3  -2  483.12   13.33
   0   3   2  483.55   12.85
   0   3   2  479.56   13.60
   0  -3  -2  469.91   13.92
   0   4   2  670.99   18.75
   0  -4  -2  665.78   19.21
   0  -4  -2  652.45   18.20
   0   4   2  663.55   17.73
   0  -5  -2  241.06    7.20
   0   5   2  243.87    7.24
   0   5   2  231.98    7.91
   0  -5  -2  235.47    8.14
   0   6   2  296.49    8.70
   0  -6  -2  297.89    9.86
   0   6   2  265.34    9.48
   0   7   2  624.44   18.87
   0   7   2  638.85   17.55
   0  -7  -2  610.10   19.24
   0   8   2  246.35    9.04
   0  -8  -2  239.26    9.29
   0   9   2    1.84    1.15
   0  -9  -2    0.45    0.93
   0 -10  -2   12.44    2.34
   0  10   2   11.20    2.12
   0 -11  -2   17.94    2.87
   0  11   2   18.18    2.75
   0 -11   3    4.13    1.29
   0  11  -3    4.80    1.55
   0 -10   3   10.30    1.77
   0  10  -3    9.60    1.90
   0 -10   3   13.25    2.14
   0  -9   3   35.32    2.72
   0   9  -3   33.43    2.80
   0  -9   3   36.14    2.75
   0  -8   3   10.93    1.67
   0   8  -3   10.98    1.74
   0  -8   3   12.28    1.64
   0  -7   3   40.66    2.60
   0  -7   3   40.39    2.50
   0   7  -3   36.76    2.58
   0   6  -3   16.29    1.73
   0  -6   3   17.01    1.54
   0  -6   3   18.88    1.76
   0  -5   3  277.46    8.77
   0   5  -3  283.21    7.99
   0  -5   3  274.84    8.70
   0   5  -3  273.42    8.97
   0  -4   3  663.88   18.13
   0   4  -3  658.81   17.96
   0  -4   3  651.55   18.59
   0   4  -3  660.19   18.71
   0   3  -3  133.94    4.31
   0  -3   3  132.86    4.57
   0   3  -3  137.92    4.66
   0  -3   3  137.75    4.33
   0   2  -3  601.55   17.26
   0  -2   3  626.90   16.87
   0   2  -3  634.66   17.15
   0  -2   3  636.09   17.12
   0   1  -3  500.03   14.06
   0   1  -3  516.36   14.09
   0  -1   3  503.14   13.70
   0  -1   3  502.78   13.95
   0   0  -3  809.37   22.28
   0   0   3  812.02   21.59
   0   0  -3  828.80   22.37
   0   0  -3  842.78   22.45
   0   1   3 1143.33   31.30
   0  -1  -3 1173.51   31.67
   0  -1  -3 1167.79   31.45
   0   1   3 1181.02   30.22
   0   2   3 2275.19   57.56
   0  -2  -3 2334.52   59.81
   0  -2  -3 2161.22   60.67
   0   2   3 2225.63   59.70
   0   3   3 1084.41   29.70
   0  -3  -3 1074.08   30.27
   0   3   3 1123.11   28.43
   0  -3  -3 1080.08   29.56
   0   4   3   51.09    2.13
   0   4   3   47.41    2.44
   0  -4  -3   45.28    2.52
   0  -4  -3   51.12    2.29
   0  -5  -3   73.03    3.48
   0   5   3   71.75    2.86
   0  -5  -3   64.21    2.84
   0   5   3   70.30    3.29
   0  -6  -3  295.08   10.26
   0   6   3  309.17   10.14
   0   6   3  304.80    9.10
   0  -6  -3  299.63    9.20
   0   7   3   65.76    3.10
   0  -7  -3   69.80    3.94
   0   7   3   70.24    3.89
   0  -8  -3   20.40    2.47
   0   8   3   21.11    2.42
   0   9   3   12.19    2.07
   0  -9  -3    8.11    1.88
   0  10   3   11.60    2.22
   0 -10  -3   11.09    2.25
   0 -11   4   11.10    2.10
   0  11  -4    9.08    1.93
   0 -10   4    4.04    1.24
   0 -10   4    3.04    1.27
   0  10  -4    2.16    1.09
   0  -9   4   37.94    2.84
   0  -9   4   33.76    2.76
   0   8  -4    1.65    0.93
   0  -8   4    3.62    0.97
   0  -8   4    3.03    0.98
   0   7  -4   40.63    2.74
   0  -7   4   37.78    2.48
   0  -7   4   39.37    2.64
   0  -6   4   35.86    2.38
   0   6  -4   32.26    2.30
   0  -6   4   40.35    2.29
   0   5  -4  112.15    4.49
   0  -5   4  108.57    4.12
   0   5  -4  105.82    3.74
   0  -5   4  104.80    4.34
   0   4  -4  281.41    9.04
   0  -4   4  278.45    8.86
   0  -4   4  296.96    8.74
   0   4  -4  296.84    8.59
   0   3  -4   43.80    2.22
   0  -3   4   45.01    1.84
   0  -3   4   46.60    2.29
   0   3  -4   42.37    2.08
   0   2  -4   93.57    3.47
   0  -2   4   92.36    3.50
   0   2  -4   92.80    3.41
   0  -2   4   88.87    2.80
   0  -1   4  300.76    8.81
   0   1  -4  310.02    9.07
   0   1  -4  298.11    8.95
   0   0  -4  174.55    5.58
   0   0  -4  170.62    4.84
   0   0   4  159.51    5.23
   0   0  -4  168.89    5.39
   0  -1  -4  654.47   18.33
   0  -1  -4  668.43   18.06
   0   1   4  655.45   18.12
   0   1   4  633.06   17.45
   0  -2  -4  591.29   16.59
   0   2   4  581.77   15.70
   0  -2  -4  579.15   16.47
   0   2   4  573.06   16.34
   0  -3  -4  515.39   14.91
   0   3   4  505.12   14.68
   0  -3  -4  494.06   14.69
   0   3   4  521.81   13.94
   0  -4  -4   75.70    3.52
   0   4   4   82.46    3.07
   0  -4  -4   81.04    3.41
   0   4   4   82.62    3.52
   0  -5  -4   28.23    2.11
   0   5   4   27.11    1.63
   0  -5  -4   22.57    1.67
   0   5   4   27.61    1.99
   0  -6  -4  107.63    4.86
   0   6   4   97.35    4.61
   0  -6  -4  107.21    4.22
   0   6   4  105.36    4.03
   0  -7  -4   31.59    2.69
   0   7   4   33.49    2.61
   0  -8  -4   46.08    3.44
   0   8   4   49.93    3.47
   0   9   4    8.90    1.89
   0  -9  -4    6.15    1.69
   0 -10  -4    0.13    1.12
   0  10   4    0.06    1.09
   0  11  -5    3.24    1.24
   0 -11   5    0.80    1.13
   0 -10   5    1.17    1.00
   0  10  -5    1.03    1.00
   0  -9   5   22.69    2.32
   0  -9   5   19.93    2.37
   0   9  -5   23.45    2.64
   0  -8   5    4.52    1.23
   0  -8   5    6.03    1.19
   0   8  -5    5.90    1.40
   0   7  -5   14.42    1.88
   0  -7   5   16.18    1.92
   0  -7   5   15.73    1.70
   0  -6   5   41.41    2.67
   0   6  -5   40.83    2.68
   0  -6   5   43.55    2.43
   0   5  -5   11.58    1.47
   0   5  -5   15.90    1.27
   0  -5   5    9.29    1.42
   0  -5   5   14.93    1.23
   0   4  -5  140.62    4.91
   0  -4   5  142.26    5.33
   0   4  -5  138.81    5.27
   0  -4   5  144.49    4.69
   0   3  -5   60.14    2.83
   0  -3   5   62.46    2.20
   0   3  -5   62.55    2.75
   0  -3   5   58.91    2.89
   0  -2   5  163.83    5.64
   0   2  -5  163.11    5.62
   0  -2   5  167.35    4.70
   0   2  -5  165.07    5.67
   0   1  -5   52.68    2.56
   0  -1   5   50.15    2.43
   0   1  -5   51.22    2.40
   0   0  -5   87.53    2.72
   0   0  -5   88.59    3.45
   0   0   5   89.93    3.40
   0   0  -5   86.50    3.62
   0   1   5  423.93   12.25
   0  -1  -5  412.28   12.48
   0  -1  -5  426.24   11.89
   0   1   5  415.36   11.82
   0  -2  -5 1567.41   41.86
   0  -2  -5 1503.27   41.87
   0   2   5 1554.61   40.04
   0   2   5 1520.43   41.51
   0   3   5   36.89    1.92
   0  -3  -5   38.41    2.27
   0  -3  -5   37.05    2.07
   0   3   5   38.94    2.15
   0   4   5  105.98    4.23
   0  -4  -5  107.10    4.31
   0   4   5  100.20    3.76
   0  -4  -5   98.04    4.20
   0  -5  -5   11.75    1.54
   0   5   5   12.61    1.53
   0  -5  -5   12.85    1.49
   0   5   5   12.77    1.28
   0   6   5  282.01    8.55
   0  -6  -5  265.57    8.97
   0   6   5  269.96    9.44
   0  -6  -5  270.67    9.57
   0   7   5   60.78    3.72
   0  -7  -5   63.38    3.86
   0   8   5   36.19    3.02
   0  -8  -5   34.16    2.96
   0   9   5   42.51    3.49
   0  -9  -5   37.94    3.35
   0  10   5   16.11    2.69
   0 -10  -5   12.67    2.49
   0 -10   6    4.55    1.51
   0  10  -6    2.86    1.25
   0   9  -6    5.02    1.39
   0  -9   6    5.72    1.45
   0   8  -6   88.86    4.66
   0  -8   6   80.59    4.52
   0  -7   6    5.57    1.34
   0   7  -6    9.60    1.68
   0  -6   6  168.52    6.49
   0   6  -6  151.62    6.32
   0   5  -6   14.14    1.37
   0   5  -6   11.39    1.54
   0  -5   6   14.32    1.75
   0   4  -6   10.68    1.25
   0   4  -6   10.93    1.43
   0  -4   6   10.77    1.45
   0   3  -6   13.96    1.39
   0   3  -6   13.61    1.46
   0  -3   6   13.14    1.50
   0   2  -6  193.21    6.68
   0   2  -6  190.90    6.60
   0  -2   6  197.56    6.64
   0  -1   6  164.71    5.66
   0   1  -6  160.94    5.68
   0   1  -6  156.55    5.77
   0   0  -6   57.56    1.93
   0   0   6   57.55    2.75
   0   0  -6   62.37    2.99
   0  -1  -6  156.51    5.01
   0   1   6  165.30    5.49
   0   1   6  160.50    5.62
   0  -1  -6  164.57    5.98
   0   2   6  532.66   15.23
   0  -2  -6  547.74   16.27
   0   2   6  549.32   15.86
   0  -2  -6  551.45   15.62
   0  -3  -6   46.46    2.37
   0  -3  -6   44.15    2.61
   0   3   6   44.86    2.44
   0   3   6   39.60    2.17
   0   4   6  158.88    6.14
   0  -4  -6  160.83    6.23
   0   4   6  169.31    5.69
   0  -4  -6  176.92    6.19
   0   5   6   35.32    2.42
   0  -5  -6   36.19    2.48
   0   5   6   32.01    1.98
   0  -5  -6   31.55    2.33
   0  -6  -6  101.23    4.58
   0   6   6  105.06    4.82
   0  -6  -6  102.49    4.89
   0   7   6    6.74    1.57
   0  -7  -6    4.06    1.32
   0  -8  -6    1.20    1.15
   0   8   6    5.08    1.52
   0   9   6   24.06    3.05
   0  -9  -6   25.51    2.97
   0 -10   7    9.74    2.01
   0  10  -7   11.95    2.18
   0  -9   7   24.50    2.88
   0   9  -7   35.75    3.08
   0   8  -7   27.78    2.87
   0  -8   7   23.77    2.68
   0  -7   7   97.77    4.90
   0   7  -7   93.69    4.81
   0   6  -7   89.83    4.47
   0  -6   7   89.64    4.56
   0   5  -7  274.73    9.38
   0  -5   7  263.82    9.30
   0  -4   7   94.04    4.35
   0   4  -7   99.16    4.37
   0  -3   7   26.38    2.01
   0   3  -7   26.42    1.95
   0   3  -7   26.38    1.97
   0   2  -7   94.83    4.14
   0   2  -7   95.72    4.05
   0  -2   7   87.57    3.99
   0   1  -7   35.97    2.23
   0  -1   7   36.25    2.25
   0   1  -7   40.06    2.47
   0   0  -7   22.34    1.86
   0   0   7   28.83    1.94
   0   0   7   31.85    2.05
   0  -1  -7  139.24    5.67
   0   1   7  138.89    5.11
   0   1   7  142.16    5.32
   0   2   7  400.61   12.68
   0  -2  -7  423.00   13.21
   0   2   7  427.67   12.29
   0   3   7    4.77    0.93
   0  -3  -7    5.01    1.20
   0   3   7    5.74    1.08
   0  -3  -7    8.18    1.09
   0   4   7    6.83    1.25
   0   4   7    9.29    1.25
   0  -4  -7    9.12    1.29
   0  -4  -7    8.21    1.46
   0   5   7   22.95    1.78
   0   5   7   22.35    2.01
   0  -5  -7   23.69    2.07
   0  -5  -7   21.76    2.18
   0  -6  -7   71.12    3.93
   0   6   7   76.44    4.10
   0  -6  -7   79.29    4.13
   0  -7  -7   18.53    2.33
   0   7   7   23.82    2.57
   0   8   7   17.10    2.55
   0  -8  -7   15.10    2.33
   0  -9  -7   30.09    3.23
   0   9   7   32.29    3.54
   0   9  -8  110.58    5.90
   0  -8   8    3.20    1.23
   0   8  -8    1.04    1.02
   0  -7   8  275.47   10.24
   0   7  -8  280.28   10.30
   0  -6   8  132.45    6.03
   0   6  -8  139.86    6.10
   0   5  -8  124.05    5.43
   0   5  -8  120.29    5.01
   0  -5   8  114.48    5.35
   0  -4   8   40.68    2.75
   0   4  -8   37.01    2.48
   0   4  -8   36.94    2.58
   0   3  -8    6.27    1.23
   0   3  -8    6.10    1.24
   0  -3   8    7.80    1.35
   0   2  -8   22.13    1.97
   0   2  -8   20.02    1.78
   0  -2   8   22.08    1.92
   0   1  -8   73.58    3.71
   0   1  -8   80.87    3.93
   0  -1   8   81.62    3.79
   0   0   8  109.74    4.81
   0   0  -8  118.50    5.17
   0   0   8  119.95    4.76
   0  -1  -8  129.96    5.68
   0   1   8  134.54    5.35
   0   1   8  136.98    5.19
   0   2   8  100.21    4.37
   0  -2  -8   95.74    4.70
   0   2   8   98.44    4.16
   0  -3  -8   10.66    1.74
   0   3   8   10.55    1.40
   0   3   8   11.93    1.52
   0  -4  -8   57.93    3.59
   0   4   8   67.82    3.27
   0  -5  -8   14.97    2.04
   0   5   8   15.51    1.91
   0   6   8   35.17    2.76
   0  -6  -8   32.47    2.72
   0   7   8    1.25    1.17
   0   8   8   18.47    2.71
   0   9  -9    0.57    1.14
   0  -9   9    0.82    1.06
   0   8  -9    3.27    1.34
   0  -8   9    1.19    1.20
   0   7  -9   36.17    3.05
   0  -7   9   34.64    3.30
   0   6  -9   25.28    2.63
   0  -6   9   22.34    2.65
   0   5  -9   69.17    3.93
   0   5  -9   63.10    3.54
   0  -5   9   69.08    4.00
   0  -4   9   44.75    3.07
   0   4  -9   44.14    2.88
   0   4  -9   48.83    3.05
   0   3  -9    3.53    1.14
   0   3  -9    4.03    1.09
   0  -3   9    5.73    1.27
   0  -2   9   13.39    1.80
   0   2  -9   13.75    1.82
   0   2  -9   14.70    1.82
   0   1  -9   66.76    3.54
   0  -1   9   61.38    3.45
   0   1  -9   63.92    3.71
   0   0   9   72.69    3.71
   0   0   9   76.84    3.83
   0   0  -9   67.83    4.02
   0   1   9   61.38    3.35
   0  -1  -9   53.97    3.53
   0   1   9   61.81    3.26
   0  -2  -9   70.28    4.14
   0   2   9   78.87    3.89
   0   2   9   76.87    3.74
   0  -3  -9   54.65    3.63
   0   3   9   60.38    3.21
   0   3   9   61.36    3.39
   0   4   9   25.06    1.99
   0   4   9   20.58    2.16
   0  -4  -9   19.40    2.39
   0  -5  -9   15.90    2.25
   0   5   9   10.77    1.79
   0   6   9   12.97    2.01
   0  -6  -9   13.45    2.16
   0   7   9    6.40    1.72
   0  -8  10   24.32    3.13
   0   8 -10   19.73    2.78
   0   7 -10    1.24    1.18
   0  -7  10    1.31    1.20
   0  -6  10    5.81    1.61
   0   6 -10    5.74    1.53
   0   5 -10    1.66    0.92
   0   5 -10    2.87    1.10
   0  -5  10    2.12    0.93
   0  -4  10  203.50    7.88
   0   4 -10  197.49    7.75
   0   4 -10  188.77    7.66
   0   3 -10  146.64    6.49
   0  -3  10  156.35    6.56
   0   3 -10  153.06    6.46
   0   2 -10  157.16    6.85
   0   2 -10  159.77    6.63
   0  -2  10  163.96    6.64
   0  -1  10   72.77    3.93
   0  -1  10   70.01    3.86
   0   1 -10   68.33    4.15
   0   0  10  169.22    6.58
   0   0  10  154.22    6.53
   0   0 -10  164.49    7.05
   0  -1 -10   84.32    4.69
   0   1  10   88.59    4.29
   0   1  10   84.29    4.30
   0   2  10   42.77    2.83
   0  -2 -10   40.25    3.17
   0   2  10   43.57    2.93
   0  -3 -10   23.45    2.67
   0   3  10   23.43    2.24
   0   3  10   25.31    2.25
   0   4  10   28.41    2.51
   0  -4 -10   27.31    2.96
   0   5  10   43.30    3.16
   0  -5 -10   43.73    3.50
   0  -6 -10    2.90    1.42
   0  -7  11    8.43    2.02
   0   7 -11   10.47    2.08
   0  -6  11   -0.10    0.86
   0   6 -11    1.48    1.08
   0  -5  11   50.71    3.64
   0   5 -11   52.15    3.58
   0   5 -11   54.81    3.68
   0   4 -11   97.53    5.22
   0   4 -11  106.13    5.27
   0  -4  11  101.49    5.30
   0  -3  11   65.29    4.04
   0   3 -11   70.06    4.27
   0   3 -11   67.49    3.99
   0   2 -11    4.95    1.47
   0  -2  11    9.66    1.73
   0   2 -11   11.10    1.80
   0   1 -11   14.52    2.27
   0  -1  11   15.11    2.07
   0  -1  11   17.13    2.12
   0   0  11    4.79    1.27
   0   0  11    8.56    1.59
   0   0 -11    6.40    1.73
   0   1  11   20.71    2.29
   0   1  11   22.94    2.38
   0  -1 -11   18.08    2.51
   0   2  11    4.13    1.18
   0   2  11    2.05    1.03
   0  -2 -11    2.50    1.35
   0  -3 -11    4.98    1.53
   0   3  11    7.64    1.58
   0  -4 -11   16.67    2.55
   0  -5 -11    7.39    1.95
   0   5 -12   47.65    3.58
   0  -5  12   44.34    3.58
   0   5 -12   45.75    3.49
   0   4 -12   32.65    3.14
   0  -4  12   29.01    3.10
   0   4 -12   35.08    2.99
   0  -3  12  121.82    6.00
   0   3 -12  113.72    5.96
   0   3 -12  117.48    5.89
   0   2 -12    5.18    1.58
   0  -2  12    3.97    1.22
   0  -2  12    5.52    1.44
   0   1 -12    6.13    1.74
   0  -1  12    7.16    1.61
   0  -1  12    6.23    1.50
   0   0  12    6.83    1.55
   0   0 -12    3.86    1.54
   0   0  12    9.70    1.77
   0  -1 -12    9.89    2.11
   0   1  12   11.55    1.96
   0  -2 -12   11.07    2.23
   0   2  12   10.78    1.96
   0  -3 -12   46.81    3.84
   0  -2  13    1.10    1.06
   0  -1  13   10.81    1.93
   0   1 -13   10.27    2.21
  -1   3  12   35.79    2.91
   1  -3 -12   28.06    3.33
  -1   2  12    6.30    1.60
   1  -2 -12    4.26    1.71
   1  -1 -12    3.41    1.49
  -1   1  12    2.47    1.13
  -1   0  12   11.63    2.05
   1   0 -12   11.35    2.31
   1   1 -12   21.46    2.82
  -1  -1  12   20.76    2.62
  -1  -2  12    1.41    1.07
   1   2 -12    2.14    1.30
   1   3 -12   55.28    4.01
  -1  -3  12   62.68    4.06
  -1  -4  12  102.13    5.48
   1   4 -12   80.11    4.97
   1  -5 -11   45.34    3.68
  -1   4  11   68.70    3.93
   1  -4 -11   62.95    4.33
  -1   3  11    4.30    1.22
   1  -3 -11    5.29    1.56
   1  -2 -11   11.87    2.21
  -1   2  11    8.34    1.62
   1  -1 -11   11.07    2.09
  -1   1  11   13.57    2.04
  -1   0  11  114.96    5.41
   1   0 -11  102.69    5.55
  -1  -1  11   36.79    2.89
   1   1 -11   31.99    3.11
   1   2 -11   54.38    3.77
  -1  -2  11   58.44    3.72
   1   3 -11   14.68    2.27
  -1  -3  11   15.21    2.30
  -1  -4  11  157.68    7.10
   1   4 -11  162.11    7.13
   1   5 -11    2.05    1.07
  -1  -5  11   -0.37    1.00
   1   5 -11    0.25    1.05
   1   6 -11   11.23    2.01
  -1  -6  11    8.58    1.96
   1  -6 -10    3.10    1.45
   1  -5 -10   22.22    2.74
  -1   5  10   28.15    2.40
  -1   4  10   15.47    1.99
   1  -4 -10   13.98    2.25
   1  -3 -10   43.92    3.44
  -1   3  10   49.80    3.13
  -1   2  10   25.70    2.42
   1  -2 -10   24.34    2.64
   1  -1 -10   22.29    2.56
  -1   1  10   25.75    2.49
  -1   0  10    6.60    1.35
   1   0 -10    3.02    1.28
   1   1 -10   41.81    3.18
  -1  -1  10   46.85    3.14
  -1  -2  10  125.09    5.73
   1   2 -10  126.88    5.38
   1   2 -10  123.68    5.88
   1   3 -10  268.67    9.53
  -1  -3  10  280.03    9.95
   1   3 -10  271.86   10.02
   1   4 -10   24.81    2.19
   1   4 -10   23.34    2.48
  -1  -4  10   22.55    2.61
   1   5 -10   56.21    3.54
  -1  -5  10   54.35    3.76
   1   5 -10   52.41    3.47
  -1  -6  10    9.30    1.89
   1   6 -10    9.57    1.80
  -1  -7  10   14.77    2.39
   1   7 -10   14.90    2.28
   1  -6  -9    2.75    1.21
  -1   6   9    4.35    1.21
  -1   5   9    3.16    1.07
   1  -5  -9    3.38    1.31
  -1   4   9    1.22    0.82
   1  -4  -9    1.38    1.11
  -1   3   9   28.27    2.23
   1  -3  -9   28.48    2.55
  -1   2   9   34.28    2.28
   1  -2  -9   34.75    2.78
  -1   2   9   36.87    2.54
   1  -1  -9  498.91   16.64
  -1   1   9  523.75   15.92
  -1   1   9  573.35   16.16
  -1   0   9  203.91    7.45
  -1   0   9  224.41    7.84
   1   0  -9  207.28    8.10
  -1  -1   9   35.42    2.58
   1   1  -9   41.92    2.59
   1   1  -9   32.62    2.65
  -1  -2   9   15.59    2.02
   1   2  -9   14.11    1.67
   1   2  -9   11.66    1.82
   1   3  -9   22.55    2.33
  -1  -3   9   25.93    2.54
   1   3  -9   25.19    2.08
   1   4  -9  122.79    5.45
  -1  -4   9  116.90    5.48
   1   4  -9  118.44    5.24
  -1  -5   9   92.78    4.88
   1   5  -9   97.48    4.75
   1   5  -9  104.04    4.86
  -1  -6   9    7.59    1.69
   1   6  -9    5.31    1.33
   1   7  -9    5.96    1.57
  -1  -7   9    8.80    1.90
   1   8  -9    3.16    1.34
  -1  -8   9    1.12    1.23
   1  -8  -8   17.56    2.55
   1  -7  -8    2.20    1.26
   1  -6  -8   12.40    1.92
  -1   6   8   11.00    1.65
   1  -5  -8    5.20    1.35
  -1   5   8    5.49    1.16
   1  -4  -8    7.95    1.64
  -1   4   8    7.94    1.35
  -1   4   8    7.85    1.29
  -1   3   8   75.66    3.53
   1  -3  -8   83.39    4.18
  -1   3   8   78.04    3.75
   1  -2  -8   34.72    2.64
  -1   2   8   34.56    2.33
  -1   2   8   38.66    2.24
   1  -1  -8   81.41    4.18
  -1   1   8   85.58    3.67
  -1   1   8   83.49    3.93
  -1   0   8   10.06    1.48
   1   0  -8   10.75    1.67
  -1   0   8    9.27    1.22
   1   1  -8   54.41    2.80
  -1  -1   8   52.54    3.03
   1   1  -8   50.65    3.14
   1   2  -8   11.73    1.42
   1   2  -8   11.96    1.67
  -1  -2   8   10.57    1.59
  -1  -3   8   70.91    3.74
   1   3  -8   65.15    3.35
   1   3  -8   67.77    3.66
   1   4  -8   95.77    4.32
   1   4  -8   88.56    4.32
  -1  -4   8   86.52    4.38
   1   5  -8  110.59    4.90
   1   5  -8  100.71    4.83
  -1  -5   8  109.64    5.10
  -1  -6   8   61.16    3.83
   1   6  -8   69.99    3.90
   1   7  -8    8.37    1.66
  -1  -7   8    7.21    1.74
   1   8  -8    7.43    1.70
  -1  -8   8    3.30    1.37
   1   9  -8   26.82    3.14
  -1  -9   8   24.34    3.05
   1  -9  -7   20.08    2.80
   1  -8  -7   21.47    2.69
  -1   7   7   16.51    2.09
   1  -7  -7   13.56    2.10
  -1   7   7   16.16    1.94
  -1   6   7   10.01    1.51
   1  -6  -7   10.72    1.70
   1  -6  -7   12.12    1.83
  -1   6   7   11.33    1.62
  -1   5   7   14.19    1.60
  -1   5   7   14.02    1.61
   1  -5  -7   13.51    1.76
   1  -5  -7   14.86    1.91
   1  -4  -7   48.87    2.89
  -1   4   7   54.16    2.76
   1  -4  -7   49.77    3.06
  -1   4   7   51.16    2.78
  -1   3   7   65.65    3.18
   1  -3  -7   64.45    3.47
  -1   3   7   65.95    3.03
   1  -3  -7   63.69    3.11
  -1   2   7  185.14    6.28
  -1   2   7  184.84    6.49
   1  -2  -7  196.70    6.31
   1  -2  -7  178.01    6.89
   1  -1  -7  264.17    9.20
  -1   1   7  279.51    8.62
  -1   1   7  276.36    8.84
   1   0  -7   51.68    2.96
   1   0  -7   54.77    2.64
  -1  -1   7   81.15    3.78
   1   1  -7   85.32    3.94
   1   1  -7   82.03    3.49
   1   2  -7  117.00    4.60
  -1  -2   7  124.58    4.97
   1   2  -7  117.08    4.93
   1   3  -7  137.04    5.31
  -1  -3   7  149.78    5.70
   1   3  -7  136.75    5.52
  -1  -4   7   56.49    3.25
   1   4  -7   61.29    3.25
   1   4  -7   59.93    3.14
   1   5  -7  101.19    4.36
  -1  -5   7   92.34    4.52
   1   5  -7   99.58    4.47
   1   6  -7  145.82    6.11
  -1  -6   7  142.51    6.13
   1   7  -7    5.36    1.29
  -1  -7   7    3.69    1.29
   1   8  -7    1.20    0.91
  -1  -8   7    1.68    1.12
   1   9  -7    7.32    1.64
  -1  -9   7    5.65    1.55
  -1   9   6  138.99    6.44
   1  -9  -6  132.00    6.67
   1  -8  -6   16.97    2.46
  -1   8   6   20.48    2.41
   1  -7  -6   18.94    2.33
  -1   7   6   17.82    1.94
  -1   7   6   19.13    2.17
  -1   6   6   24.34    2.10
   1  -6  -6   24.88    2.25
   1  -6  -6   27.19    2.12
  -1   6   6   25.50    2.00
  -1   5   6   14.20    1.53
   1  -5  -6   12.39    1.65
   1  -5  -6    9.71    1.46
  -1   5   6   13.74    1.53
  -1   4   6  127.82    5.22
   1  -4  -6  158.72    5.75
  -1   4   6  146.02    5.31
   1  -4  -6  154.80    5.73
   1  -3  -6   71.42    3.20
  -1   3   6   73.99    3.07
   1  -3  -6   67.52    3.37
  -1   3   6   68.14    3.13
  -1   2   6  179.00    6.22
  -1   2   6  187.15    6.08
   1  -2  -6  197.21    6.24
   1  -2  -6  180.52    6.61
  -1   1   6  276.51    8.32
  -1   1   6  270.20    8.51
   1  -1  -6  272.62    8.23
   1  -1  -6  265.52    8.88
   1   0  -6  309.61   10.09
  -1   0   6  314.73    9.74
   1   0  -6  320.21    9.60
   1   0  -6  320.03    9.30
   1   0  -6  325.00    8.29
   1   1  -6   46.13    2.56
  -1  -1   6   40.78    2.35
  -1  -1   6   42.41    1.77
   1   1  -6   41.38    2.12
  -1  -2   6   47.59    1.99
   1   2  -6   48.61    2.66
   1   2  -6   45.80    2.35
  -1  -2   6   46.38    2.58
  -1  -3   6   19.92    1.30
   1   3  -6   20.83    1.57
   1   3  -6   17.39    1.67
  -1  -3   6   22.48    1.76
  -1  -4   6  137.62    5.46
   1   4  -6  140.59    5.37
   1   4  -6  137.79    5.26
  -1  -4   6  142.20    4.90
  -1  -5   6   97.13    4.41
   1   5  -6   89.18    4.20
   1   5  -6  101.10    4.12
  -1  -6   6  277.33    9.38
   1   6  -6  263.39    9.36
   1   7  -6   47.33    3.14
  -1  -7   6   43.74    3.04
  -1  -8   6    9.89    1.81
   1   8  -6    8.71    1.70
   1   9  -6   45.41    3.50
  -1  -9   6   53.28    3.61
   1  10  -6   55.92    4.03
   1 -10  -5   27.44    3.22
  -1  10   5   22.98    2.79
   1  -9  -5    2.94    1.36
  -1   9   5    2.21    1.13
  -1   8   5   47.92    3.25
   1  -8  -5   51.07    3.62
  -1   8   5   49.88    3.00
   1  -7  -5   39.17    2.98
  -1   7   5   39.25    2.50
  -1   7   5   41.28    2.79
  -1   6   5    3.91    0.96
  -1   6   5    1.97    0.89
   1  -6  -5    3.60    1.00
   1  -6  -5    4.44    1.29
   1  -5  -5    4.76    1.13
  -1   5   5    3.40    0.86
  -1   5   5    3.61    0.88
   1  -5  -5    4.24    1.02
   1  -4  -5  193.05    6.60
  -1   4   5  190.55    6.34
  -1   4   5  184.69    6.28
   1  -4  -5  188.31    6.73
  -1   3   5   37.28    1.89
   1  -3  -5   34.48    2.03
   1  -3  -5   36.93    2.18
  -1   3   5   31.48    1.90
   1  -2  -5  371.11   11.12
  -1   2   5  351.50   10.60
   1  -2  -5  362.68   10.82
  -1   2   5  366.89   10.52
   1  -1  -5  171.73    6.09
   1  -1  -5  176.66    5.61
  -1   1   5  173.21    5.81
  -1   1   5  181.35    5.58
   1  -1  -5  181.06    5.03
   1   0  -5  221.05    6.74
  -1   0   5  218.99    6.58
   1   0  -5  225.40    7.29
  -1   0   5  215.98    6.95
   1   1  -5  272.93    8.68
  -1  -1   5  280.56    8.08
   1   1  -5  282.88    8.35
  -1  -1   5  269.26    8.45
  -1  -2   5  178.01    5.51
   1   2  -5  175.35    6.04
  -1  -2   5  179.04    6.00
   1   2  -5  168.06    5.71
  -1  -3   5  366.29   10.51
  -1  -3   5  346.55   10.67
   1   3  -5  349.69   10.69
   1   3  -5  351.23   10.76
   1   4  -5  212.11    7.11
   1   4  -5  205.10    6.91
  -1  -4   5  204.86    7.09
  -1  -4   5  213.73    6.86
   1   5  -5  298.65    9.24
   1   5  -5  301.55    9.72
  -1  -5   5  305.04    9.47
  -1  -5   5  275.23    9.44
  -1  -6   5   81.37    4.10
  -1  -6   5   95.48    4.15
   1   6  -5   93.84    4.34
   1   7  -5   -0.15    0.57
  -1  -7   5   -1.03    0.58
  -1  -7   5    0.42    0.60
   1   8  -5   35.28    2.85
  -1  -8   5   37.61    2.70
  -1  -8   5   35.40    2.70
   1   9  -5   34.64    3.01
  -1  -9   5   39.08    2.97
  -1  -9   5   34.31    2.81
   1  10  -5   56.40    4.00
  -1  10   4   20.18    2.56
   1 -10  -4   18.50    2.82
  -1   9   4    2.26    1.05
   1  -9  -4    0.41    1.12
  -1   8   4   34.18    2.66
  -1   8   4   30.28    2.34
   1  -8  -4   35.44    2.97
  -1   7   4   98.33    4.18
  -1   7   4   95.15    4.43
   1  -7  -4   90.71    4.71
   1  -6  -4   66.23    2.91
  -1   6   4   58.27    2.98
  -1   6   4   66.52    3.28
   1  -6  -4   62.29    3.56
   1  -5  -4   45.33    2.33
  -1   5   4   42.45    2.32
   1  -5  -4   44.88    2.71
  -1   5   4   42.48    2.39
   1  -4  -4   47.95    2.60
  -1   4   4   48.29    2.36
  -1   4   4   47.60    2.30
   1  -4  -4   49.15    2.41
   1  -3  -4 1980.49   52.12
  -1   3   4 1932.75   51.77
   1  -3  -4 1898.49   52.99
  -1   3   4 1959.12   50.38
   1  -2  -4  284.93    8.82
   1  -2  -4  288.59    8.76
  -1   2   4  288.52    8.51
  -1   2   4  290.98    8.35
  -1   1   4  225.19    6.54
   1  -1  -4  228.74    6.80
   1  -1  -4  217.51    7.05
  -1   1   4  213.46    6.75
   1  -1  -4  223.39    6.03
  -1   0   4  120.60    4.21
  -1   0   4  129.32    4.01
   1   0  -4  121.05    4.39
   1   0  -4  122.44    3.95
   1   1  -4  563.09   15.95
   1   1  -4  556.90   15.55
  -1  -1   4  566.58   15.68
  -1  -1   4  558.55   15.48
   1   2  -4  137.05    4.57
  -1  -2   4  141.14    4.51
  -1  -2   4  133.61    4.73
   1   2  -4  137.14    4.77
  -1  -3   4   63.57    2.88
  -1  -3   4   65.30    2.70
   1   3  -4   65.97    2.82
   1   3  -4   63.38    2.81
  -1  -4   4  196.49    6.48
   1   4  -4  185.99    6.29
  -1  -4   4  193.50    6.50
   1   4  -4  194.84    6.58
  -1  -5   4  313.24    9.71
   1   5  -4  299.18    9.42
   1   5  -4  314.12   10.05
  -1  -5   4  315.68    9.95
   1   6  -4  542.62   16.11
  -1  -6   4  482.07   15.32
  -1  -6   4  553.02   16.06
  -1  -7   4   58.00    3.29
   1   7  -4   60.69    3.50
  -1  -7   4   59.92    3.27
  -1  -8   4   17.23    2.05
  -1  -8   4   18.34    2.04
   1   8  -4   15.43    2.10
   1   9  -4    1.04    0.95
  -1  -9   4    2.25    0.94
   1  10  -4   22.41    2.80
  -1 -10   4   16.59    2.40
  -1  11   3   14.82    2.35
   1 -11  -3    9.84    2.25
  -1  10   3   12.29    2.07
   1 -10  -3   11.79    2.34
  -1   9   3   14.76    2.08
  -1   9   3   14.73    1.86
   1  -9  -3   11.04    2.08
   1  -8  -3  126.19    5.89
  -1   8   3  117.94    4.96
  -1   8   3  116.71    5.30
  -1   7   3  597.12   17.34
  -1   7   3  603.38   18.13
   1  -7  -3  620.34   18.91
   1  -6  -3   71.22    3.67
  -1   6   3   60.81    3.12
  -1   6   3   63.30    3.02
   1  -5  -3  118.29    4.26
  -1   5   3  124.35    4.62
   1  -5  -3  129.25    5.11
  -1   5   3  121.93    4.49
  -1   4   3   83.71    3.35
   1  -4  -3   90.86    3.33
   1  -4  -3   85.83    3.68
  -1   4   3   89.67    3.39
  -1   3   3  853.93   22.06
  -1   3   3  823.89   22.47
   1  -3  -3  785.73   23.21
   1  -3  -3  841.92   22.68
  -1   2   3   21.48    1.08
   1  -2  -3   18.87    1.27
   1  -2  -3   20.59    1.30
  -1   2   3   19.03    1.20
  -1   1   3  101.22    3.54
   1  -1  -3  106.51    3.71
  -1   1   3  107.27    3.24
  -1   0   3  573.15   15.65
   1   0  -3  580.62   15.27
   1   0  -3  547.23   15.69
  -1   0   3  549.79   15.15
   1   1  -3   20.80    1.30
  -1  -1   3   22.73    1.28
  -1  -1   3   18.79    1.08
   1   1  -3   19.86    1.04
   1   2  -3   65.02    2.58
   1   2  -3   69.47    2.70
  -1  -2   3   67.80    2.61
  -1  -2   3   68.92    2.71
   1   3  -3   30.56    1.70
  -1  -3   3   30.95    1.75
  -1  -3   3   30.66    1.69
   1   3  -3   30.38    1.74
   1   4  -3  439.12   12.26
  -1  -4   3  421.04   12.69
   1   4  -3  415.58   12.64
  -1  -4   3  421.59   12.19
   1   5  -3   61.33    2.57
  -1  -5   3   56.84    2.89
   1   5  -3   55.75    2.96
  -1  -5   3   58.51    2.79
  -1  -6   3    4.37    1.06
   1   6  -3    5.46    1.17
  -1  -6   3    3.71    0.87
   1   7  -3   10.06    1.64
  -1  -7   3    9.92    1.51
  -1  -7   3    9.92    1.42
  -1  -8   3   19.73    2.27
  -1  -8   3   21.24    2.06
   1   8  -3   23.54    2.45
   1   9  -3   12.97    2.08
  -1  -9   3   15.38    2.15
  -1 -10   3   23.08    2.81
   1  10  -3   24.45    2.86
  -1  11   2   16.99    2.47
   1 -11  -2   19.02    2.71
   1 -10  -2    9.38    1.90
  -1  10   2   10.05    1.93
   1  -9  -2   12.35    2.17
  -1   9   2   14.62    1.89
  -1   9   2   14.08    1.97
  -1   8   2  153.27    5.79
  -1   8   2  145.26    6.06
   1  -8  -2  145.18    6.50
  -1   7   2  334.11   10.17
  -1   7   2  324.65   10.60
   1  -7  -2  316.10   11.13
  -1   6   2   90.59    3.78
  -1   6   2   89.89    3.64
   1  -6  -2   72.53    3.89
   1  -5  -2  185.67    5.46
  -1   5   2  172.16    5.99
   1  -5  -2  177.99    6.50
  -1   5   2  172.95    5.85
  -1   4   2  294.24    8.52
   1  -4  -2  301.83    8.36
   1  -4  -2  279.33    9.11
  -1   4   2  276.25    8.64
   1  -3  -2  451.08   12.34
   1  -3  -2  428.73   12.90
  -1   3   2  444.42   12.39
  -1   3   2  443.06   12.19
  -1   2   2  694.74   18.00
   1  -2  -2  691.32   16.94
   1  -2  -2  655.29   18.93
   1  -2  -2  691.14   18.48
  -1   2   2  658.80   18.22
   1  -1  -2   68.96    2.45
  -1   1   2   67.51    2.38
  -1   1   2   67.25    2.01
  -1   1   2   63.21    2.37
   1   0  -2  375.19   10.66
  -1   0   2  368.56   10.23
  -1   0   2  383.63   10.73
   1   0  -2  381.08   10.25
   1   1  -2 1836.93   49.55
  -1  -1   2 1879.92   48.06
   1   1  -2 1942.18   49.78
  -1  -1   2 1836.24   50.52
   1   2  -2   10.98    0.93
   1   2  -2   12.80    0.92
  -1  -2   2   11.65    0.91
  -1  -2   2   14.45    0.97
   1   3  -2  173.47    5.37
  -1  -3   2  166.33    5.62
   1   3  -2  170.24    5.63
  -1  -3   2  168.99    5.30
  -1  -4   2 1154.93   32.75
   1   4  -2 1187.84   31.75
  -1  -4   2 1191.78   30.96
   1   4  -2 1171.53   32.33
  -1  -5   2  408.48   12.84
   1   5  -2  408.24   12.74
  -1  -5   2  408.89   11.93
   1   5  -2  435.57   11.96
   1   6  -2    8.54    1.41
  -1  -6   2    9.50    1.21
  -1  -6   2    9.04    1.38
  -1  -7   2    6.51    1.34
   1   7  -2    5.70    1.28
  -1  -7   2    3.93    0.97
  -1  -8   2   17.32    2.16
   1   8  -2   14.92    2.02
  -1  -9   2    6.86    1.54
   1   9  -2    5.49    1.40
  -1 -10   2   27.49    3.08
   1  10  -2   19.94    2.70
   1  11  -2   52.11    4.06
  -1 -11   2   57.15    4.27
   1 -11  -1   77.64    4.97
  -1  11   1   76.50    4.62
   1 -10  -1   24.35    2.88
  -1  10   1   22.08    2.45
  -1  10   1   28.05    2.64
   1  -9  -1   15.68    2.16
  -1   9   1   15.73    2.03
  -1   9   1   12.18    1.77
  -1   8   1  193.67    6.89
  -1   8   1  190.11    7.23
   1  -8  -1  184.42    7.60
   1  -7  -1  623.77   19.05
  -1   7   1  600.93   17.65
  -1   7   1  636.79   18.36
  -1   6   1   47.26    2.51
   1  -6  -1   41.98    2.69
  -1   6   1   41.99    2.34
  -1   5   1   76.79    3.16
   1  -5  -1   76.73    2.42
  -1   5   1   78.35    3.23
   1  -5  -1   66.30    3.35
   1  -4  -1   71.67    3.20
   1  -4  -1   77.10    2.47
  -1   4   1   76.89    2.94
  -1   4   1   75.07    2.97
   1  -3  -1   73.49    2.36
   1  -3  -1   72.27    2.90
  -1   3   1   73.99    2.62
  -1   3   1   68.04    2.62
   1  -2  -1   46.92    1.76
  -1   2   1   48.23    1.84
   1  -2  -1   46.59    1.69
   1  -2  -1   44.43    1.94
  -1   2   1   45.46    1.67
  -1   1   1  889.50   24.50
  -1   1   1  901.75   23.24
  -1   1   1  905.45   24.60
   1  -1  -1  894.15   24.01
  -1   0   1 9997.07  265.62
   1   0  -1 9734.59  263.39
  -1   0   1 9744.84  252.23
   1   1  -1  708.81   18.82
  -1  -1   1  677.52   19.24
  -1  -1   1  700.77   18.13
   1   1  -1  703.00   18.88
   1   2  -1  248.00    7.31
  -1  -2   1  248.82    6.87
  -1  -2   1  237.78    7.46
   1   2  -1  248.76    7.18
   1   3  -1  283.40    8.71
   1   3  -1  296.30    8.39
  -1  -3   1  283.56    8.06
  -1  -3   1  291.25    8.89
  -1  -4   1  683.44   18.33
  -1  -4   1  682.20   19.76
   1   4  -1  697.66   18.83
   1   4  -1  676.77   19.44
   1   5  -1   27.92    2.00
   1   5  -1   26.72    1.50
  -1  -5   1   28.57    1.64
  -1  -5   1   29.40    2.05
  -1  -6   1    9.48    1.14
  -1  -6   1   10.99    1.53
   1   6  -1    7.72    1.32
  -1  -7   1   54.52    3.26
  -1  -7   1   46.60    2.62
   1   7  -1   54.72    3.28
  -1  -8   1   15.28    2.11
   1   8  -1   14.25    2.06
   1   9  -1   19.75    2.55
  -1  -9   1   21.51    2.62
   1  10  -1   17.38    2.46
  -1 -10   1   20.02    2.78
   1  11  -1    7.15    1.88
  -1 -11   1    7.78    1.77
  -1  11   0   43.34    3.38
   1 -11   0   39.70    3.45
   1 -10   0   19.10    2.50
  -1  10   0   17.02    2.16
  -1  10   0   15.34    2.19
  -1   9   0   33.41    2.55
  -1   9   0   35.75    2.72
   1  -9   0   38.71    2.95
  -1   8   0   79.57    3.86
  -1   8   0   76.35    3.92
   1  -8   0   80.72    4.29
  -1   7   0  140.25    5.51
   1  -7   0  152.65    5.95
  -1   7   0  128.91    5.25
   1  -6   0    0.86    0.64
  -1   6   0    1.12    0.55
  -1   6   0    0.76    0.52
   1  -5   0   44.47    2.46
  -1   5   0   42.11    2.21
  -1   5   0   39.66    2.12
  -1   4   0  224.67    7.10
  -1   4   0  230.49    7.02
   1  -4   0  237.20    7.49
   1  -3   0   24.03    1.43
  -1   3   0   26.08    1.32
  -1   3   0   24.74    1.34
   1  -3   0   25.69    0.91
   1  -2   0 2128.56   50.02
   1  -2   0 2027.80   56.05
  -1   2   0 2077.74   54.93
   1  -2   0 2097.75   54.86
  -1   2   0 2068.43   53.22
  -1   1   0 1065.29   29.72
  -1   1   0 1125.79   29.16
  -1   1   0 1095.53   28.17
   1  -1   0 1096.20   29.10
   1   0   0  140.49    3.99
  -1   0   0  137.86    3.79
  -1   0   0  139.41    4.25
  -1   0   0  133.27    4.13
  -1  -1   0  520.36   13.41
   1   1   0  517.20   14.09
  -1  -1   0  503.82   14.43
  -1  -1   0  522.84   14.11
   1   2   0  728.87   20.67
  -1  -2   0  735.34   21.10
  -1  -2   0  800.72   19.63
  -1  -2   0  767.56   20.53
   1   3   0   83.37    3.38
  -1  -3   0   91.89    2.84
  -1  -3   0   87.41    3.45
  -1  -3   0   88.54    3.07
   1   4   0    5.46    0.99
  -1  -4   0    7.73    1.09
  -1  -4   0    7.87    0.74
   1   4   0    6.89    0.76
   1   5   0  531.36   14.60
  -1  -5   0  501.40   15.66
  -1  -5   0  536.52   14.24
   1   5   0  497.64   15.43
  -1  -6   0    1.43    0.67
   1   6   0    0.50    0.64
  -1  -6   0    1.50    0.56
   1   6   0    1.06    0.50
  -1  -7   0   59.83    3.52
   1   7   0   53.78    3.39
  -1  -8   0  312.14   11.19
   1   8   0  298.92   10.92
  -1  -9   0   86.87    5.00
   1   9   0   88.79    4.96
  -1 -10   0   68.68    4.59
   1  10   0   64.82    4.47
  -1  11  -1    4.88    1.48
   1 -11   1    8.91    1.87
   1 -10   1   11.12    1.95
  -1  10  -1   12.05    1.91
  -1  10  -1   11.07    1.95
  -1   9  -1   40.62    2.94
  -1   9  -1   42.05    2.84
   1  -9   1   42.60    3.11
  -1   8  -1   59.38    3.26
  -1   8  -1   59.08    3.39
   1  -8   1   57.85    3.52
   1  -7   1   70.03    3.72
  -1   7  -1   76.92    3.60
  -1   7  -1   73.30    3.61
  -1   6  -1  318.59    9.67
  -1   6  -1  310.54    9.86
   1  -6   1  296.88   10.10
  -1   5  -1  348.72   10.23
   1  -5   1  327.45   10.66
  -1   5  -1  351.16   10.48
  -1   4  -1  111.48    3.87
   1  -4   1   97.96    3.85
  -1   4  -1  102.42    3.81
  -1   3  -1 2186.70   57.41
  -1   3  -1 2206.13   55.89
  -1   3  -1 2162.98   57.66
   1  -3   1 2133.85   58.65
   1  -2   1 1603.87   40.03
  -1   2  -1 1723.38   43.97
  -1   2  -1 1649.61   42.76
   1  -2   1 1636.24   44.91
  -1   2  -1 1704.19   44.18
  -1   1  -1 5442.34  144.99
  -1   1  -1 5360.93  143.26
  -1   1  -1 5389.38  146.49
  -1   1  -1 5433.16  139.43
  -1   0  -1  580.69   14.84
  -1   0  -1  593.33   15.63
   1   0   1  570.07   15.53
  -1   0  -1  541.39   15.74
   1   1   1 4451.66  114.85
  -1  -1  -1 4288.69  116.82
  -1  -1  -1 4362.30  114.77
   1   2   1   28.02    1.53
  -1  -2  -1   38.50    1.61
  -1  -2  -1   29.73    1.62
   1   2   1   30.71    1.03
   1   3   1  225.40    6.02
  -1  -3  -1  210.10    7.01
   1   3   1  219.15    6.91
  -1  -3  -1  214.59    6.61
  -1  -4  -1   42.26    2.40
   1   4   1   46.74    1.80
  -1  -4  -1   47.87    2.08
   1   4   1   41.41    2.37
   1   5   1  247.36    8.46
  -1  -5  -1  248.45    7.65
   1   5   1  255.97    7.31
   1   6   1  261.94    9.01
  -1  -6  -1  248.71    7.81
  -1  -6  -1  253.66    9.04
   1   6   1  252.83    7.60
   1   7   1  455.74   14.54
  -1  -7  -1  442.79   14.76
  -1  -8  -1  234.60    9.18
   1   8   1  229.54    8.93
   1   9   1    2.14    1.28
  -1  -9  -1    4.60    1.37
   1  10   1   12.20    2.37
  -1 -10  -1   15.17    2.52
   1 -11   2   18.70    2.53
  -1  11  -2   16.89    2.41
   1 -11   2   13.06    2.11
  -1  10  -2   17.14    2.30
   1 -10   2   16.64    2.31
   1 -10   2   17.26    2.26
  -1   9  -2   66.32    3.83
   1  -9   2   62.20    3.79
  -1   8  -2  104.43    4.85
   1  -8   2  106.32    4.96
  -1   8  -2  103.98    4.70
   1  -7   2   21.91    1.92
  -1   7  -2   21.57    1.86
  -1   7  -2   20.87    1.82
  -1   6  -2  133.89    5.06
   1  -6   2  140.24    5.28
  -1   6  -2  121.64    5.04
  -1   5  -2 1373.71   37.04
   1  -5   2 1449.12   38.84
  -1   5  -2 1379.64   38.23
  -1   4  -2  455.36   13.40
  -1   4  -2  453.46   13.09
  -1   4  -2  483.26   12.56
   1  -4   2  460.82   13.52
  -1   3  -2   17.21    0.90
  -1   3  -2   19.47    1.26
  -1   3  -2   16.87    1.13
   1  -3   2   17.93    1.13
   1  -2   2 1793.54   43.32
   1  -2   2 1806.00   48.56
  -1   2  -2 1781.16   46.39
  -1   2  -2 1785.63   48.02
  -1   2  -2 1847.51   47.75
   1  -1   2 3996.53  102.60
  -1   1  -2 4059.99  106.35
  -1   1  -2 3936.62  104.66
  -1   1  -2 3903.80  104.48
  -1   0  -2 1784.68   48.87
   1   0   2 1800.70   48.30
   1   0   2 1883.54   46.45
  -1   0  -2 1794.11   48.26
  -1  -1  -2 1214.38   33.19
   1   1   2 1226.06   31.27
  -1  -1  -2 1216.86   32.80
   1   1   2 1221.77   32.79
   1   2   2  817.88   21.03
  -1  -2  -2  812.82   22.42
  -1  -2  -2  798.91   22.76
   1   2   2  839.39   22.51
  -1  -3  -2  248.60    7.90
   1   3   2  251.70    6.73
  -1  -3  -2  249.83    7.60
   1   3   2  234.26    7.76
   1   4   2   57.49    2.09
  -1  -4  -2   57.65    2.57
  -1  -4  -2   55.66    2.84
   1   4   2   59.99    2.89
  -1  -5  -2   29.61    2.14
   1   5   2   28.20    2.11
   1   5   2   27.12    1.43
  -1  -5  -2   27.80    1.72
   1   6   2  134.50    5.77
  -1  -6  -2  142.26    4.94
  -1  -6  -2  136.27    5.80
   1   7   2   29.86    2.60
  -1  -7  -2   35.60    2.81
  -1  -8  -2    6.38    1.68
   1   8   2    9.01    1.85
  -1  -9  -2   21.03    2.83
   1   9   2   19.94    2.67
   1  10   2   25.47    3.18
  -1 -10  -2   19.66    2.97
   1 -11   3   -0.25    0.83
  -1  11  -3    2.48    1.29
   1 -11   3    1.38    1.03
   1 -10   3   13.86    2.08
   1 -10   3   15.71    2.22
  -1  10  -3   21.19    2.53
  -1   9  -3   47.60    3.26
   1  -9   3   43.85    3.05
   1  -9   3   44.30    3.13
  -1   8  -3   10.84    1.69
   1  -8   3   11.00    1.62
   1  -8   3    9.79    1.61
  -1   7  -3   22.13    1.97
   1  -7   3   26.94    2.13
   1  -7   3   26.17    2.13
  -1   6  -3  173.73    6.66
   1  -6   3  200.46    6.74
   1  -5   3  623.96   17.51
  -1   5  -3  624.09   16.73
   1  -5   3  627.72   17.92
  -1   5  -3  594.63   17.83
   1  -4   3  747.88   20.87
  -1   4  -3  719.68   20.82
  -1   4  -3  762.63   20.10
   1  -4   3  737.48   20.33
   1  -3   3  916.14   24.41
   1  -3   3  926.91   25.09
  -1   3  -3  887.73   25.12
  -1   3  -3  923.39   24.68
  -1   2  -3  858.96   24.40
   1  -2   3  897.27   24.19
  -1   2  -3  906.78   24.14
   1  -2   3  896.84   23.58
  -1   1  -3 6430.92  167.50
   1  -1   3 6457.28  162.40
  -1   1  -3 6407.06  171.67
  -1   1  -3 6196.50  168.57
   1   0   3 1017.72   25.64
  -1   0  -3  960.65   26.81
  -1   0  -3 1017.04   26.80
   1   0   3  947.94   26.83
  -1  -1  -3   81.55    2.87
  -1  -1  -3   77.67    3.11
   1   1   3   82.59    2.57
   1   1   3   79.01    3.07
  -1  -2  -3  248.17    7.83
   1   2   3  251.99    7.81
  -1  -2  -3  243.70    7.75
   1   2   3  262.25    6.90
  -1  -3  -3   37.65    2.06
  -1  -3  -3   36.33    2.07
   1   3   3   38.70    1.48
   1   3   3   37.64    2.12
   1   4   3  135.63    4.19
   1   4   3  138.64    5.26
  -1  -4  -3  145.15    5.06
  -1  -4  -3  133.56    5.23
   1   5   3   40.31    2.55
  -1  -5  -3   33.63    2.39
  -1  -5  -3   42.48    2.25
  -1  -6  -3  124.15    4.65
  -1  -6  -3  116.83    5.32
   1   6   3  116.76    5.27
   1   7   3   49.33    3.32
  -1  -7  -3   44.50    3.23
  -1  -8  -3   27.03    2.92
   1   8   3   31.67    3.12
  -1  -9  -3   22.89    2.97
   1   9   3   31.67    3.28
   1  10   3    6.28    1.94
  -1 -10  -3    7.55    2.12
   1 -11   4   43.34    3.28
   1 -11   4   34.17    3.38
  -1  11  -4   38.83    3.34
   1 -10   4    1.22    0.83
  -1  10  -4   -0.07    0.89
   1 -10   4    2.61    1.21
   1  -9   4    5.84    1.33
  -1   9  -4    5.71    1.41
   1  -9   4    6.03    1.45
   1  -8   4   36.38    2.50
  -1   8  -4   32.69    2.61
   1  -8   4   35.56    2.73
  -1   7  -4   49.43    3.02
   1  -7   4   48.32    3.05
   1  -7   4   49.13    2.84
   1  -6   4   96.16    4.34
   1  -6   4   96.97    4.03
  -1   6  -4   94.01    4.22
   1  -5   4 1417.24   38.78
   1  -5   4 1375.50   37.61
  -1   5  -4 1468.72   37.72
  -1   5  -4 1368.90   38.73
   1  -4   4 1159.83   31.81
   1  -4   4 1186.60   31.12
  -1   4  -4 1173.30   31.27
  -1   4  -4 1116.53   31.91
  -1   3  -4  497.68   13.76
   1  -3   4  489.74   13.56
  -1   3  -4  465.84   14.10
   1  -3   4  480.63   13.69
   1  -2   4  247.74    6.94
   1  -2   4  246.99    7.43
  -1   2  -4  235.07    7.73
  -1   2  -4  253.13    7.59
  -1   1  -4  798.27   21.72
  -1   1  -4  816.80   22.23
   1  -1   4  793.93   21.35
  -1   1  -4  795.60   22.30
  -1   0  -4  927.72   25.00
   1   0   4  933.48   24.17
  -1   0  -4  908.37   25.34
   1   0   4  904.46   25.37
  -1  -1  -4  172.36    5.87
   1   1   4  174.44    5.78
  -1  -1  -4  174.30    5.38
   1   1   4  169.06    5.14
   1   2   4  187.16    6.44
  -1  -2  -4  193.08    6.27
   1   2   4  203.17    5.68
  -1  -2  -4  193.51    6.53
  -1  -3  -4  136.64    5.08
   1   3   4  142.18    5.22
  -1  -3  -4  146.74    5.25
   1   3   4  138.75    4.29
   1   4   4   22.14    1.77
  -1  -4  -4   22.90    1.76
  -1  -4  -4   25.01    1.84
   1   4   4   21.43    1.22
   1   5   4  153.30    6.02
  -1  -5  -4  151.87    6.03
  -1  -5  -4  152.98    5.71
   1   6   4   23.91    2.37
  -1  -6  -4   26.39    1.98
  -1  -6  -4   22.64    2.30
   1   7   4    6.41    1.57
  -1  -7  -4    8.94    1.77
   1   8   4    5.64    1.62
  -1  -8  -4    7.43    1.82
  -1  -9  -4    4.26    1.56
   1   9   4    6.95    1.93
   1  10   4   10.09    2.32
  -1 -10  -4    9.85    2.25
  -1  11  -5    4.55    1.52
   1 -11   5    5.62    1.63
   1 -10   5    2.20    1.08
  -1  10  -5    0.53    0.98
  -1   9  -5    7.38    1.62
   1  -9   5    8.74    1.68
   1  -8   5   77.12    3.77
  -1   8  -5   73.26    4.12
   1  -8   5   70.79    4.13
   1  -7   5   47.23    2.72
   1  -7   5   42.25    2.94
  -1   7  -5   43.02    2.91
   1  -6   5  103.59    4.69
   1  -6   5  107.88    4.19
  -1   6  -5  104.69    4.74
   1  -5   5    2.65    0.67
   1  -5   5    3.55    0.94
  -1   5  -5    2.14    0.78
  -1   5  -5    3.00    0.69
  -1   4  -5  199.55    6.37
   1  -4   5  187.13    6.64
  -1   4  -5  190.89    6.82
   1  -4   5  196.15    6.00
  -1   3  -5  150.76    5.77
  -1   3  -5  164.11    5.57
   1  -3   5  165.77    4.82
   1  -3   5  166.32    5.69
  -1   2  -5   44.56    2.33
  -1   2  -5   42.49    2.33
   1  -2   5   43.92    2.25
  -1   1  -5  223.38    7.29
   1  -1   5  221.13    6.91
  -1   1  -5  219.85    7.30
  -1   0  -5  118.59    3.73
  -1   0  -5  123.26    4.67
   1   0   5  129.76    4.69
   1   0   5  112.01    4.07
   1   1   5 1532.79   43.42
   1   1   5 1651.34   41.50
  -1  -1  -5 1618.70   43.58
  -1  -1  -5 1600.60   43.39
   1   2   5   82.23    3.61
   1   2   5   84.67    3.06
  -1  -2  -5   86.70    3.33
  -1  -2  -5   85.25    3.76
  -1  -3  -5   33.43    1.98
   1   3   5   31.11    2.11
  -1  -3  -5   32.80    2.19
   1   3   5   30.61    1.55
  -1  -4  -5    4.36    0.99
   1   4   5    4.18    0.99
  -1  -4  -5    5.18    1.14
   1   5   5  153.62    6.20
  -1  -5  -5  150.55    5.93
  -1  -5  -5  158.02    6.18
  -1  -6  -5  197.12    7.67
   1   6   5  199.42    7.67
  -1  -6  -5  191.34    7.16
  -1  -7  -5   17.59    2.35
   1   7   5   17.68    2.34
   1   8   5   12.92    2.33
  -1  -8  -5   10.58    2.07
  -1  -9  -5   19.08    2.87
   1   9   5   22.09    3.04
   1 -10   6   41.81    3.46
  -1  10  -6   34.69    3.45
   1  -9   6   37.01    3.09
  -1   9  -6   33.23    2.96
  -1   8  -6    9.30    1.76
   1  -8   6    9.05    1.75
  -1   7  -6   54.95    3.35
   1  -7   6   49.27    3.31
   1  -6   6  438.17   13.49
  -1   6  -6  417.90   13.68
  -1   5  -6  591.86   16.87
   1  -5   6  587.69   17.20
  -1   5  -6  575.61   17.61
  -1   4  -6  124.90    4.79
   1  -4   6  129.66    5.11
  -1   4  -6  129.05    5.20
  -1   3  -6    6.34    1.06
   1  -3   6    4.90    0.98
  -1   3  -6    3.53    0.92
  -1   2  -6  133.54    5.20
  -1   2  -6  135.94    5.17
   1  -2   6  136.97    5.05
  -1   1  -6   52.38    2.82
   1  -1   6   52.74    2.58
  -1   1  -6   52.33    2.82
  -1   0  -6  181.55    6.55
  -1   0  -6  182.61    5.33
   1   0   6  190.88    6.58
   1   0   6  167.61    5.87
  -1  -1  -6  553.36   16.17
   1   1   6  595.39   17.02
  -1  -1  -6  574.37   17.14
   1   1   6  583.82   15.90
  -1  -2  -6  220.60    7.63
   1   2   6  208.62    6.57
   1   2   6  209.28    7.35
  -1  -2  -6  210.74    6.81
   1   3   6    7.45    1.27
   1   3   6    9.41    1.01
  -1  -3  -6    9.58    1.46
  -1  -3  -6   10.09    1.19
   1   4   6   18.35    1.94
  -1  -4  -6   22.55    1.82
  -1  -4  -6   20.47    2.03
  -1  -5  -6   46.90    2.98
  -1  -5  -6   51.37    3.09
   1   5   6   50.88    3.17
  -1  -6  -6  101.89    4.76
   1   6   6   98.62    4.98
  -1  -6  -6  102.20    4.96
   1   7   6   18.86    2.46
  -1  -7  -6   21.09    2.49
   1   8   6    3.89    1.56
  -1  -8  -6    0.88    1.22
   1   9   6   17.98    2.89
  -1  -9  -6   17.86    2.79
   1 -10   7   29.55    3.29
  -1  10  -7   35.91    3.22
  -1   9  -7   41.20    3.28
   1  -9   7   31.72    3.24
  -1   8  -7    1.95    1.07
   1  -8   7    1.26    0.95
  -1   7  -7  439.06   14.31
   1  -7   7  417.46   13.96
  -1   6  -7   79.43    4.17
   1  -6   7   67.46    3.91
  -1   5  -7    8.67    1.25
  -1   5  -7   10.94    1.69
   1  -5   7    8.48    1.53
   1  -4   7  237.62    8.23
  -1   4  -7  236.92    8.02
  -1   4  -7  232.23    8.34
  -1   3  -7   20.45    1.83
   1  -3   7   22.85    1.85
  -1   3  -7   22.54    1.82
  -1   2  -7   25.97    2.02
  -1   2  -7   26.27    2.07
   1  -2   7   25.92    1.91
   1  -1   7   95.58    3.85
  -1   1  -7   84.26    4.03
  -1   1  -7   84.81    4.04
   1   0   7  364.19   12.02
  -1   0  -7  384.42   12.20
   1   0   7  391.80   11.34
   1   1   7   78.80    3.79
   1   1   7   78.83    3.33
  -1  -1  -7   75.92    3.92
   1   2   7  191.03    6.23
  -1  -2  -7  183.65    7.16
   1   2   7  187.30    6.92
  -1  -3  -7  144.36    5.99
   1   3   7  137.95    5.65
  -1  -4  -7    9.44    1.67
  -1  -4  -7    8.46    1.32
   1   4   7   10.92    1.69
  -1  -5  -7   68.27    3.70
   1   5   7   72.31    3.96
  -1  -5  -7   68.83    3.94
  -1  -6  -7   12.50    1.96
  -1  -6  -7   12.44    1.94
   1   6   7   13.95    2.07
  -1  -7  -7   17.32    2.38
   1   7   7   13.75    2.24
   1   8   7   14.98    2.55
  -1  -8  -7   14.33    2.47
   1 -10   8    8.94    2.13
   1  -9   8   23.50    3.01
  -1   9  -8   22.57    2.91
   1  -8   8   37.84    3.24
  -1   8  -8   46.22    3.51
   1  -7   8   12.54    2.06
  -1   7  -8   14.32    2.22
  -1   6  -8   53.31    3.47
   1  -6   8   50.22    3.35
  -1   5  -8   15.05    2.01
  -1   5  -8   14.37    1.69
   1  -5   8   13.72    1.92
  -1   4  -8   58.73    3.43
  -1   4  -8   57.62    3.19
   1  -4   8   59.85    3.41
  -1   3  -8  187.37    7.24
  -1   3  -8  202.11    7.26
   1  -3   8  185.88    7.03
  -1   2  -8  179.49    7.07
  -1   2  -8  194.52    7.18
   1  -2   8  187.40    6.78
   1  -1   8  227.97    7.81
  -1   1  -8  233.08    8.38
   1   0   8  131.56    5.39
  -1   0  -8  153.54    6.20
   1   0   8  160.28    6.12
   1   1   8 1119.13   29.18
   1   1   8 1070.46   30.65
  -1  -1  -8 1036.88   30.90
   1   2   8  238.63    8.51
   1   2   8  232.89    7.68
  -1  -2  -8  235.43    8.80
   1   3   8   97.71    4.63
  -1  -3  -8  101.76    5.02
  -1  -4  -8   65.05    3.92
   1   4   8   67.04    3.79
  -1  -5  -8   87.04    4.74
   1   5   8   83.55    4.48
   1   6   8    8.62    1.77
  -1  -6  -8    6.63    1.66
   1   7   8    7.26    1.82
  -1   9  -9   74.61    4.88
   1  -9   9   65.79    4.72
  -1   8  -9    6.25    1.70
   1  -8   9    4.45    1.55
   1  -7   9   15.97    2.35
  -1   7  -9   21.25    2.64
  -1   6  -9   44.46    3.28
   1  -6   9   46.14    3.30
   1  -5   9    6.92    1.45
  -1   5  -9    6.10    1.38
  -1   5  -9    8.67    1.52
   1  -4   9   96.81    4.76
  -1   4  -9   99.09    4.71
  -1   4  -9   98.60    4.86
  -1   3  -9  603.00   18.37
  -1   3  -9  585.36   18.11
   1  -3   9  579.19   17.57
   1  -2   9   87.00    4.20
  -1   2  -9   86.50    4.47
  -1   2  -9   91.35    4.58
   1  -1   9    7.40    1.33
  -1   1  -9    5.53    1.35
   1  -1   9    5.48    1.27
   1   0   9  134.60    5.35
   1   0   9  136.59    5.83
  -1   0  -9  125.82    5.85
   1   1   9  396.33   12.97
   1   1   9  398.17   12.10
  -1  -1  -9  387.45   13.31
  -1  -2  -9   73.05    4.26
   1   2   9   68.10    3.88
  -1  -3  -9   49.38    3.52
   1   3   9   55.02    3.40
   1   4   9   15.36    2.12
  -1  -4  -9   19.52    2.49
  -1  -5  -9    5.64    1.60
   1   5   9    5.28    1.44
  -1  -6  -9   19.96    2.64
   1   6   9   20.31    2.58
   1  -8  10   19.44    2.85
  -1   8 -10   23.44    3.09
   1  -7  10    0.90    0.87
  -1   7 -10    0.59    0.92
  -1   6 -10   29.54    2.98
   1  -6  10   32.10    3.12
  -1   5 -10   39.53    3.03
  -1   5 -10   32.92    2.63
   1  -5  10   35.23    2.85
  -1   4 -10    7.93    1.61
  -1   4 -10    8.85    1.68
   1  -4  10    6.76    1.44
   1  -3  10    2.38    0.96
  -1   3 -10    1.31    1.00
  -1   3 -10    1.92    0.93
  -1   2 -10   23.93    2.56
   1  -2  10   25.31    2.40
  -1   2 -10   21.12    2.41
  -1   1 -10    8.55    1.73
   1  -1  10    9.97    1.69
   1  -1  10    6.94    1.35
   1   0  10   15.26    2.00
  -1   0 -10   11.66    2.02
   1   0  10   16.17    1.90
  -1  -1 -10   67.84    4.19
   1   1  10   69.96    3.60
   1   1  10   67.28    3.95
   1   2  10   75.29    4.22
  -1  -2 -10   65.73    4.29
  -1  -3 -10   34.78    3.30
   1   3  10   32.18    2.73
   1   4  10   15.70    2.25
  -1  -4 -10   14.68    2.39
  -1  -5 -10   57.87    4.18
   1   5  10   56.50    3.87
  -1   7 -11   26.69    3.12
   1  -7  11   27.20    3.20
  -1   6 -11   30.72    3.13
   1  -6  11   26.26    3.03
   1  -5  11   13.15    2.17
  -1   5 -11   11.64    1.96
  -1   5 -11   11.42    2.00
   1  -4  11   51.15    3.48
  -1   4 -11   54.99    3.71
  -1   4 -11   46.40    3.37
  -1   3 -11   19.31    2.42
   1  -3  11   19.49    2.35
  -1   3 -11   19.89    2.52
  -1   2 -11   82.11    4.75
   1  -2  11   81.97    4.38
   1  -2  11   84.30    4.71
   1  -1  11   15.44    2.18
  -1   1 -11   21.62    2.65
   1  -1  11   19.92    2.24
   1   0  11    8.95    1.58
   1   0  11    9.21    1.77
  -1   0 -11    6.19    1.74
   1   1  11   21.76    2.53
  -1  -1 -11   20.47    2.71
   1   2  11    1.58    1.02
  -1  -2 -11    1.28    1.18
  -1  -3 -11   90.69    5.42
   1   3  11   96.94    5.15
   1   4  11   54.44    3.82
  -1  -4 -11   49.65    4.00
   1  -5  12   11.78    2.08
  -1   5 -12    9.67    2.03
   1  -4  12   23.41    2.77
  -1   4 -12   23.87    2.95
  -1   4 -12   21.96    2.74
  -1   3 -12    2.04    1.30
   1  -3  12    2.86    1.14
  -1   3 -12    4.67    1.55
   1  -2  12    8.59    1.83
  -1   2 -12    5.47    1.60
   1  -2  12    6.25    1.48
  -1   1 -12    7.38    1.94
   1  -1  12    8.76    1.84
   1  -1  12   12.11    1.97
   1   0  12    9.38    1.91
  -1   0 -12   12.52    2.33
  -1  -1 -12    3.89    1.59
   1   1  12    5.09    1.44
   1   2  12   13.34    2.22
  -1  -2 -12    6.84    1.92
  -2   3  12    9.43    1.91
   2  -3 -12    8.44    1.99
  -2   2  12   18.64    2.50
   2  -2 -12   15.92    2.65
  -2   1  12    0.10    0.75
   2  -1 -12   -0.44    1.03
  -2   0  12   11.31    2.01
   2   0 -12    9.12    2.18
  -2  -1  12   19.92    2.69
   2   1 -12   14.88    2.65
   2   2 -12    2.11    1.43
  -2  -2  12    2.34    1.24
   2   3 -12   39.86    3.55
  -2  -3  12   38.29    3.67
  -2   5  11   67.20    4.12
   2  -5 -11   64.45    4.58
   2  -4 -11   79.94    4.91
  -2   4  11   75.00    4.40
   2  -3 -11   34.28    3.36
  -2   3  11   31.21    2.70
   2  -2 -11   13.48    2.41
  -2   2  11   15.69    2.21
   2  -1 -11   14.17    2.42
  -2   1  11   15.46    2.21
  -2   0  11   21.95    2.63
   2   0 -11   27.36    3.04
   2   1 -11   78.73    4.86
  -2  -1  11   76.22    4.47
  -2  -2  11  101.01    5.32
   2   2 -11   95.64    5.43
  -2  -3  11  177.32    7.69
   2   3 -11  173.07    7.80
   2   4 -11   81.05    4.84
  -2  -4  11   72.93    4.62
  -2  -5  11    3.33    1.30
   2   5 -11    2.43    1.36
   2  -6 -10    4.77    1.52
  -2   6  10    2.16    1.13
   2  -5 -10    2.95    1.37
  -2   5  10    2.09    1.02
  -2   4  10   43.63    3.13
   2  -4 -10   47.85    3.55
  -2   3  10   23.95    2.48
   2  -3 -10   28.07    2.90
   2  -2 -10   31.25    3.04
  -2   2  10   28.39    2.48
   2  -1 -10  146.88    6.91
  -2   1  10  163.95    6.74
   2   0 -10  104.85    5.44
  -2   0  10  102.55    5.06
  -2  -1  10   59.44    3.71
   2   1 -10   67.75    4.20
   2   2 -10   10.44    2.00
  -2  -2  10   12.12    1.97
  -2  -3  10   28.10    2.84
   2   3 -10   24.74    2.76
   2   4 -10  121.13    6.03
  -2  -4  10  128.06    6.09
   2   5 -10    4.29    1.53
  -2  -5  10    5.42    1.63
  -2  -6  10    5.54    1.55
  -2   7   9   12.22    2.03
  -2   6   9   13.65    2.04
   2  -6  -9   16.07    2.35
  -2   5   9   22.30    2.34
   2  -5  -9   20.99    2.49
  -2   4   9    5.24    1.28
   2  -4  -9    5.10    1.42
   2  -3  -9   29.73    2.83
  -2   3   9   34.22    2.56
   2  -2  -9   79.47    4.49
  -2   2   9   85.73    4.29
  -2   1   9  129.10    5.63
   2  -1  -9  128.38    5.95
   2   0  -9   43.79    3.19
  -2   0   9   37.94    2.75
  -2  -1   9    1.42    0.89
   2   1  -9    1.49    1.15
  -2  -2   9   36.43    2.74
   2   2  -9   34.30    2.85
   2   3  -9   48.28    3.39
  -2  -3   9   50.71    3.34
   2   4  -9  134.32    6.19
  -2  -4   9  140.33    6.17
  -2  -5   9   34.75    2.86
   2   5  -9   30.32    2.88
  -2  -6   9   22.38    2.71
  -2  -7   9    7.77    1.87
   2  -8  -8    5.43    1.81
  -2   8   8    7.60    1.73
  -2   7   8   31.55    2.65
   2  -7  -8   32.10    3.13
   2  -6  -8   55.06    3.61
  -2   6   8   50.39    3.19
   2  -6  -8   54.81    3.60
  -2   5   8   44.85    2.93
   2  -5  -8   42.61    3.06
   2  -5  -8   49.35    3.23
   2  -4  -8   37.66    2.88
  -2   4   8   35.45    2.49
   2  -3  -8  112.39    5.30
  -2   3   8  118.23    5.03
  -2   2   8  322.90   10.44
   2  -2  -8  309.56   10.90
  -2   1   8  162.26    6.38
   2  -1  -8  174.05    6.89
  -2   0   8   84.96    4.13
   2   0  -8   86.59    4.43
  -2  -1   8   12.75    1.72
   2   1  -8   10.30    1.77
  -2  -2   8    6.56    1.36
   2   2  -8    8.19    1.68
  -2  -3   8   46.23    3.04
   2   3  -8   41.11    2.99
  -2  -4   8   24.69    2.46
   2   4  -8   30.41    2.58
   2   4  -8   27.70    2.18
  -2  -5   8  157.57    6.58
   2   5  -8  147.95    6.39
   2   5  -8  158.99    6.31
   2   6  -8   49.48    3.22
  -2  -6   8   52.35    3.49
   2   7  -8   35.00    2.87
  -2  -7   8   31.44    3.06
  -2  -8   8   20.69    2.66
   2   8  -8   18.76    2.58
  -2   9   7   79.03    4.55
   2  -9  -7   79.12    5.07
  -2   8   7    4.95    1.43
   2  -8  -7    3.84    1.59
   2  -7  -7    0.04    0.89
  -2   7   7    0.23    0.69
   2  -6  -7   20.22    2.34
  -2   6   7   16.86    2.00
   2  -6  -7   23.34    2.26
  -2   5   7   49.68    2.94
   2  -5  -7   49.83    3.10
   2  -5  -7   44.71    3.00
   2  -4  -7    8.07    1.57
   2  -4  -7    6.48    1.31
  -2   4   7    6.02    1.18
   2  -3  -7  203.53    7.68
  -2   3   7  208.71    7.31
   2  -3  -7  207.73    7.30
  -2   2   7  119.27    4.97
   2  -2  -7  125.28    5.38
   2  -2  -7  125.75    4.83
   2  -1  -7   29.06    2.34
   2  -1  -7   27.45    1.60
   2  -1  -7   28.95    1.87
  -2   1   7   30.28    2.11
   2   0  -7   15.14    1.85
  -2   0   7   16.04    1.74
  -2   0   7   15.34    1.28
  -2  -1   7   25.10    1.99
   2   1  -7   20.95    2.14
  -2  -2   7   56.24    3.17
   2   2  -7   60.81    2.86
   2   2  -7   65.63    3.63
   2   3  -7   36.79    2.22
   2   3  -7   32.34    2.53
  -2  -3   7   36.78    2.53
  -2  -4   7  124.50    5.31
   2   4  -7  128.38    4.99
   2   4  -7  115.53    5.26
   2   5  -7   14.63    1.90
  -2  -5   7   10.98    1.80
   2   5  -7   12.41    1.67
  -2  -6   7   27.48    2.41
   2   6  -7   33.06    2.49
  -2  -7   7   30.60    2.66
   2   7  -7   32.26    2.66
  -2  -8   7    5.71    1.58
   2   8  -7    5.38    1.36
  -2   9   6   23.16    2.54
   2  -9  -6   26.12    3.12
  -2   8   6   24.82    2.50
   2  -8  -6   25.09    2.90
  -2   7   6   21.42    2.24
   2  -7  -6   18.12    2.35
   2  -6  -6    0.74    0.97
  -2   6   6    2.31    0.87
   2  -6  -6    2.85    1.04
  -2   5   6    8.36    1.36
   2  -5  -6    9.32    1.48
   2  -5  -6    7.71    1.49
  -2   4   6  113.14    4.70
   2  -4  -6  113.00    4.88
   2  -4  -6  123.62    4.98
   2  -3  -6  123.33    5.39
   2  -3  -6  150.10    5.47
  -2   3   6  144.72    5.32
   2  -2  -6  338.22    9.48
   2  -2  -6  325.33   10.92
  -2   2   6  347.00   10.50
   2  -2  -6  349.89   10.69
  -2   1   6  158.48    4.77
  -2   1   6  155.12    5.22
   2  -1  -6  147.35    5.77
  -2   1   6  129.71    5.34
   2   0  -6   29.49    1.55
  -2   0   6   31.46    1.78
   2   0  -6   26.57    2.10
  -2   0   6   26.47    1.92
  -2  -1   6  127.18    4.53
   2   1  -6  118.74    5.11
   2   1  -6  133.00    4.40
  -2  -1   6  123.86    4.88
  -2  -2   6   13.82    1.30
   2   2  -6   13.45    1.65
  -2  -2   6   11.33    1.49
   2   2  -6   12.50    1.19
  -2  -3   6   10.41    1.27
  -2  -3   6   11.54    1.49
   2   3  -6    9.33    1.47
   2   3  -6   11.72    1.31
   2   4  -6   95.53    4.09
   2   4  -6  103.37    4.47
  -2  -4   6   95.45    4.34
  -2  -4   6   95.87    4.10
   2   5  -6  338.33   10.82
   2   5  -6  338.14   10.87
  -2  -5   6  339.70   10.78
  -2  -5   6  310.52   10.78
   2   6  -6   13.45    1.82
  -2  -6   6   13.23    1.71
  -2  -6   6   12.88    1.83
  -2  -7   6   31.61    2.57
   2   7  -6   32.62    2.66
   2   8  -6   70.14    4.22
   2   9  -6   37.75    3.19
   2 -10  -5   27.62    3.33
  -2  10   5   28.68    2.90
   2  -9  -5    5.17    1.69
  -2   9   5    3.27    1.13
  -2   8   5   21.67    2.32
   2  -8  -5   34.94    3.01
  -2   7   5    5.61    1.25
   2  -7  -5    6.12    1.58
   2  -6  -5  157.13    5.76
   2  -6  -5  156.35    6.36
  -2   6   5  139.78    5.71
  -2   5   5   45.57    2.63
   2  -5  -5   47.89    2.66
   2  -5  -5   44.72    2.87
   2  -4  -5  269.78    9.03
  -2   4   5  267.01    8.59
  -2   4   5  264.05    8.04
   2  -4  -5  269.48    8.79
   2  -3  -5  256.30    8.59
  -2   3   5  266.70    7.63
  -2   3   5  249.85    8.28
   2  -3  -5  270.40    8.67
  -2   2   5  480.55   13.82
   2  -2  -5  473.64   12.76
  -2   2   5  487.39   13.19
   2  -2  -5  477.44   14.30
   2  -2  -5  475.05   14.31
   2  -1  -5   50.68    2.75
  -2   1   5   52.43    1.94
  -2   1   5   51.13    2.42
  -2   1   5   56.43    2.65
  -2   0   5   58.21    2.80
   2   0  -5   61.42    2.28
  -2   0   5   61.20    2.69
   2   0  -5   62.08    3.06
  -2  -1   5  165.09    5.73
   2   1  -5  168.85    5.34
   2   1  -5  177.32    6.22
  -2  -1   5  166.52    5.81
   2   2  -5  125.89    4.86
  -2  -2   5  119.21    4.60
  -2  -2   5  117.26    4.47
   2   2  -5  121.43    4.25
   2   3  -5   14.34    1.27
  -2  -3   5   14.84    1.33
   2   3  -5   18.18    1.72
  -2  -3   5   12.69    1.47
   2   4  -5  197.53    7.02
  -2  -4   5  197.62    6.87
  -2  -4   5  197.04    7.03
   2   4  -5  197.18    6.83
  -2  -5   5  198.64    7.09
   2   5  -5  195.85    7.13
   2   5  -5  209.92    7.29
  -2  -5   5  199.46    7.28
  -2  -6   5  117.78    5.17
  -2  -6   5  116.09    4.98
   2   6  -5  119.69    5.22
   2   6  -5  117.92    4.89
   2   7  -5   62.80    3.70
  -2  -7   5   54.21    3.33
  -2  -7   5   62.40    3.58
   2   8  -5    3.91    1.30
  -2  -8   5    5.64    1.32
   2   9  -5   13.35    2.23
  -2  -9   5   14.25    2.06
   2 -10  -4   18.69    2.92
  -2  10   4   20.98    2.54
  -2   9   4   26.85    2.66
   2  -9  -4   23.42    2.89
   2  -8  -4   17.72    2.39
  -2   8   4   16.63    1.98
  -2   7   4   80.80    3.75
  -2   7   4   82.97    4.06
   2  -7  -4   89.82    4.63
   2  -6  -4   25.18    2.25
  -2   6   4   24.13    1.96
  -2   6   4   27.45    1.81
  -2   5   4   32.32    1.80
   2  -5  -4   34.44    2.09
   2  -5  -4   29.25    2.24
  -2   5   4   30.60    2.08
  -2   4   4  207.71    6.94
  -2   4   4  208.92    6.42
   2  -4  -4  203.12    7.32
   2  -4  -4  214.64    6.97
  -2   3   4  530.41   14.61
   2  -3  -4  547.38   14.17
   2  -3  -4  527.45   15.82
  -2   3   4  531.51   15.07
   2  -3  -4  531.15   15.46
   2  -2  -4  246.26    8.02
  -2   2   4  252.97    6.98
  -2   2   4  250.81    7.76
   2  -1  -4   98.33    3.95
  -2   1   4  102.76    2.99
  -2   1   4   98.60    3.79
  -2   1   4   97.18    3.74
  -2   0   4  709.69   20.66
  -2   0   4  713.34   19.85
   2   0  -4  755.12   19.74
   2   0  -4  750.66   20.76
  -2  -1   4  123.71    4.56
  -2  -1   4  131.83    4.55
   2   1  -4  134.54    4.87
   2   1  -4  125.56    4.08
  -2  -2   4   27.29    1.77
  -2  -2   4   26.71    1.73
   2   2  -4   28.28    1.89
   2   2  -4   31.03    1.59
   2   3  -4   71.53    3.06
   2   3  -4   71.96    3.35
  -2  -3   4   74.44    3.20
  -2  -3   4   71.55    3.30
  -2  -4   4    1.28    0.67
   2   4  -4    0.66    0.50
  -2  -4   4    0.24    0.55
   2   4  -4    1.07    0.76
   2   5  -4  599.20   17.97
   2   5  -4  617.70   17.80
  -2  -5   4  610.41   18.30
  -2  -5   4  603.84   17.29
  -2  -6   4  115.91    5.08
  -2  -6   4  110.90    4.68
   2   6  -4  115.78    5.08
   2   6  -4  115.60    4.69
  -2  -7   4    2.56    0.93
   2   7  -4    1.76    0.92
  -2  -8   4    4.23    1.15
   2   8  -4    1.20    0.96
   2   9  -4   44.11    3.44
  -2  -9   4   41.92    3.30
   2  10  -4   31.73    3.42
  -2 -10   4   38.46    3.29
   2 -11  -3   10.67    2.35
  -2  11   3    8.17    1.85
  -2  10   3   11.98    1.98
   2 -10  -3   13.35    2.43
  -2  10   3    9.36    1.63
  -2   9   3   41.52    2.80
  -2   9   3   43.59    2.99
   2  -9  -3   36.88    3.22
  -2   8   3  172.63    6.66
   2  -8  -3  169.37    7.28
  -2   8   3  162.71    6.37
  -2   7   3  276.90    9.23
   2  -7  -3  282.01   10.11
  -2   7   3  278.01    9.08
  -2   6   3   80.78    3.73
   2  -6  -3   85.19    4.20
  -2   6   3   83.66    3.51
   2  -5  -3   94.72    4.22
  -2   5   3   86.86    3.86
  -2   5   3   93.12    3.55
   2  -5  -3   98.77    3.65
   2  -4  -3  428.15   12.12
   2  -4  -3  398.69   12.76
  -2   4   3  416.98   11.73
  -2   4   3  411.10   12.07
   2  -3  -3  388.71   10.70
   2  -3  -3  391.28   11.50
  -2   3   3  394.22   10.85
   2  -3  -3  402.75   12.09
  -2   3   3  387.09   11.31
   2  -2  -3  326.30    9.65
  -2   2   3  307.68    9.72
  -2   2   3  321.65    9.32
   2  -1  -3   71.97    3.03
  -2   1   3   70.96    2.83
  -2   1   3   68.65    2.96
  -2   0   3   77.19    3.10
   2   0  -3   76.14    2.37
  -2   0   3   73.68    2.87
   2   0  -3   77.40    3.22
  -2  -1   3  739.86   21.14
   2   1  -3  762.75   20.98
  -2  -1   3  736.71   19.98
   2   1  -3  748.37   20.23
  -2  -2   3  317.19    9.23
   2   2  -3  321.78    9.34
   2   2  -3  316.48    9.73
  -2  -2   3  312.84    9.81
  -2  -3   3   20.22    1.39
  -2  -3   3   16.88    1.46
   2   3  -3   18.20    1.35
   2   3  -3   15.35    1.40
  -2  -4   3   29.08    2.04
   2   4  -3   30.27    1.96
  -2  -4   3   30.87    1.80
   2   4  -3   28.73    1.95
  -2  -5   3  869.54   23.05
   2   5  -3  884.96   23.84
   2   5  -3  777.43   24.00
  -2  -6   3   36.53    2.57
   2   6  -3   34.18    2.27
  -2  -6   3   35.91    2.28
   2   6  -3   40.95    2.69
  -2  -7   3   21.23    2.39
   2   7  -3   27.28    2.36
   2   8  -3   15.35    2.17
  -2  -8   3   18.89    2.39
   2   9  -3    8.13    1.78
  -2  -9   3    9.94    1.84
   2  10  -3   12.29    2.27
  -2 -10   3   20.54    2.86
  -2  11   2   15.50    2.19
   2 -11  -2   17.79    2.63
  -2  11   2   17.29    2.44
  -2  10   2    2.34    1.17
  -2  10   2    1.74    0.91
   2 -10  -2    2.67    1.24
  -2   9   2   20.35    2.08
   2  -9  -2   22.39    2.69
  -2   9   2   23.89    2.42
   2  -8  -2   88.31    4.77
  -2   8   2   83.99    4.19
  -2   8   2   92.09    4.13
  -2   7   2  160.46    6.28
  -2   7   2  179.92    6.22
   2  -7  -2  168.17    6.88
   2  -6  -2   51.57    3.09
  -2   6   2   54.48    2.83
  -2   6   2   57.44    2.69
   2  -5  -2   58.97    2.43
  -2   5   2   58.87    2.55
  -2   5   2   55.47    2.77
   2  -5  -2   56.81    3.04
  -2   4   2  197.21    5.81
   2  -4  -2  184.12    5.87
  -2   4   2  192.11    6.24
   2  -4  -2  178.26    6.57
  -2   3   2  298.55    8.19
   2  -3  -2  281.98    8.20
   2  -3  -2  290.91    9.22
  -2   3   2  293.53    8.64
   2  -3  -2  291.51    8.63
  -2   2   2   16.43    1.24
  -2   2   2   15.79    1.15
   2  -2  -2   18.24    1.26
  -2   1   2   92.15    3.52
   2  -1  -2   92.96    3.47
  -2   1   2   94.14    3.26
  -2   0   2 1919.82   52.93
   2   0  -2 1931.89   51.45
  -2   0   2 1991.88   50.09
   2   0  -2 1948.49   52.06
  -2  -1   2  925.25   24.87
  -2  -1   2  944.57   26.57
   2   1  -2  983.09   25.65
   2   1  -2  952.83   26.16
   2   2  -2   68.65    2.95
  -2  -2   2   65.54    2.52
   2   2  -2   70.64    2.76
  -2  -2   2   66.83    3.01
   2   3  -2   52.55    2.47
  -2  -3   2   46.27    2.06
   2   3  -2   45.69    2.35
  -2  -3   2   47.73    2.55
  -2  -4   2  455.31   12.47
   2   4  -2  435.35   13.12
   2   4  -2  451.88   13.42
  -2  -4   2  434.91   13.60
  -2  -5   2   73.42    3.66
   2   5  -2   77.13    3.39
  -2  -5   2   78.85    3.13
   2   5  -2   62.11    3.41
  -2  -6   2   64.35    3.61
   2   6  -2   62.17    3.50
   2   6  -2   71.89    3.27
  -2  -7   2   36.46    2.75
   2   7  -2   28.13    2.49
   2   8  -2    6.54    1.63
  -2  -8   2    5.96    1.43
   2   9  -2    8.90    1.87
  -2  -9   2   12.35    2.15
   2  10  -2   12.65    2.33
  -2 -10   2   20.10    2.81
   2 -11  -1    1.79    1.18
  -2  11   1   -0.38    0.84
  -2  11   1   -0.21    0.98
  -2  10   1    8.23    1.56
  -2  10   1    9.00    1.73
   2 -10  -1    7.11    1.71
  -2   9   1    0.94    0.85
  -2   9   1    1.54    0.79
   2  -9  -1    1.43    0.94
  -2   8   1  302.74   10.16
   2  -8  -1  313.25   10.99
  -2   8   1  301.57   10.09
   2  -7  -1  181.30    7.17
  -2   7   1  187.35    6.74
  -2   6   1   95.63    3.75
   2  -6  -1   83.15    4.08
  -2   6   1   86.87    3.85
  -2   5   1   19.47    1.53
   2  -5  -1   20.53    1.16
  -2   5   1   23.00    1.45
   2  -5  -1   20.79    1.75
  -2   4   1   62.53    2.75
   2  -4  -1   60.22    2.31
  -2   4   1   61.08    2.43
   2  -4  -1   60.60    2.93
   2  -4  -1   63.28    2.66
   2  -3  -1  511.70   13.47
   2  -3  -1  501.91   15.10
   2  -3  -1  526.58   14.29
  -2   3   1  509.28   14.17
  -2   3   1  515.80   14.03
  -2   2   1  610.67   17.86
   2  -2  -1  625.23   17.35
  -2   2   1  631.52   16.86
  -2   2   1  643.36   16.88
  -2   1   1  768.55   20.18
  -2   1   1  781.94   21.53
   2  -1  -1  742.26   20.98
   2  -1  -1  774.16   20.46
  -2   0   1 2643.02   64.30
  -2   0   1 2475.57   68.05
   2   0  -1 2465.12   66.78
   2   0  -1 2491.78   66.38
   2   1  -1  594.12   16.16
   2   1  -1  576.87   16.51
  -2  -1   1  613.84   15.50
  -2  -1   1  563.32   16.79
  -2  -2   1  197.18    5.67
  -2  -2   1  191.03    6.63
   2   2  -1  206.20    6.49
   2   2  -1  205.66    6.34
   2   3  -1  386.37   11.48
  -2  -3   1  381.42   10.54
  -2  -3   1  388.40   11.93
   2   3  -1  393.02   11.64
  -2  -4   1  189.11    6.85
  -2  -4   1  199.82    5.78
   2   4  -1  194.07    6.43
   2   4  -1  178.48    6.61
  -2  -5   1  140.71    4.54
  -2  -5   1  125.65    5.39
   2   5  -1  128.75    5.35
   2   5  -1  134.70    4.94
   2   6  -1   29.73    2.36
  -2  -6   1   26.14    2.24
   2   6  -1   30.34    2.01
  -2  -7   1   40.04    2.94
   2   7  -1   33.20    2.78
  -2  -8   1   98.44    5.27
   2   8  -1  103.16    5.31
  -2  -9   1    1.97    1.14
   2   9  -1    0.46    1.01
  -2 -10   1   54.18    4.17
   2  10  -1   57.34    4.28
  -2  11   0    8.35    1.79
  -2  11   0    8.23    1.68
   2 -11   0    8.09    1.89
  -2  10   0    8.93    1.87
   2 -10   0    9.14    1.84
  -2  10   0   11.70    1.86
  -2   9   0   45.67    3.09
   2  -9   0   46.26    3.36
  -2   9   0   43.41    2.92
   2  -8   0  313.30   11.15
  -2   8   0  321.68   10.53
  -2   8   0  321.51   10.55
  -2   7   0   31.42    2.28
  -2   7   0   31.55    2.14
   2  -7   0   31.74    2.42
  -2   6   0   17.82    1.72
   2  -6   0   20.11    1.92
  -2   6   0   18.19    1.49
   2  -5   0   23.66    1.14
  -2   5   0   24.15    1.69
  -2   5   0   24.18    1.53
   2  -5   0   23.99    1.83
   2  -4   0  111.28    4.22
   2  -4   0  101.69    3.71
  -2   4   0  102.72    3.67
  -2   4   0  103.25    3.94
   2  -4   0  108.81    3.43
  -2   3   0  173.36    5.17
  -2   3   0  164.60    5.37
   2  -3   0  174.04    5.15
   2  -3   0  168.07    5.14
   2  -3   0  164.39    5.77
   2  -2   0  185.57    5.71
  -2   2   0  180.33    6.01
  -2   2   0  182.49    5.60
  -2   2   0  194.21    5.51
   2  -1   0  525.40   14.87
   2  -1   0  532.97   14.50
  -2   1   0  537.92   14.20
  -2   1   0  536.00   15.26
  -2   0   0  844.87   24.41
   2   0   0  880.75   23.97
  -2   0   0  892.14   22.69
   2   0   0  889.41   23.58
  -2  -1   0  614.14   17.48
   2   1   0  610.36   17.07
   2   1   0  591.62   16.76
  -2  -1   0  615.80   15.78
   2   2   0  114.04    4.05
   2   2   0  103.99    3.87
  -2  -2   0  106.52    3.09
  -2  -2   0  108.22    4.19
   2   3   0  109.74    4.06
  -2  -3   0  106.08    3.15
  -2  -3   0  105.67    4.28
   2   3   0  103.49    4.11
   2   4   0    3.05    0.75
  -2  -4   0    3.49    0.50
   2   4   0    3.53    0.88
  -2  -4   0    3.76    0.92
   2   5   0   10.70    1.27
  -2  -5   0   13.37    1.65
   2   5   0   12.88    1.64
  -2  -6   0   60.46    3.48
   2   6   0   55.33    3.42
   2   6   0   55.47    2.89
  -2  -7   0   60.62    3.75
   2   7   0   62.79    3.87
  -2  -8   0    5.52    1.40
   2   8   0    7.17    1.70
  -2  -9   0   13.69    2.27
   2   9   0   14.17    2.37
   2  10   0    0.94    1.16
  -2 -10   0    0.97    1.12
  -2  11  -1   11.94    2.07
  -2  11  -1   17.21    2.45
   2 -11   1   15.91    2.46
  -2  10  -1    4.66    1.33
  -2  10  -1    3.85    1.23
   2 -10   1    3.55    1.32
   2  -9   1    3.76    1.16
  -2   9  -1    4.04    1.16
  -2   9  -1    3.47    1.18
  -2   8  -1    9.34    1.50
   2  -8   1    8.36    1.61
  -2   8  -1    9.77    1.61
   2  -7   1   64.72    3.54
  -2   7  -1   66.43    3.44
  -2   7  -1   64.58    3.29
  -2   6  -1   95.76    3.90
  -2   6  -1   88.28    3.95
   2  -6   1   89.92    4.12
   2  -5   1   42.73    1.54
  -2   5  -1   39.27    2.09
  -2   5  -1   36.70    2.20
   2  -5   1   36.76    2.24
  -2   4  -1   32.41    1.90
   2  -4   1   30.37    1.71
   2  -4   1   35.33    1.46
  -2   4  -1   33.56    1.78
   2  -4   1   35.38    2.00
   2  -3   1  212.81    6.16
  -2   3  -1  214.91    6.66
   2  -3   1  221.48    7.01
  -2   3  -1  214.68    6.61
  -2   2  -1  296.01    8.90
  -2   2  -1  294.69    8.59
  -2   2  -1  293.18    8.39
  -2   2  -1  293.56    8.56
  -2   1  -1  413.51   12.06
   2  -1   1  422.67   11.93
  -2   1  -1  424.32   12.35
  -2   1  -1  437.04   11.46
  -2   0  -1   11.16    0.96
  -2   0  -1   10.74    0.63
  -2   0  -1   10.73    0.97
   2   0   1   10.83    0.83
  -2  -1  -1   97.84    3.65
  -2  -1  -1   94.98    3.58
   2   1   1   93.77    3.44
   2   2   1   54.14    2.50
  -2  -2  -1   52.43    2.51
  -2  -2  -1   58.51    2.69
  -2  -3  -1  283.46    8.65
  -2  -3  -1  268.61    8.96
   2   3   1  274.37    8.74
  -2  -4  -1   31.01    1.95
   2   4   1   27.58    2.02
  -2  -4  -1   27.44    2.07
  -2  -5  -1   14.30    1.75
   2   5   1   10.50    1.59
  -2  -5  -1   13.08    1.42
  -2  -6  -1   71.34    3.86
   2   6   1   67.10    3.87
   2   6   1   63.95    3.21
  -2  -7  -1  205.75    8.39
   2   7   1  214.10    8.44
   2   8   1    5.48    1.65
  -2  -8  -1    4.46    1.58
  -2  -9  -1   18.08    2.57
   2   9   1   16.11    2.53
  -2 -10  -1    8.04    2.01
   2  10   1    6.84    1.91
   2 -11   2    7.21    1.76
  -2  11  -2    4.49    1.37
  -2  11  -2    5.44    1.54
  -2  10  -2    0.23    0.78
  -2  10  -2    1.86    1.01
   2 -10   2    1.18    0.90
   2  -9   2   41.88    3.04
  -2   9  -2   44.53    3.11
  -2   9  -2   38.03    2.83
  -2   8  -2  407.19   13.00
   2  -8   2  413.39   13.53
  -2   8  -2  407.37   13.13
  -2   7  -2  141.48    5.57
   2  -7   2  141.62    5.74
  -2   7  -2  139.03    5.68
  -2   6  -2  133.80    5.52
  -2   6  -2  154.96    5.56
   2  -6   2  149.80    5.66
  -2   5  -2   60.51    2.83
   2  -5   2   58.79    2.85
  -2   5  -2   56.97    2.90
  -2   4  -2   20.09    1.42
  -2   4  -2   21.85    1.55
   2  -4   2   19.78    1.43
  -2   4  -2   19.58    1.12
   2  -3   2  282.33    7.56
   2  -3   2  275.31    8.51
  -2   3  -2  278.74    8.11
  -2   3  -2  269.88    8.23
  -2   3  -2  272.62    8.40
  -2   2  -2  245.29    7.58
  -2   2  -2  248.49    7.62
  -2   2  -2  251.92    7.51
  -2   2  -2  248.95    7.32
  -2   1  -2 1956.99   52.05
  -2   1  -2 1992.47   52.87
  -2   1  -2 1930.65   50.01
  -2   1  -2 1923.66   52.05
   2   0   2  734.71   18.57
  -2   0  -2  697.84   19.88
  -2   0  -2  717.50   20.08
   2   0   2  704.41   19.75
   2   1   2  528.44   15.13
  -2  -1  -2  544.45   15.44
  -2  -1  -2  523.04   15.26
  -2  -2  -2  193.19    6.40
   2   2   2  187.34    6.31
  -2  -2  -2  186.19    6.38
  -2  -3  -2  163.45    5.70
   2   3   2  154.58    5.70
  -2  -3  -2  156.87    5.82
  -2  -4  -2  124.96    4.82
  -2  -4  -2  125.26    5.16
   2   4   2  130.78    5.15
  -2  -5  -2   14.67    1.78
   2   5   2   19.63    2.02
  -2  -5  -2   18.59    1.62
  -2  -6  -2   10.40    1.77
   2   6   2   12.52    1.91
  -2  -6  -2   11.56    1.55
  -2  -7  -2   25.34    2.71
   2   7   2   31.03    2.76
   2   8   2   46.84    3.68
  -2  -8  -2   52.06    3.82
   2   9   2   16.83    2.67
  -2  -9  -2   17.66    2.76
  -2  11  -3   38.10    3.18
   2 -11   3   40.33    3.24
   2 -10   3   31.32    3.05
   2 -10   3   38.62    3.01
  -2  10  -3   40.21    3.07
  -2   9  -3   39.09    2.92
   2  -9   3   39.97    2.92
  -2   9  -3   42.02    3.06
   2  -8   3   -0.07    0.62
  -2   8  -3    1.37    0.84
  -2   8  -3    0.85    0.83
  -2   7  -3  263.32    8.84
  -2   7  -3  270.49    8.93
   2  -7   3  230.69    8.70
   2  -6   3   20.47    1.71
  -2   6  -3   21.37    1.85
  -2   6  -3   20.96    1.76
  -2   5  -3  454.25   13.71
  -2   5  -3  460.02   13.53
  -2   5  -3  461.51   12.77
   2  -5   3  453.93   13.66
  -2   4  -3  316.60    9.20
  -2   4  -3  314.33    9.79
   2  -4   3  309.13    9.59
  -2   4  -3  320.32    9.62
  -2   3  -3  650.67   18.63
   2  -3   3  659.34   16.52
  -2   3  -3  653.13   17.98
  -2   3  -3  663.42   18.25
   2  -3   3  653.17   18.54
  -2   2  -3  216.34    6.99
  -2   2  -3  223.54    6.72
  -2   2  -3  212.69    6.82
   2  -2   3  214.40    6.60
  -2   1  -3 1229.14   34.06
  -2   1  -3 1275.76   33.88
   2  -1   3 1256.80   32.35
  -2   1  -3 1217.98   33.86
   2   0   3  346.51   10.41
  -2   0  -3  355.06   10.55
  -2   0  -3  341.78   10.29
   2   0   3  350.63    9.47
   2   1   3   16.40    0.76
   2   1   3   13.92    1.24
  -2  -1  -3   15.04    1.36
  -2  -1  -3   15.60    1.25
  -2  -2  -3  173.87    5.98
   2   2   3  171.03    6.01
  -2  -2  -3  176.74    6.13
   2   3   3   86.73    3.88
  -2  -3  -3   90.00    3.90
  -2  -3  -3   92.43    3.93
  -2  -4  -3   38.59    2.38
   2   4   3   39.48    2.51
  -2  -4  -3   33.92    2.36
  -2  -5  -3  123.47    5.06
   2   5   3  130.34    5.48
  -2  -5  -3  122.94    5.38
  -2  -6  -3  141.85    5.65
   2   6   3  144.87    6.31
  -2  -6  -3  148.68    6.36
  -2  -7  -3  152.87    6.87
   2   7   3  150.83    6.91
   2   8   3    1.47    1.29
  -2  -8  -3    0.70    1.06
  -2  -9  -3    1.89    1.47
   2   9   3   -0.13    1.11
  -2  11  -4   27.76    3.00
   2 -11   4   22.47    2.86
   2 -10   4    1.38    0.94
   2 -10   4    2.78    1.07
  -2  10  -4    2.92    1.22
   2  -9   4   19.09    2.17
   2  -9   4   17.58    2.29
  -2   9  -4   22.51    2.46
   2  -8   4    3.01    1.09
  -2   8  -4    1.61    0.91
   2  -8   4    4.09    1.08
  -2   7  -4   75.05    3.96
   2  -7   4   73.35    3.99
   2  -7   4   84.49    3.93
   2  -6   4   99.13    4.21
   2  -6   4  100.76    4.54
  -2   6  -4  105.21    4.56
   2  -5   4   12.57    1.51
   2  -5   4   14.09    1.32
  -2   5  -4   15.02    1.15
  -2   5  -4    9.43    1.35
   2  -4   4  414.90   12.30
  -2   4  -4  411.07   12.74
   2  -4   4  417.87   12.40
  -2   4  -4  433.76   12.23
   2  -3   4   16.41    1.37
   2  -3   4   18.89    1.20
  -2   3  -4   22.68    1.62
  -2   3  -4   15.85    1.30
   2  -3   4   18.21    1.04
  -2   2  -4  698.63   19.14
  -2   2  -4  687.06   19.66
  -2   2  -4  673.85   19.39
   2  -2   4  686.52   18.67
  -2   1  -4  252.69    8.09
   2  -1   4  240.84    7.34
  -2   1  -4  257.28    8.15
  -2   1  -4  254.19    7.61
   2   0   4  772.18   22.36
  -2   0  -4  802.69   22.16
  -2   0  -4  796.67   22.47
   2   0   4  802.95   20.98
   2   1   4  287.72    7.80
  -2  -1  -4  283.84    9.15
   2   1   4  271.63    8.96
  -2  -1  -4  285.68    8.77
   2   2   4   14.51    1.48
  -2  -2  -4   18.09    1.41
  -2  -2  -4   18.57    1.62
  -2  -3  -4   75.35    3.63
  -2  -3  -4   80.07    3.59
   2   3   4   76.38    3.63
  -2  -4  -4   74.57    3.72
   2   4   4   81.99    3.95
  -2  -4  -4   79.85    3.84
   2   5   4  401.94   13.09
  -2  -5  -4  403.98   13.11
  -2  -5  -4  398.85   12.69
  -2  -6  -4  256.10    9.33
  -2  -6  -4  228.48    8.51
   2   6   4  256.66    9.36
  -2  -7  -4   60.58    3.97
   2   7   4   63.20    4.12
   2   8   4    3.69    1.52
  -2  -8  -4    4.97    1.62
   2   9   4    8.36    2.22
  -2  -9  -4   11.00    2.27
  -2  11  -5    3.87    1.52
   2 -11   5    4.64    1.62
  -2  10  -5   35.43    3.10
   2 -10   5   34.38    3.32
  -2   9  -5    3.64    1.26
   2  -9   5    4.95    1.35
   2  -8   5   24.06    2.57
  -2   8  -5   23.20    2.43
  -2   7  -5   13.12    1.88
   2  -7   5   14.26    1.96
  -2   6  -5 1494.99   42.13
   2  -6   5 1511.65   40.99
   2  -6   5 1537.62   41.96
   2  -5   5  162.32    5.44
  -2   5  -5  143.31    5.95
  -2   5  -5  160.59    5.42
   2  -5   5  160.34    6.05
  -2   4  -5  186.86    6.29
   2  -4   5  188.16    5.94
   2  -4   5  185.90    6.55
  -2   4  -5  179.44    6.70
   2  -3   5   59.06    2.86
  -2   3  -5   57.50    3.04
   2  -3   5   62.72    2.12
  -2   3  -5   62.03    2.92
   2  -3   5   60.11    2.36
  -2   2  -5  608.64   17.33
  -2   2  -5  588.42   17.46
  -2   2  -5  598.29   16.57
   2  -2   5  583.04   16.49
  -2   1  -5   92.74    4.06
   2  -1   5  100.83    3.64
  -2   1  -5   94.72    3.38
   2   0   5  122.30    4.87
   2   0   5  126.73    4.19
  -2   0  -5  121.01    4.26
  -2   0  -5  125.60    4.96
  -2  -1  -5  303.61    9.41
   2   1   5  311.05    9.90
   2   1   5  307.54    8.68
  -2  -1  -5  303.95    9.99
   2   2   5  325.75   10.61
  -2  -2  -5  356.04   10.37
  -2  -2  -5  309.79   10.67
  -2  -3  -5  290.40    9.95
   2   3   5  298.12    9.92
  -2  -3  -5  302.66    9.72
  -2  -4  -5  183.37    6.98
   2   4   5  177.35    6.98
  -2  -4  -5  191.35    6.94
  -2  -5  -5   27.51    2.30
  -2  -5  -5   34.99    2.51
   2   5   5   27.10    2.44
  -2  -6  -5  102.05    4.83
  -2  -6  -5  111.74    5.27
   2   6   5   98.09    5.16
   2   7   5   12.21    2.22
  -2  -7  -5   10.73    2.04
  -2  -8  -5    1.58    1.22
   2   8   5    2.63    1.55
  -2  10  -6   39.51    3.28
   2 -10   6   25.85    3.09
  -2   9  -6   19.73    2.62
   2  -9   6   24.07    2.77
   2  -8   6   23.49    2.62
  -2   8  -6   22.00    2.54
  -2   7  -6    1.16    0.82
   2  -7   6    0.46    0.78
   2  -6   6  212.29    8.06
  -2   6  -6  230.34    8.35
  -2   5  -6  112.81    5.09
   2  -5   6  107.72    4.87
  -2   5  -6  121.94    4.61
  -2   4  -6    7.66    1.32
   2  -4   6    5.29    1.07
  -2   4  -6    6.40    1.10
   2  -3   6   47.53    2.62
  -2   3  -6   49.96    2.73
   2  -2   6  117.84    4.51
  -2   2  -6  112.20    4.91
  -2   2  -6  121.32    4.88
   2  -1   6   15.00    1.67
  -2   1  -6   20.10    1.89
   2   0   6   19.58    1.39
   2   0   6   20.98    1.81
  -2   0  -6   23.37    1.40
  -2   0  -6   21.38    2.04
  -2  -1  -6    5.24    1.21
  -2  -1  -6    7.64    0.96
   2   1   6    9.53    0.98
   2   1   6    7.13    1.26
  -2  -2  -6   15.18    1.86
   2   2   6   10.31    1.53
  -2  -2  -6   12.17    1.30
  -2  -3  -6  174.65    6.84
  -2  -3  -6  162.92    6.23
   2   3   6  173.78    6.70
   2   4   6   35.16    2.72
  -2  -4  -6   40.71    2.59
  -2  -4  -6   32.73    2.62
  -2  -5  -6  122.54    5.53
  -2  -5  -6  130.21    5.73
   2   5   6  129.77    5.89
   2   6   6    7.80    1.64
  -2  -6  -6    5.34    1.41
  -2  -6  -6    6.35    1.48
  -2  -7  -6   11.75    2.09
   2   7   6    7.80    1.94
   2   8   6   14.86    2.65
  -2  -8  -6   10.41    2.13
   2 -10   7   44.25    3.74
  -2  10  -7   48.24    3.85
   2  -9   7   32.42    3.33
  -2   9  -7   39.79    3.37
  -2   8  -7   73.68    4.55
   2  -8   7   82.39    4.70
  -2   7  -7  188.25    7.98
   2  -7   7  213.13    8.16
  -2   6  -7  101.69    5.07
   2  -6   7  103.60    4.93
  -2   5  -7   34.68    2.30
   2  -5   7   28.94    2.35
  -2   5  -7   31.79    2.52
   2  -4   7    4.19    1.00
  -2   4  -7    2.79    0.90
  -2   4  -7    3.13    0.98
   2  -3   7   42.43    2.58
  -2   3  -7   47.75    2.99
  -2   3  -7   42.92    2.70
   2  -2   7   16.98    1.66
  -2   2  -7   16.59    1.96
  -2   2  -7   19.20    1.95
  -2   1  -7    2.97    0.96
   2  -1   7    6.51    1.05
   2  -1   7    4.82    1.12
   2   0   7    0.88    0.57
  -2   0  -7    0.95    0.79
   2   0   7    0.62    0.66
  -2  -1  -7 1287.42   37.09
   2   1   7 1340.54   36.98
   2   2   7  241.97    8.61
  -2  -2  -7  228.34    8.69
  -2  -3  -7   12.67    1.91
   2   3   7   11.59    1.72
  -2  -4  -7   20.49    2.37
   2   4   7   21.74    2.39
  -2  -5  -7   67.69    4.09
  -2  -5  -7   68.70    3.88
   2   5   7   70.22    4.15
   2   6   7    1.68    1.18
  -2  -6  -7    2.15    1.19
  -2  -6  -7    2.65    1.24
   2   7   7    1.91    1.29
  -2  -7  -7    4.72    1.42
  -2   9  -8   27.19    3.18
   2  -9   8   26.42    3.21
   2  -8   8   14.00    2.22
  -2   8  -8   10.17    2.05
   2  -7   8    6.69    1.58
  -2   7  -8    7.75    1.68
   2  -6   8   16.71    2.21
  -2   6  -8   18.06    2.32
   2  -5   8    3.10    1.03
  -2   5  -8    2.76    0.95
  -2   5  -8    4.24    1.17
  -2   4  -8    0.48    0.71
   2  -4   8    1.85    0.80
  -2   4  -8    0.95    0.75
  -2   3  -8  183.41    7.21
  -2   3  -8  183.14    7.04
   2  -3   8  169.26    6.61
  -2   2  -8    1.06    0.84
   2  -2   8    1.36    0.69
  -2   2  -8    1.95    0.90
  -2   1  -8   29.90    2.49
   2  -1   8   28.84    2.00
   2  -1   8   26.97    2.31
   2   0   8   70.31    3.32
   2   0   8   77.29    4.07
  -2   0  -8   78.01    4.23
   2   1   8   13.46    1.90
  -2  -1  -8   14.14    2.08
  -2  -2  -8    9.08    1.82
   2   2   8   11.76    1.85
   2   3   8    3.32    1.13
  -2  -3  -8    0.98    1.04
   2   4   8    9.12    1.75
  -2  -4  -8    8.40    1.76
  -2  -5  -8    2.72    1.33
   2   5   8    1.94    1.07
   2   6   8   27.92    3.12
  -2  -6  -8   27.30    2.94
   2  -9   9    6.12    1.79
  -2   9  -9    8.35    2.00
   2  -8   9   37.04    3.62
  -2   8  -9   40.00    3.39
  -2   7  -9   13.40    2.22
   2  -7   9   12.30    2.10
  -2   6  -9   41.00    3.23
   2  -6   9   41.21    3.14
   2  -5   9   96.65    4.96
  -2   5  -9  106.23    4.93
  -2   5  -9  100.62    5.18
   2  -4   9   47.28    3.10
  -2   4  -9   49.76    3.21
  -2   4  -9   43.54    3.24
  -2   3  -9   56.49    3.53
   2  -3   9   53.18    3.20
  -2   3  -9   57.52    3.67
   2  -2   9   40.16    2.59
  -2   2  -9   35.33    2.83
   2  -1   9   71.67    4.09
  -2   1  -9   67.29    4.06
   2  -1   9   68.32    3.47
  -2   0  -9   83.01    4.66
   2   0   9   83.48    4.52
   2   1   9   11.33    1.86
  -2  -1  -9   10.05    1.95
  -2  -2  -9  140.52    6.66
   2   2   9  140.85    6.37
  -2  -3  -9   22.61    2.73
   2   3   9   24.29    2.65
  -2  -4  -9    7.61    1.87
   2   4   9    8.77    1.79
   2   5   9   50.84    3.69
  -2  -5  -9   43.50    3.62
  -2  -6  -9   29.79    3.28
   2   6   9   32.89    3.40
  -2   8 -10   99.89    5.89
   2  -8  10  109.87    6.06
  -2   7 -10   62.64    4.35
   2  -7  10   71.67    4.52
  -2   6 -10    7.54    1.70
   2  -6  10    8.54    1.75
  -2   5 -10   38.37    2.89
   2  -5  10   30.88    2.68
  -2   5 -10   34.87    3.03
  -2   4 -10   34.99    2.84
   2  -4  10   33.78    2.68
  -2   4 -10   40.97    3.18
  -2   3 -10    8.47    1.77
  -2   3 -10    5.90    1.52
   2  -3  10    6.94    1.44
   2  -2  10  131.10    6.17
  -2   2 -10  127.61    6.12
   2  -2  10  126.71    5.51
  -2   1 -10   53.37    3.74
   2  -1  10   53.81    3.14
   2  -1  10   51.00    3.54
  -2   0 -10   20.77    2.69
   2   0  10   24.51    2.66
   2   1  10   23.61    2.66
  -2  -1 -10   29.84    3.13
  -2  -2 -10   37.80    3.42
   2   2  10   48.66    3.47
  -2  -3 -10   59.46    4.27
   2   3  10   61.14    4.07
   2   4  10   44.63    3.56
  -2  -4 -10   50.25    3.95
  -2   6 -11    8.29    1.92
   2  -6  11   10.08    1.97
   2  -5  11   57.05    3.84
  -2   5 -11   56.69    4.02
   2  -4  11   90.68    4.78
  -2   4 -11   86.40    4.90
  -2   4 -11   84.85    5.11
  -2   3 -11    5.71    1.56
   2  -3  11    7.41    1.57
   2  -2  11   10.14    1.73
  -2   2 -11    9.10    1.91
   2  -2  11    7.66    1.65
   2  -1  11   23.31    2.67
  -2   1 -11   20.44    2.77
  -2   0 -11   68.93    4.61
   2   0  11   69.90    4.41
  -2  -1 -11   46.48    3.81
   2   1  11   50.19    3.71
  -2  -2 -11   21.91    3.05
   2   2  11   29.38    3.14
  -2  -3 -11    3.11    1.54
   2   3  11    3.39    1.30
  -2   4 -12  132.14    6.72
  -2   4 -12  138.62    6.66
   2  -4  12  117.51    5.99
   2  -3  12   36.91    3.02
  -2   3 -12   39.33    3.49
   2  -3  12   44.65    3.55
  -2   2 -12   25.77    3.10
   2  -2  12   21.68    2.75
  -2   1 -12   77.09    5.00
   2  -1  12   74.06    4.74
   2   0  12  159.48    7.39
  -2   0 -12  144.44    7.44
  -2  -1 -12   34.32    3.71
   2   1  12   26.62    3.13
   3  -4 -11    4.43    1.64
  -3   4  11    4.21    1.39
  -3   3  11   23.09    2.70
   3  -3 -11   19.97    2.82
   3  -2 -11   20.11    2.82
  -3   2  11   20.60    2.62
  -3   1  11    1.21    0.98
   3  -1 -11    1.62    1.35
   3   0 -11    6.91    1.98
  -3   0  11    6.25    1.65
  -3  -1  11   -0.73    0.88
   3   1 -11    0.96    1.26
  -3  -2  11   14.77    2.42
   3   2 -11   11.06    2.32
   3   3 -11   10.22    2.21
  -3  -3  11    7.69    1.83
  -3   5  10   31.41    3.05
   3  -5 -10   28.48    3.17
   3  -4 -10   22.01    2.82
  -3   4  10   24.73    2.69
   3  -3 -10   40.08    3.38
  -3   3  10   39.47    3.00
  -3   2  10   11.09    1.85
   3  -2 -10   11.52    2.23
   3  -1 -10   34.67    3.29
  -3   1  10   30.03    2.93
   3   0 -10    3.54    1.48
  -3   0  10    3.80    1.25
  -3  -1  10    8.01    1.75
   3   1 -10    5.95    1.71
  -3  -2  10   71.44    4.27
   3   2 -10   65.22    4.44
   3   3 -10   24.94    2.96
  -3  -3  10   19.89    2.54
   3   4 -10    3.38    1.51
  -3  -4  10    1.53    1.19
  -3  -5  10    5.07    1.54
   3   5 -10    1.83    1.49
  -3   7   9   35.24    2.98
  -3   6   9   35.32    2.86
   3  -5  -9    4.58    1.51
  -3   5   9    5.71    1.39
  -3   4   9   42.59    3.08
   3  -4  -9   42.00    3.31
   3  -3  -9   31.24    3.07
  -3   3   9   30.35    2.49
  -3   2   9  136.51    6.01
   3  -2  -9  139.52    6.52
  -3   1   9   43.80    3.04
   3  -1  -9   38.79    3.21
  -3   0   9   17.68    2.26
   3   0  -9   14.31    2.29
  -3  -1   9    3.29    1.17
   3   1  -9    4.05    1.39
  -3  -2   9   42.26    3.06
   3   2  -9   38.34    3.21
  -3  -3   9   43.13    3.13
   3   3  -9   40.20    3.30
   3   4  -9    1.70    1.28
  -3  -4   9    2.36    1.10
  -3  -5   9   16.77    2.36
   3   5  -9   20.69    2.62
  -3  -6   9   25.44    2.94
  -3   8   8   20.41    2.70
   3  -8  -8   21.67    2.98
  -3   7   8    9.68    1.81
   3  -7  -8    7.75    1.91
   3  -6  -8    2.33    1.39
  -3   6   8    4.58    1.29
  -3   5   8   66.63    3.89
   3  -5  -8   72.68    4.24
   3  -5  -8   77.97    4.29
   3  -4  -8   68.10    4.09
  -3   4   8   69.63    3.87
   3  -4  -8   68.88    3.88
  -3   3   8   25.17    2.39
   3  -3  -8   25.37    2.27
   3  -3  -8   25.31    2.62
   3  -2  -8   56.90    3.72
  -3   2   8   50.10    3.15
   3  -1  -8  106.74    5.22
  -3   1   8  101.60    4.83
   3   0  -8   17.06    2.25
  -3   0   8   19.41    2.18
  -3  -1   8   35.72    2.68
   3   1  -8   41.54    3.16
   3   2  -8  142.96    6.34
  -3  -2   8  134.69    5.84
  -3  -3   8  130.56    5.86
   3   3  -8  148.84    6.46
  -3  -4   8    0.98    0.81
   3   4  -8   -0.68    0.83
   3   5  -8   14.94    2.21
  -3  -5   8   14.41    2.13
  -3  -6   8   73.61    4.31
   3  -9  -7  132.69    6.94
  -3   9   7  115.38    6.03
  -3   8   7   23.99    2.76
   3  -8  -7   22.92    2.97
  -3   7   7    5.32    1.37
   3  -7  -7    7.30    1.74
   3  -6  -7   35.21    2.92
  -3   6   7   31.07    2.56
   3  -5  -7   24.16    2.47
   3  -5  -7   27.41    2.60
  -3   5   7   25.88    2.44
   3  -4  -7   29.39    2.60
   3  -4  -7   33.22    2.60
  -3   4   7   31.83    2.39
   3  -3  -7  193.98    7.44
   3  -3  -7  197.67    6.43
  -3   3   7  168.15    6.84
   3  -3  -7  191.22    7.15
   3  -2  -7  297.22    8.80
   3  -2  -7  282.74   10.11
  -3   2   7  285.07    9.60
   3  -2  -7  291.98    9.89
   3  -1  -7  256.84    9.32
  -3   1   7  258.51    8.83
  -3   1   7  260.10    8.71
  -3   0   7   57.46    2.99
  -3   0   7   54.96    3.19
   3   0  -7   59.46    3.56
  -3  -1   7  165.14    6.12
  -3  -1   7  176.40    6.49
   3   1  -7  160.12    6.79
  -3  -2   7   94.99    4.34
  -3  -2   7   86.01    4.00
   3   2  -7   97.10    4.74
   3   3  -7  101.15    5.10
  -3  -3   7  104.28    4.74
  -3  -4   7   29.48    2.36
   3   4  -7   31.27    2.68
  -3  -5   7   11.85    1.87
   3   5  -7   12.06    1.95
  -3  -6   7    5.34    1.47
  -3   9   6    0.56    0.94
   3  -9  -6    1.94    1.45
  -3   8   6   28.93    2.83
   3  -8  -6   25.83    3.01
  -3   7   6   32.80    2.72
   3  -7  -6   34.68    2.96
  -3   6   6   56.79    3.46
   3  -6  -6   64.07    3.89
   3  -5  -6   90.57    4.37
   3  -5  -6   87.24    4.51
  -3   5   6   84.65    4.17
   3  -4  -6  247.05    8.67
   3  -4  -6  257.13    8.93
  -3   4   6  230.51    8.32
   3  -3  -6  172.96    5.88
   3  -3  -6  181.39    6.79
  -3   3   6  164.53    6.29
   3  -3  -6  169.86    6.64
   3  -2  -6  257.51    8.92
  -3   2   6  246.10    8.42
  -3   2   6  243.68    8.31
  -3   1   6  103.18    4.44
  -3   1   6  104.09    4.43
   3  -1  -6  111.11    4.85
   3   0  -6   26.04    2.26
  -3   0   6   31.85    2.11
  -3   0   6   30.16    2.12
  -3  -1   6    8.30    1.34
   3   1  -6   10.03    1.58
  -3  -1   6   10.17    1.34
   3   2  -6    5.69    1.38
  -3  -2   6    5.26    1.11
  -3  -2   6    5.64    1.13
  -3  -3   6   78.67    3.78
   3   3  -6   78.08    4.10
  -3  -3   6   78.22    3.79
   3   4  -6   10.43    1.76
  -3  -4   6   12.25    1.66
  -3  -4   6   13.07    1.72
  -3  -5   6    1.06    0.84
  -3  -5   6    3.16    0.98
   3   5  -6    1.76    1.14
   3   6  -6   89.94    4.64
  -3  -6   6   93.73    4.75
  -3  -7   6   15.05    2.23
   3   7  -6   15.88    2.19
   3   8  -6   23.70    2.76
   3 -10  -5   13.07    2.60
  -3  10   5   10.78    2.11
  -3   9   5   18.05    2.43
   3  -9  -5   15.44    2.65
  -3   8   5    0.95    0.89
   3  -8  -5    1.10    1.21
   3  -7  -5   32.55    2.85
  -3   7   5   34.63    2.63
   3  -6  -5   49.25    3.32
  -3   6   5   43.71    2.88
   3  -5  -5  112.57    5.20
  -3   5   5  113.51    4.88
   3  -5  -5  110.96    4.81
   3  -4  -5  187.58    6.38
   3  -4  -5  196.48    7.20
   3  -4  -5  182.87    6.84
  -3   4   5  181.39    6.69
  -3   3   5  433.45   12.57
   3  -3  -5  428.32   12.98
   3  -3  -5  390.21   11.68
   3  -3  -5  402.42   13.21
  -3   2   5  275.04    9.01
   3  -2  -5  273.45    9.12
  -3   2   5  257.62    8.56
  -3   1   5   44.33    2.51
   3  -1  -5   40.49    2.59
  -3   1   5   40.82    2.38
  -3   0   5    6.21    1.06
   3   0  -5    6.58    1.25
  -3   0   5    8.66    1.22
   3   1  -5   15.01    1.71
  -3  -1   5   15.58    1.56
  -3  -1   5   17.92    1.62
  -3  -2   5   10.79    1.44
  -3  -2   5    9.92    1.31
   3   2  -5    8.03    1.43
   3   3  -5    7.55    1.43
  -3  -3   5    5.53    1.12
  -3  -3   5    5.22    1.07
  -3  -4   5  294.02    9.40
   3   4  -5  292.75   10.03
   3   4  -5  297.51    9.54
  -3  -4   5  288.16   10.01
  -3  -5   5  356.60   11.01
   3   5  -5  345.84   11.55
  -3  -5   5  339.20   11.83
   3   5  -5  351.20   11.34
   3   6  -5   17.78    2.10
   3   6  -5   24.41    2.33
  -3  -6   5   24.03    2.45
  -3  -7   5   24.69    2.59
   3   7  -5   20.13    2.37
  -3  -8   5   15.16    2.31
   3   8  -5   16.82    2.37
  -3  10   4    5.27    1.60
   3 -10  -4    5.08    2.00
  -3   9   4    0.99    0.95
   3  -9  -4    2.03    1.46
   3  -8  -4    7.08    1.75
  -3   8   4    4.86    1.27
  -3   7   4  394.93   12.49
   3  -7  -4  374.32   13.21
   3  -6  -4  258.57    9.35
  -3   6   4  241.40    8.65
  -3   5   4   59.49    3.20
   3  -5  -4   56.74    2.98
   3  -5  -4   59.22    3.48
  -3   4   4   22.42    1.79
   3  -4  -4   25.97    1.95
   3  -4  -4   19.01    1.97
   3  -4  -4   22.09    1.70
   3  -3  -4  106.22    4.34
  -3   3   4  100.81    4.18
  -3   2   4   84.00    3.87
   3  -2  -4   87.47    3.84
  -3   2   4   92.31    3.73
  -3   1   4   21.14    1.67
  -3   1   4   19.35    1.49
   3  -1  -4   19.19    1.70
   3   0  -4   47.52    2.77
  -3   0   4   47.73    2.43
  -3   0   4   47.80    2.59
   3   1  -4   92.34    4.19
  -3  -1   4   95.24    3.71
  -3  -1   4   94.43    4.07
   3   2  -4    6.88    0.87
  -3  -2   4    4.29    0.86
   3   2  -4    4.00    1.06
  -3  -2   4    5.70    1.15
   3   3  -4   81.82    3.97
   3   3  -4   83.79    3.51
  -3  -3   4   81.89    3.96
  -3  -3   4   84.56    3.51
  -3  -4   4    1.76    0.75
  -3  -4   4    3.73    0.94
   3   4  -4    2.41    0.83
   3   4  -4    3.04    1.10
   3   5  -4  190.43    7.26
   3   5  -4  198.98    7.24
  -3  -5   4  192.54    7.57
   3   6  -4   46.25    3.07
   3   6  -4   44.25    2.97
  -3  -6   4   44.86    3.12
  -3  -7   4    1.46    0.98
   3   7  -4    3.91    1.23
  -3  -8   4   20.53    2.61
   3   8  -4   19.45    2.50
  -3  11   3    2.70    1.35
   3 -11  -3    2.80    1.63
   3 -10  -3    8.39    2.15
  -3  10   3    6.38    1.60
   3  -9  -3   17.09    2.65
  -3   9   3   19.23    2.38
   3  -8  -3   17.74    2.42
  -3   8   3   20.41    2.29
  -3   7   3   69.57    3.72
   3  -7  -3   66.63    4.04
  -3   6   3   38.20    2.51
   3  -6  -3   37.04    2.81
  -3   5   3   12.05    1.55
   3  -5  -3   11.60    1.70
   3  -5  -3   12.00    1.58
   3  -5  -3   13.20    1.37
   3  -4  -3   11.13    1.40
   3  -4  -3    9.36    1.22
  -3   4   3   10.24    1.36
   3  -4  -3    6.87    1.25
  -3   3   3   82.33    3.84
   3  -3  -3   89.10    3.71
  -3   3   3   91.42    3.69
  -3   2   3   57.10    2.92
  -3   2   3   54.75    2.61
   3  -2  -3   53.99    2.77
  -3   1   3   66.27    2.84
  -3   1   3   65.07    3.12
   3  -1  -3   63.98    3.11
   3   0  -3  494.16   14.77
  -3   0   3  498.64   15.04
   3   0  -3  500.03   13.48
  -3   0   3  495.57   13.90
   3   1  -3   61.09    3.15
  -3  -1   3   63.01    2.65
  -3  -1   3   59.76    3.09
   3   1  -3   64.94    2.42
  -3  -2   3   84.61    3.28
   3   2  -3   91.80    3.41
   3   2  -3   81.47    3.84
  -3  -2   3   83.57    3.92
   3   3  -3   63.47    2.88
  -3  -3   3   60.05    3.17
  -3  -3   3   51.51    2.47
   3   3  -3   58.38    3.14
   3   4  -3  916.11   25.79
  -3  -4   3  873.13   24.15
  -3  -4   3  912.94   26.49
   3   5  -3   13.20    1.76
  -3  -5   3   13.87    1.91
   3   5  -3   19.06    1.95
   3   6  -3   53.90    3.38
  -3  -6   3   53.86    3.49
   3   6  -3   56.18    3.31
   3   7  -3   15.63    2.15
  -3  -7   3   17.16    2.28
  -3  -8   3    4.17    1.36
   3   8  -3    2.76    1.32
  -3  -9   3    1.79    1.22
   3   9  -3   -0.17    0.95
  -3  11   2    2.10    1.27
   3 -11  -2    0.39    1.15
   3 -10  -2   19.61    2.76
  -3  10   2   16.91    2.41
   3  -9  -2   35.43    3.15
  -3   9   2   41.51    3.06
  -3   8   2  263.75    9.41
   3  -8  -2  268.86   10.12
  -3   7   2   81.87    4.12
   3  -7  -2   91.07    4.62
   3  -6  -2   14.26    1.92
  -3   6   2   15.01    1.73
   3  -5  -2    9.78    1.50
   3  -5  -2    8.71    1.06
  -3   5   2    9.29    1.32
   3  -5  -2    7.22    1.28
   3  -4  -2   62.40    2.79
   3  -4  -2   56.77    2.82
   3  -4  -2   60.45    3.27
  -3   4   2   58.74    2.14
  -3   4   2   57.58    2.88
   3  -3  -2   47.49    2.42
  -3   3   2   47.79    2.42
  -3   3   2   51.32    1.62
  -3   3   2   44.04    2.56
  -3   2   2  209.22    7.34
   3  -2  -2  216.98    7.07
  -3   2   2  214.44    6.72
  -3   1   2  251.59    7.40
   3  -1  -2  244.53    7.94
  -3   1   2  235.10    8.06
  -3   0   2 1302.17   33.41
  -3   0   2 1245.25   35.74
   3   0  -2 1231.37   35.05
   3   0  -2 1331.74   34.11
   3   1  -2  191.42    6.86
   3   1  -2  213.22    6.30
  -3  -1   2  203.59    6.12
  -3  -1   2  196.96    7.10
   3   2  -2   31.67    1.76
  -3  -2   2   21.79    1.30
   3   2  -2   22.51    1.78
  -3  -2   2   23.00    1.83
   3   3  -2   47.24    2.71
  -3  -3   2   50.61    2.12
   3   3  -2   52.13    2.62
  -3  -3   2   45.29    2.83
  -3  -4   2  104.14    4.87
   3   4  -2  113.16    4.75
   3   4  -2  116.46    4.72
  -3  -5   2  270.47    9.80
   3   5  -2  278.21    9.32
   3   5  -2  270.10    9.42
  -3  -6   2   59.97    3.85
   3   6  -2   72.22    3.80
   3   6  -2   74.57    4.03
  -3  -7   2    1.51    0.94
   3   7  -2    2.02    1.04
   3   8  -2    8.36    1.89
  -3  -8   2    7.19    1.64
  -3  -9   2   31.67    3.44
   3   9  -2   32.39    3.38
   3 -11  -1   24.59    3.11
  -3  11   1   22.30    2.87
  -3  10   1   11.98    2.04
   3 -10  -1   14.01    2.37
  -3   9   1    8.13    1.63
   3  -9  -1    6.92    1.69
  -3   8   1   34.22    2.29
  -3   8   1   37.36    2.75
   3  -8  -1   32.45    2.79
   3  -7  -1   30.61    2.49
  -3   7   1   34.07    2.10
  -3   7   1   32.00    2.39
   3  -6  -1   45.17    2.91
  -3   6   1   42.81    2.64
  -3   6   1   46.30    2.30
   3  -5  -1   24.33    1.96
   3  -5  -1   25.97    1.61
   3  -5  -1   23.40    1.78
  -3   5   1   28.07    1.53
  -3   5   1   22.13    1.75
  -3   4   1   46.99    1.96
   3  -4  -1   43.32    2.20
   3  -4  -1   47.26    2.76
  -3   4   1   47.23    2.48
   3  -4  -1   46.79    2.42
  -3   3   1  564.60   15.83
   3  -3  -1  559.98   16.18
  -3   3   1  559.57   16.83
  -3   3   1  585.40   15.51
  -3   2   1  286.21    8.22
  -3   2   1  278.11    8.99
   3  -2  -1  273.47    8.54
   3  -2  -1  265.60    7.67
  -3   1   1  105.66    4.41
   3  -1  -1  119.82    3.58
   3  -1  -1  116.50    4.36
  -3   1   1  114.64    3.90
   3   0  -1  160.73    5.82
   3   0  -1  167.30    5.10
  -3   0   1  167.75    5.08
  -3   0   1  165.04    5.96
  -3  -1   1  653.48   17.18
   3   1  -1  650.47   18.00
   3   1  -1  639.19   18.64
  -3  -1   1  643.33   19.01
   3   2  -1   12.01    1.20
  -3  -2   1   10.34    1.41
  -3  -2   1    9.80    0.76
   3   2  -1   10.37    1.32
   3   3  -1   72.80    3.36
   3   3  -1   77.27    3.58
  -3  -3   1   68.17    3.55
   3   4  -1   52.30    2.97
   3   4  -1   52.93    3.00
  -3  -4   1   53.90    3.13
   3   5  -1  292.74   10.00
   3   5  -1  289.51    9.74
  -3  -5   1  288.76   10.32
   3   6  -1   65.88    3.76
   3   6  -1   58.96    3.35
  -3  -6   1   51.38    3.49
   3   7  -1   11.60    2.00
  -3  -7   1   11.54    2.03
   3   8  -1   48.41    3.65
  -3  -8   1   41.81    3.39
  -3  -9   1   16.97    2.64
   3   9  -1   12.77    2.34
   3 -11   0    1.83    1.26
  -3  11   0    2.08    1.22
   3 -10   0    9.64    2.01
  -3  10   0    8.79    1.60
  -3  10   0    9.19    1.78
  -3   9   0   62.89    3.88
   3  -9   0   69.14    4.28
  -3   9   0   73.20    3.74
  -3   8   0   89.13    4.03
   3  -8   0   80.43    4.51
  -3   8   0   89.06    4.48
  -3   7   0    7.54    1.42
   3  -7   0   10.84    1.69
  -3   7   0    8.74    1.23
   3  -6   0  146.05    5.94
  -3   6   0  152.58    5.24
  -3   6   0  133.32    5.48
  -3   5   0  393.27   11.49
   3  -5   0  385.39   11.12
  -3   5   0  384.96   11.78
   3  -5   0  404.35   12.57
   3  -5   0  389.08   11.30
   3  -4   0   82.40    3.31
  -3   4   0   76.42    3.01
  -3   4   0   81.02    3.42
   3  -4   0   79.85    3.75
   3  -4   0   79.25    3.09
  -3   3   0  156.25    4.82
  -3   3   0  154.55    5.14
   3  -3   0  152.59    5.15
  -3   3   0  136.52    5.46
  -3   2   0   63.30    2.62
   3  -2   0   61.54    2.82
   3  -2   0   64.66    2.36
  -3   2   0   61.70    2.98
  -3   1   0  281.52    7.94
  -3   1   0  264.65    8.85
   3  -1   0  271.77    7.99
   3  -1   0  283.43    8.72
  -3   0   0  270.46    7.43
   3   0   0  259.80    7.81
   3   0   0  264.31    8.46
  -3   0   0  252.56    8.54
  -3  -1   0  450.05   14.09
   3   1   0  454.99   13.80
   3   1   0  473.25   13.31
  -3  -1   0  466.80   12.28
  -3  -2   0   20.33    1.83
   3   2   0   27.29    1.91
   3   2   0   25.42    1.70
   3   3   0    1.22    0.69
  -3  -3   0    3.01    0.93
   3   3   0    1.04    0.64
  -3  -4   0   33.90    2.47
   3   4   0   33.30    2.40
   3   4   0   37.49    2.45
   3   5   0   24.05    2.36
  -3  -5   0   20.56    2.25
   3   5   0   28.61    2.21
  -3  -6   0  226.61    8.92
   3   6   0  241.86    8.46
   3   6   0  228.42    8.85
  -3  -7   0   78.27    4.48
   3   7   0   65.42    4.26
   3   8   0    0.75    1.17
  -3  -8   0    1.93    1.11
   3   9   0    0.98    1.18
  -3  -9   0    2.64    1.25
   3 -11   1    1.36    1.04
  -3  11  -1    0.65    1.09
  -3  11  -1    2.07    1.10
  -3  10  -1   34.84    3.37
  -3  10  -1   37.30    2.83
   3 -10   1   41.23    3.33
  -3   9  -1   93.46    4.52
  -3   9  -1   87.24    4.71
   3  -9   1   97.54    5.08
  -3   8  -1  387.21   12.88
   3  -8   1  404.95   13.46
  -3   8  -1  403.41   12.63
  -3   7  -1   19.74    1.72
  -3   7  -1   19.79    2.07
   3  -7   1   21.20    2.14
  -3   6  -1   65.66    3.06
   3  -6   1   64.30    3.43
  -3   6  -1   64.44    3.35
   3  -5   1   29.56    1.56
   3  -5   1   26.26    2.01
  -3   5  -1   27.49    1.95
   3  -5   1   24.42    1.73
  -3   5  -1   28.34    1.76
   3  -4   1   59.08    2.55
  -3   4  -1   56.91    2.80
  -3   4  -1   63.53    2.72
   3  -3   1  183.43    6.02
  -3   3  -1  186.11    6.43
  -3   3  -1  184.70    5.90
  -3   3  -1  175.28    5.92
  -3   2  -1   25.54    1.71
  -3   2  -1   21.29    1.35
  -3   1  -1  250.78    7.15
   3  -1   1  245.32    7.47
  -3   1  -1  236.08    8.07
  -3   1  -1  252.78    7.95
  -3   0  -1  311.48    9.95
   3   0   1  321.55    9.52
  -3   0  -1  313.84   10.11
  -3   0  -1  330.29    8.79
  -3  -1  -1   88.39    2.62
  -3  -1  -1   86.60    3.76
   3   1   1   85.17    3.45
  -3  -1  -1   85.44    3.79
  -3  -2  -1   55.10    3.05
  -3  -2  -1   55.57    2.93
   3   2   1   60.05    2.83
   3   3   1   28.96    2.05
  -3  -3  -1   30.06    2.20
  -3  -3  -1   29.29    2.15
  -3  -4  -1   18.45    2.02
   3   4   1   23.42    1.98
   3   4   1   19.15    1.95
   3   5   1    3.23    0.94
   3   5   1    2.07    1.01
  -3  -5  -1    2.70    1.10
   3   6   1   20.78    2.12
  -3  -6  -1   20.87    2.42
   3   6   1   22.09    2.50
   3   7   1   68.81    4.36
  -3  -7  -1   67.34    4.34
  -3  -8  -1    3.64    1.54
   3   8   1    9.11    2.08
   3   9   1   15.41    2.61
  -3  -9  -1   11.53    2.38
  -3  11  -2    2.48    1.18
  -3  11  -2    1.62    1.18
   3 -11   2    2.07    1.22
   3 -10   2   21.51    2.67
  -3  10  -2   20.36    2.61
  -3  10  -2   18.38    2.26
   3  -9   2   72.36    4.25
  -3   9  -2   80.39    4.15
  -3   9  -2   66.77    4.11
   3  -8   2   63.23    3.72
  -3   8  -2   61.01    3.76
  -3   8  -2   63.85    3.52
   3  -7   2   15.35    1.86
  -3   7  -2   16.25    1.96
  -3   7  -2   17.21    1.74
  -3   6  -2   27.18    1.92
   3  -6   2   20.82    1.86
  -3   6  -2   22.97    1.92
   3  -5   2   50.17    2.25
   3  -5   2   49.70    2.76
  -3   5  -2   52.02    2.81
  -3   5  -2   51.54    2.64
   3  -5   2   50.09    2.46
  -3   4  -2  182.29    6.21
  -3   4  -2  185.74    5.96
  -3   4  -2  177.13    6.21
  -3   3  -2  171.88    5.99
  -3   3  -2  174.01    5.80
  -3   3  -2  165.27    5.73
  -3   3  -2  166.68    5.66
  -3   2  -2   84.78    3.64
  -3   2  -2   90.57    3.55
  -3   2  -2   94.92    3.41
  -3   2  -2   89.98    3.67
  -3   1  -2  131.03    4.21
   3  -1   2  131.52    4.63
  -3   1  -2  133.50    4.90
  -3   1  -2  127.88    4.87
  -3   0  -2  360.67   11.17
   3   0   2  340.20   10.64
  -3   0  -2  368.84    9.69
  -3   0  -2  357.55   11.06
   3   1   2   77.09    3.34
  -3  -1  -2   79.03    3.58
  -3  -1  -2   82.71    3.66
  -3  -2  -2  152.53    5.69
   3   2   2  135.54    5.33
  -3  -2  -2  141.84    5.55
   3   3   2   58.03    3.09
  -3  -3  -2   54.74    3.15
  -3  -3  -2   57.13    3.11
  -3  -4  -2    1.40    0.84
   3   4   2    0.84    0.70
  -3  -4  -2    1.33    0.81
  -3  -5  -2    1.67    0.96
   3   5   2    1.99    1.07
  -3  -5  -2    2.01    0.99
  -3  -6  -2  123.64    5.99
   3   6   2  133.59    6.15
   3   7   2   42.81    3.51
  -3  -7  -2   45.96    3.48
   3   8   2    2.84    1.54
  -3  -8  -2    0.62    1.14
   3 -11   3   19.38    2.60
  -3  11  -3   21.43    2.69
  -3  11  -3   18.47    2.69
  -3  10  -3   20.07    2.68
  -3  10  -3   18.38    2.37
   3 -10   3   16.63    2.36
  -3   9  -3   71.74    4.30
   3  -9   3   72.82    4.19
  -3   9  -3   76.34    4.17
   3  -8   3   22.04    2.23
  -3   8  -3   23.06    2.47
  -3   8  -3   21.13    2.17
   3  -7   3  183.14    6.85
  -3   7  -3  174.10    6.86
  -3   7  -3  173.83    6.73
  -3   6  -3   46.62    2.75
   3  -6   3   49.77    2.85
  -3   6  -3   45.05    2.84
  -3   5  -3   74.12    3.56
   3  -5   3   74.43    3.12
  -3   5  -3   80.98    3.13
  -3   5  -3   75.03    3.60
   3  -5   3   76.18    3.49
   3  -4   3   15.20    1.21
   3  -4   3   17.37    1.49
  -3   4  -3   17.51    1.38
  -3   4  -3   18.68    1.55
  -3   4  -3   16.86    1.46
  -3   3  -3   15.12    1.48
  -3   3  -3   15.32    1.33
  -3   3  -3   13.40    1.34
  -3   3  -3   16.19    1.34
  -3   2  -3 1446.68   39.15
  -3   2  -3 1400.13   37.04
  -3   2  -3 1390.98   38.66
  -3   2  -3 1428.90   38.71
  -3   1  -3  523.43   16.00
   3  -1   3  551.30   15.87
  -3   1  -3  559.44   16.10
   3  -1   3  548.04   14.81
  -3   0  -3   58.38    2.93
  -3   0  -3   49.08    2.62
   3   0   3   49.09    2.57
   3   0   3   53.28    1.97
   3   1   3   11.57    1.34
  -3  -1  -3   14.75    1.67
  -3  -1  -3   14.69    1.49
  -3  -2  -3   34.34    2.31
  -3  -2  -3   32.40    2.17
   3   2   3   24.67    1.91
   3   3   3    1.78    0.75
  -3  -3  -3    1.83    0.89
  -3  -3  -3    1.82    0.78
  -3  -4  -3   11.03    1.68
   3   4   3   10.90    1.68
  -3  -4  -3    9.30    1.54
  -3  -5  -3   85.30    4.40
   3   5   3   83.24    4.40
  -3  -5  -3   80.02    4.14
  -3  -6  -3   67.00    3.85
  -3  -6  -3   68.75    4.19
   3   6   3   71.23    4.27
   3   7   3   64.03    4.38
  -3  -7  -3   72.57    4.50
   3   8   3    1.61    1.29
  -3  -8  -3    2.82    1.39
   3 -11   4   -0.73    0.77
  -3  11  -4    0.59    1.02
  -3  10  -4    4.31    1.36
   3 -10   4    2.08    1.15
  -3   9  -4   39.71    2.99
   3  -9   4   30.82    2.62
  -3   8  -4   50.13    3.27
   3  -8   4   50.67    3.16
  -3   7  -4   73.83    4.03
  -3   7  -4   78.36    4.05
   3  -7   4   75.70    3.78
  -3   6  -4  521.29   15.96
  -3   6  -4  525.00   15.73
   3  -6   4  516.54   15.77
  -3   5  -4  104.58    3.98
   3  -5   4   92.33    4.07
  -3   5  -4  107.42    4.49
  -3   5  -4  100.66    4.44
   3  -5   4  101.77    3.73
  -3   4  -4   79.20    3.74
   3  -4   4   80.45    3.08
  -3   4  -4   81.05    3.46
   3  -4   4   81.78    3.50
  -3   3  -4   14.48    1.58
   3  -3   4   13.54    1.32
  -3   3  -4   12.95    1.41
  -3   3  -4   12.56    1.26
   3  -2   4  295.64    8.92
  -3   2  -4  305.15    9.34
  -3   2  -4  294.14    9.68
  -3   2  -4  300.50    9.64
   3  -1   4   98.01    3.49
   3  -1   4  101.02    4.17
  -3   1  -4   93.27    4.20
  -3   1  -4   99.70    3.96
  -3   0  -4   28.76    1.87
  -3   0  -4   22.45    1.92
   3   0   4   28.49    1.94
   3   1   4   66.58    3.36
  -3  -1  -4   81.62    3.51
  -3  -1  -4   67.80    3.54
  -3  -2  -4   27.90    2.22
   3   2   4   31.08    2.17
  -3  -2  -4   28.18    2.06
   3   3   4   66.05    3.60
  -3  -3  -4   62.40    3.58
  -3  -3  -4   72.06    3.66
  -3  -4  -4   72.65    3.84
  -3  -4  -4   59.33    3.61
   3   4   4   71.48    3.85
   3   5   4   13.44    2.03
  -3  -5  -4   13.99    1.95
  -3  -5  -4   15.21    2.02
  -3  -6  -4   69.46    3.86
  -3  -6  -4   57.00    3.86
   3   6   4   62.45    4.06
   3   7   4   26.43    3.05
  -3  -7  -4   18.17    2.59
   3   8   4   23.09    3.14
  -3  -8  -4   22.42    3.04
   3 -11   5   11.83    2.22
  -3  11  -5   15.10    2.55
   3 -10   5   12.66    2.26
  -3  10  -5   15.87    2.36
   3  -9   5    3.61    1.25
  -3   9  -5    2.52    1.11
   3  -8   5   26.29    2.65
  -3   8  -5   33.59    2.76
  -3   7  -5  317.71   10.90
   3  -7   5  303.64   10.67
   3  -6   5  103.01    4.77
  -3   6  -5  104.52    4.86
   3  -5   5   39.55    2.58
  -3   5  -5   41.70    2.70
  -3   5  -5   42.83    2.41
   3  -4   5   11.29    1.18
   3  -4   5    9.08    1.29
  -3   4  -5    8.54    1.38
   3  -4   5   12.75    1.13
  -3   4  -5    9.29    1.27
  -3   3  -5  207.19    7.60
   3  -3   5  200.92    7.02
  -3   3  -5  230.81    6.99
  -3   3  -5  210.70    7.36
  -3   2  -5  275.09    8.52
  -3   2  -5  265.26    9.03
   3  -2   5  271.79    8.34
  -3   2  -5  269.00    9.19
  -3   1  -5   59.32    2.65
   3  -1   5   50.44    2.32
  -3   1  -5   45.66    2.83
   3  -1   5   45.49    2.77
  -3   0  -5   18.68    1.96
  -3   0  -5   22.86    1.69
   3   0   5   24.00    1.92
  -3  -1  -5   30.15    2.00
   3   1   5   26.42    2.07
  -3  -1  -5   24.37    2.13
  -3  -2  -5  191.75    7.28
  -3  -2  -5  190.44    6.85
   3   2   5  178.43    6.95
  -3  -3  -5  102.39    4.81
   3   3   5  100.48    4.71
  -3  -3  -5   90.14    4.40
   3   4   5   31.29    2.56
  -3  -4  -5   32.50    2.51
  -3  -4  -5   29.41    2.54
  -3  -5  -5   36.08    2.79
  -3  -5  -5   30.27    2.66
   3   5   5   34.71    2.89
   3   6   5  153.73    6.96
  -3  -6  -5  140.55    6.62
  -3  -6  -5  149.51    6.51
  -3  -7  -5   24.24    2.87
   3   7   5   21.86    2.92
  -3  10  -6   13.69    2.36
   3 -10   6    8.10    1.95
  -3   9  -6   17.89    2.52
   3  -9   6   11.36    2.08
  -3   8  -6    5.05    1.38
   3  -8   6    6.44    1.55
   3  -7   6  190.40    7.60
  -3   7  -6  182.08    7.60
   3  -6   6  180.29    7.09
  -3   6  -6  176.36    7.18
   3  -5   6   98.19    4.55
  -3   5  -6   98.28    4.27
  -3   5  -6  100.65    4.77
  -3   4  -6   63.99    3.63
  -3   4  -6   65.57    3.38
   3  -4   6   72.70    3.49
  -3   3  -6   40.18    2.72
   3  -3   6   38.89    2.34
  -3   3  -6   34.97    2.44
  -3   2  -6  148.89    5.85
   3  -2   6  140.06    5.11
   3  -2   6  132.68    5.76
   3  -1   6   13.08    1.72
  -3   1  -6   13.64    1.81
   3  -1   6   15.65    1.32
   3   0   6   20.59    2.09
  -3   0  -6   20.02    2.15
   3   1   6  251.00    8.83
  -3  -1  -6  230.90    8.83
  -3  -1  -6  252.09    8.25
   3   2   6   88.15    4.35
  -3  -2  -6   84.96    4.02
  -3  -2  -6   93.90    4.64
  -3  -3  -6   63.61    3.40
   3   3   6   56.49    3.54
  -3  -3  -6   53.06    3.53
   3   4   6   60.97    3.82
  -3  -4  -6   62.76    3.63
  -3  -4  -6   62.41    3.88
  -3  -5  -6   35.28    2.95
   3   5   6   34.85    3.02
  -3  -5  -6   35.35    2.80
  -3  -6  -6    3.59    1.25
   3   6   6    3.38    1.31
  -3  -6  -6    5.36    1.50
   3   7   6    2.09    1.43
  -3  -7  -6    1.48    1.23
   3 -10   7   11.44    2.16
  -3  10  -7   15.93    2.60
  -3   9  -7   32.50    3.30
   3  -9   7   21.40    2.78
   3  -8   7   51.44    3.64
  -3   8  -7   44.37    3.50
   3  -7   7  178.10    7.38
  -3   7  -7  171.32    7.43
  -3   6  -7  125.45    5.90
   3  -6   7  132.57    5.84
  -3   5  -7   18.03    1.89
  -3   5  -7   17.84    2.20
   3  -5   7   18.22    2.06
  -3   4  -7   25.64    2.20
   3  -4   7   25.05    2.05
  -3   4  -7   23.91    2.46
   3  -3   7   18.30    1.79
  -3   3  -7   18.78    2.06
  -3   3  -7   19.97    2.30
   3  -2   7   55.47    3.40
  -3   2  -7   59.97    3.51
   3  -2   7   57.82    2.98
  -3   1  -7    1.46    0.95
   3  -1   7    1.46    0.87
   3   0   7   27.31    2.37
  -3   0  -7   29.05    2.54
   3   1   7  276.69    9.74
  -3  -1  -7  256.83    9.75
   3   2   7  190.90    7.52
  -3  -2  -7  184.13    7.68
   3   3   7    5.10    1.35
  -3  -3  -7    7.20    1.66
  -3  -4  -7   32.29    2.89
   3   4   7   36.50    3.01
  -3  -5  -7   24.46    2.76
   3   5   7   22.25    2.73
   3   6   7    3.77    1.59
  -3  -6  -7    2.13    1.37
   3  -9   8   14.43    2.43
  -3   9  -8   12.85    2.38
   3  -8   8    0.84    0.92
  -3   8  -8    1.45    0.97
  -3   7  -8   79.24    4.73
   3  -7   8   90.98    4.86
   3  -6   8   30.15    2.58
  -3   6  -8   26.60    2.83
  -3   5  -8    0.47    0.74
   3  -5   8    1.61    0.81
  -3   5  -8    1.84    0.96
   3  -4   8   21.29    2.17
  -3   4  -8   20.94    2.44
  -3   4  -8   20.00    2.21
   3  -3   8    7.80    1.31
  -3   3  -8    5.31    1.43
  -3   3  -8    7.33    1.48
   3  -2   8    7.84    1.59
  -3   2  -8    6.58    1.50
   3  -2   8    7.34    1.17
  -3   1  -8   61.04    3.86
   3  -1   8   63.84    3.82
  -3   0  -8  256.70    9.80
   3   0   8  260.19    9.64
  -3  -1  -8  156.43    7.08
   3   1   8  163.20    6.95
  -3  -2  -8   10.45    2.05
   3   2   8   13.88    2.09
  -3  -3  -8   24.61    2.85
   3   3   8   21.19    2.62
  -3  -4  -8    3.40    1.33
   3   4   8    3.84    1.43
  -3  -5  -8    8.28    1.94
   3   5   8    6.51    1.80
   3  -8   9    5.05    1.52
  -3   8  -9    1.56    1.34
  -3   7  -9   46.16    3.64
   3  -7   9   47.72    3.58
   3  -6   9   19.36    2.47
  -3   6  -9   14.63    2.30
   3  -5   9    9.90    1.71
  -3   5  -9    8.77    1.73
  -3   5  -9   10.69    2.00
  -3   4  -9    9.18    1.80
   3  -4   9    9.94    1.64
  -3   4  -9    7.25    1.57
   3  -3   9    1.35    0.72
  -3   3  -9    0.41    0.90
   3  -2   9    3.59    1.19
  -3   2  -9    1.82    1.14
  -3   1  -9  101.40    5.41
   3  -1   9   99.86    5.22
   3   0   9   17.79    2.31
  -3   0  -9   14.79    2.36
   3   1   9    7.47    1.70
  -3  -1  -9   10.36    2.13
  -3  -2  -9   47.27    3.74
   3   2   9   45.87    3.48
  -3  -3  -9    4.94    1.71
   3   3   9    6.92    1.74
  -3  -4  -9   18.80    2.85
   3   4   9   20.15    2.86
   3  -7  10   45.74    3.58
  -3   7 -10   42.76    3.62
  -3   6 -10   10.76    2.09
   3  -6  10   13.79    2.22
   3  -5  10   66.46    4.06
  -3   5 -10   67.61    4.46
  -3   4 -10   38.41    3.17
  -3   4 -10   35.62    3.21
   3  -4  10   36.31    2.76
   3  -3  10   11.07    1.98
  -3   3 -10   19.26    2.53
  -3   2 -10    2.43    1.27
   3  -2  10    2.02    1.10
  -3   1 -10   75.57    4.81
   3  -1  10   77.40    4.69
   3   0  10  258.09   10.22
  -3   0 -10  262.56   10.54
   3   1  10   38.15    3.34
  -3  -1 -10   40.05    3.53
   3   2  10    2.17    1.25
  -3  -2 -10    2.42    1.45
   3   3  10    9.52    2.05
  -3  -3 -10   10.54    2.25
  -3   5 -11    3.28    1.35
   3  -5  11    8.00    1.73
  -3   4 -11   66.50    4.40
   3  -4  11   68.51    4.09
   3  -3  11   66.43    4.45
  -3   3 -11   59.10    4.28
  -3   2 -11   32.43    3.39
   3  -2  11   28.60    3.09
   3  -1  11   24.13    2.95
  -3   1 -11   27.37    3.25
   3   0  11   76.45    4.83
  -3   0 -11   66.43    4.80
   3   1  11    6.79    1.89
  -3  -1 -11    9.57    2.27
  -4   4  10   27.86    2.99
   4  -4 -10   24.62    3.15
   4  -3 -10   10.17    2.23
  -4   3  10   13.50    2.20
   4  -2 -10    5.97    1.75
  -4   2  10    6.82    1.67
   4  -1 -10   37.22    3.65
  -4   1  10   44.65    3.40
   4   0 -10    4.51    1.68
  -4   0  10    5.72    1.51
  -4  -1  10    5.76    1.52
   4   1 -10    6.76    1.87
  -4  -2  10    0.64    0.98
   4   2 -10    1.69    1.38
  -4  -3  10   30.59    3.19
   4   3 -10   32.20    3.50
  -4   6   9   19.66    2.61
  -4   5   9   21.53    2.65
   4  -5  -9   27.52    3.08
   4  -4  -9   20.41    2.73
  -4   4   9   18.78    2.43
   4  -3  -9   63.93    4.33
  -4   3   9   68.27    4.08
   4  -2  -9    0.45    1.12
  -4   2   9    0.68    0.75
  -4   1   9    2.97    1.17
   4  -1  -9    4.23    1.49
  -4   0   9   16.67    2.26
   4   0  -9   17.64    2.52
   4   1  -9   32.69    3.28
  -4  -1   9   33.58    2.75
   4   2  -9   54.49    4.00
  -4  -2   9   54.86    3.63
  -4  -3   9   33.49    2.89
   4   3  -9   31.07    3.26
   4   4  -9   27.53    3.19
  -4  -4   9   29.48    2.97
  -4   7   8    5.71    1.62
   4  -7  -8    7.24    2.01
  -4   6   8   37.88    3.11
   4  -6  -8   46.39    3.60
  -4   5   8   42.22    3.20
   4  -5  -8   51.23    3.65
   4  -5  -8   51.95    3.75
  -4   4   8   74.52    4.22
   4  -4  -8   72.54    4.29
   4  -4  -8   75.48    4.55
   4  -4  -8   75.16    3.86
  -4   3   8   40.91    3.06
   4  -3  -8   48.37    3.31
   4  -3  -8   48.41    3.53
   4  -3  -8   49.92    2.91
  -4   2   8   16.40    2.14
   4  -2  -8   18.39    2.46
   4  -2  -8   20.03    2.00
   4  -2  -8   19.52    2.14
  -4   1   8    6.80    1.50
   4  -1  -8    4.83    1.46
   4   0  -8   71.22    4.47
  -4   0   8   76.87    4.10
   4   1  -8   63.40    4.12
  -4  -1   8   59.86    3.54
   4   2  -8   25.64    2.82
  -4  -2   8   33.14    2.61
   4   3  -8    7.79    1.84
  -4  -3   8    9.69    1.75
   4   4  -8   23.74    2.78
  -4  -4   8   18.18    2.32
   4   5  -8   16.53    2.48
  -4   8   7   17.41    2.46
   4  -8  -7   21.45    3.02
   4  -7  -7   36.65    3.34
  -4   7   7   33.24    3.21
   4  -6  -7   10.32    2.11
  -4   6   7   10.88    1.86
  -4   5   7   13.69    2.01
   4  -5  -7   16.44    2.30
   4  -5  -7   16.79    2.27
   4  -4  -7   34.24    2.89
   4  -4  -7   35.39    2.85
   4  -4  -7   39.69    2.62
  -4   4   7   36.93    2.77
   4  -3  -7   62.00    3.82
   4  -3  -7   63.38    3.41
  -4   3   7   64.58    3.68
   4  -3  -7   74.50    4.19
  -4   2   7    8.90    1.53
   4  -2  -7    7.42    1.82
  -4   2   7   10.59    1.60
  -4   1   7   55.88    3.31
  -4   1   7   64.07    3.46
   4  -1  -7   59.49    3.85
  -4   0   7   35.69    2.58
   4   0  -7   40.61    3.15
  -4   0   7   36.15    2.58
  -4  -1   7  118.26    5.06
  -4  -1   7  109.70    5.00
   4   1  -7  114.15    5.56
  -4  -2   7   35.30    2.54
  -4  -2   7   27.47    2.28
   4   2  -7   22.08    2.54
  -4  -3   7   11.27    1.71
  -4  -3   7   12.82    1.89
   4   3  -7    9.85    1.92
   4   4  -7   25.58    2.81
   4   5  -7   72.62    4.46
   4  -9  -6   12.08    2.46
  -4   9   6   15.10    2.41
  -4   8   6   28.42    3.01
   4  -8  -6   25.25    3.23
   4  -7  -6   35.53    3.42
  -4   7   6   36.55    3.03
  -4   6   6   38.48    2.95
   4  -6  -6   37.49    3.19
  -4   5   6   45.15    3.07
   4  -5  -6   41.18    3.18
   4  -5  -6   43.70    3.08
   4  -5  -6   49.93    3.07
   4  -4  -6   57.43    3.12
   4  -4  -6   53.04    3.48
   4  -4  -6   52.71    3.46
  -4   4   6   51.07    3.18
   4  -3  -6  780.84   23.02
  -4   3   6  764.81   22.09
   4  -2  -6  403.58   13.33
  -4   2   6  401.75   13.12
  -4   2   6  411.26   12.65
   4  -1  -6   25.52    2.48
  -4   1   6   26.30    2.16
  -4   1   6   27.31    2.13
  -4   0   6   62.58    3.31
  -4   0   6   64.69    3.46
   4   0  -6   59.56    3.65
  -4  -1   6  112.49    4.98
   4   1  -6  111.44    5.28
  -4  -1   6  101.11    4.56
  -4  -2   6   91.42    4.53
   4   2  -6   89.89    4.69
  -4  -2   6   87.70    4.13
   4   3  -6   51.78    3.44
  -4  -3   6   47.06    2.88
  -4  -3   6   48.76    3.20
   4   4  -6  124.76    5.99
  -4  -4   6  140.98    6.18
  -4  -5   6   53.56    3.61
   4   5  -6   47.60    3.50
  -4  -6   6   50.85    3.64
   4  -9  -5    4.79    1.92
  -4   9   5    2.65    1.32
  -4   8   5    1.32    1.05
   4  -8  -5    1.41    1.40
   4  -7  -5  154.11    7.22
  -4   7   5  154.98    6.70
   4  -6  -5  113.82    5.64
  -4   6   5   99.13    4.97
   4  -5  -5   25.89    2.31
  -4   5   5   23.70    2.34
   4  -5  -5   21.69    2.24
   4  -5  -5   21.95    2.42
   4  -4  -5   17.52    2.06
   4  -4  -5   18.32    2.16
   4  -4  -5   17.79    1.98
  -4   4   5   19.12    2.05
   4  -3  -5   99.51    4.78
  -4   3   5  109.67    4.95
  -4   3   5  106.28    4.62
  -4   2   5  260.07    8.67
  -4   2   5  257.02    9.17
   4  -2  -5  259.44    9.12
  -4   1   5    5.09    1.18
  -4   1   5    4.27    1.03
   4  -1  -5    7.45    1.48
  -4   0   5   72.37    3.73
   4   0  -5   71.17    3.95
  -4   0   5   74.72    3.48
  -4  -1   5   11.73    1.48
  -4  -1   5   11.29    1.67
   4   1  -5   12.69    1.88
  -4  -2   5  106.17    4.88
  -4  -2   5   98.78    4.18
   4   2  -5   97.36    4.96
  -4  -3   5  125.35    5.62
   4   3  -5  115.77    5.62
  -4  -4   5    8.37    1.58
   4   4  -5    8.29    1.74
   4   5  -5   98.86    5.21
  -4  -5   5  104.85    5.36
   4   6  -5    0.89    1.14
  -4  -6   5    4.04    1.25
  -4  -7   5   17.20    2.52
   4 -10  -4   -0.23    1.37
  -4  10   4    1.56    1.18
   4  -9  -4   36.90    3.77
  -4   9   4   32.01    3.24
   4  -8  -4    2.57    1.41
  -4   8   4    3.02    1.27
   4  -7  -4   75.38    4.67
  -4   7   4   84.70    4.49
   4  -6  -4    0.88    0.91
  -4   6   4    1.01    0.88
   4  -5  -4    3.66    1.26
   4  -5  -4    2.22    0.99
  -4   5   4    3.24    1.00
   4  -5  -4    2.80    1.07
  -4   4   4   20.77    2.08
   4  -4  -4   21.32    2.03
   4  -4  -4   22.33    2.11
   4  -4  -4   19.99    2.23
  -4   3   4  276.81    9.56
   4  -3  -4  262.75    9.15
  -4   3   4  271.95    8.90
  -4   2   4  191.93    7.52
  -4   2   4  211.99    7.07
   4  -2  -4  206.34    7.55
   4  -1  -4   60.31    3.44
  -4   1   4   61.77    3.02
  -4   1   4   62.95    3.38
  -4   0   4   12.35    1.40
   4   0  -4   12.09    1.73
  -4   0   4   16.80    1.83
  -4  -1   4  103.96    4.82
   4   1  -4  102.01    4.81
  -4  -1   4  103.70    4.12
  -4  -2   4  120.71    5.41
  -4  -2   4  124.93    4.59
   4   2  -4  111.82    5.25
  -4  -3   4  165.88    6.98
   4   3  -4  172.24    6.89
   4   4  -4  131.83    5.89
  -4  -4   4  131.75    6.07
   4   5  -4   66.17    3.96
  -4  -5   4   67.72    4.04
  -4  -6   4   21.99    2.71
   4   6  -4   23.33    2.60
  -4  -7   4   14.47    2.39
  -4  10   3    5.44    1.59
   4 -10  -3    1.94    1.45
   4  -9  -3    8.64    2.19
  -4   9   3    8.44    1.80
  -4   8   3   40.85    3.08
   4  -8  -3   33.86    3.38
  -4   7   3  112.32    5.28
   4  -7  -3  111.19    5.73
   4  -6  -3   51.10    3.48
   4  -6  -3   45.57    2.96
  -4   6   3   49.76    3.09
   4  -5  -3    9.21    1.37
   4  -5  -3    8.97    1.48
  -4   5   3    7.30    1.39
   4  -5  -3    8.91    1.65
  -4   4   3   26.41    2.00
   4  -4  -3   21.90    1.92
  -4   4   3   21.20    2.14
  -4   3   3   65.25    3.22
   4  -3  -3   63.84    3.33
  -4   3   3   67.36    3.60
  -4   2   3   20.95    1.89
   4  -2  -3   21.39    1.88
  -4   2   3   17.20    1.65
   4  -1  -3  139.23    5.67
  -4   1   3  147.70    5.16
  -4   1   3  139.18    5.69
  -4   0   3  196.74    7.54
  -4   0   3  206.06    6.63
   4   0  -3  208.99    7.54
  -4  -1   3   43.75    2.84
  -4  -1   3   40.87    2.19
   4   1  -3   46.32    2.97
  -4  -2   3   46.75    3.00
   4   2  -3   38.98    2.82
   4   3  -3    6.84    1.51
  -4  -3   3    4.64    1.18
   4   4  -3   68.34    4.02
  -4  -4   3   80.60    4.30
   4   5  -3   11.85    1.93
  -4  -5   3   13.10    2.00
   4   6  -3    4.55    1.49
   4   6  -3    5.22    1.45
  -4  -6   3    5.06    1.48
   4   7  -3   12.41    2.05
  -4  -7   3   10.53    2.04
   4 -10  -2    5.44    1.62
  -4  10   2    6.93    1.79
  -4   9   2   12.97    2.13
   4  -9  -2   15.69    2.50
  -4   8   2  111.39    5.44
   4  -8  -2  111.26    5.76
   4  -7  -2   18.20    2.33
  -4   7   2   21.28    2.32
   4  -6  -2   12.61    1.89
  -4   6   2   11.89    1.71
   4  -6  -2   13.83    1.87
   4  -5  -2    5.28    1.29
   4  -5  -2    8.17    1.28
  -4   5   2    5.30    1.15
   4  -5  -2    5.15    1.16
  -4   4   2   57.38    3.32
   4  -4  -2   59.09    3.00
  -4   4   2   59.54    3.08
  -4   3   2   63.04    3.35
   4  -3  -2   54.51    2.94
  -4   3   2   49.57    2.73
   4  -2  -2   81.51    3.79
  -4   2   2   83.90    3.49
  -4   2   2   74.60    3.84
   4  -1  -2   40.94    2.59
  -4   1   2   45.22    2.24
  -4   1   2   40.94    2.62
  -4   0   2   46.97    2.80
   4   0  -2   36.74    2.57
  -4   0   2   43.42    2.13
  -4  -1   2  133.70    5.82
  -4  -1   2  144.36    4.82
   4   1  -2  149.52    5.85
  -4  -2   2   37.85    2.73
   4   2  -2   39.97    2.73
   4   3  -2   38.15    2.43
  -4  -3   2   31.34    2.56
   4   3  -2   35.97    2.66
   4   4  -2   47.68    2.95
  -4  -4   2   45.81    3.18
   4   4  -2   52.12    3.35
   4   5  -2   45.65    3.08
  -4  -5   2   43.22    3.25
   4   5  -2   43.19    3.15
   4   6  -2   11.90    1.94
  -4  -6   2    8.32    1.74
   4   6  -2    9.21    1.88
  -4  -7   2   15.11    2.36
   4   7  -2   15.15    2.36
  -4  10   1   26.82    3.09
   4 -10  -1   27.78    3.24
   4  -9  -1   22.64    2.86
  -4   9   1   25.39    2.82
   4  -8  -1   85.10    4.82
  -4   8   1   87.61    4.63
  -4   7   1   72.86    3.96
   4  -7  -1   75.67    4.34
   4  -6  -1   19.92    2.20
   4  -6  -1   19.13    2.09
  -4   6   1   19.40    2.04
   4  -5  -1  113.03    4.49
   4  -5  -1  111.51    5.31
  -4   5   1  116.13    4.84
   4  -5  -1  123.42    4.87
   4  -4  -1   25.25    1.86
  -4   4   1   24.74    1.87
  -4   4   1   21.58    1.95
  -4   3   1   46.93    2.83
   4  -3  -1   42.44    2.49
  -4   3   1   44.42    2.43
   4  -2  -1    6.13    1.14
  -4   2   1    5.63    0.98
  -4   2   1    6.25    1.21
   4  -1  -1  545.22   16.53
  -4   1   1  541.82   16.92
  -4   1   1  573.66   15.39
  -4   0   1  134.18    4.47
  -4   0   1  125.60    5.44
   4   0  -1  135.08    5.44
   4   1  -1   51.64    2.43
  -4  -1   1   46.42    2.91
   4   1  -1   39.90    2.75
   4   2  -1   41.96    2.83
  -4  -2   1   38.64    2.74
   4   2  -1   41.15    2.42
  -4  -3   1   51.83    3.29
   4   3  -1   58.02    3.43
   4   3  -1   52.66    3.03
  -4  -4   1  101.58    5.09
   4   4  -1   91.62    4.70
   4   4  -1   96.55    4.58
   4   5  -1   35.55    2.73
   4   5  -1   31.00    2.69
  -4  -5   1   30.82    2.75
  -4  -6   1   55.45    3.81
   4   6  -1   49.87    3.55
   4   6  -1   56.63    3.64
  -4  -7   1   -0.08    0.83
   4   7  -1    2.20    1.25
  -4  11   0    8.24    2.04
   4 -11   0   15.93    2.68
  -4  10   0   87.57    5.05
   4 -10   0   81.72    5.04
   4  -9   0   19.12    2.58
  -4   9   0   19.59    2.57
  -4   8   0    2.68    1.12
   4  -8   0    2.90    1.13
   4  -7   0    5.76    1.42
  -4   7   0    5.48    1.31
   4  -6   0   28.85    2.13
  -4   6   0   25.56    2.14
   4  -6   0   28.19    2.39
   4  -5   0   25.60    2.18
   4  -5   0   24.51    2.18
  -4   5   0   23.94    1.92
   4  -5   0   26.00    1.81
  -4   4   0    6.14    1.10
   4  -4   0    6.84    1.06
  -4   4   0    5.00    1.10
  -4   3   0   36.97    2.51
  -4   3   0   41.01    2.27
   4  -3   0   38.25    2.34
  -4   2   0   45.72    2.77
   4  -2   0   44.36    2.65
  -4   2   0   46.17    2.31
   4  -2   0   49.45    2.07
   4  -1   0   99.24    3.57
  -4   1   0   98.81    3.63
  -4   1   0   96.73    4.42
   4  -1   0   97.65    4.39
   4   0   0  117.19    4.11
  -4   0   0  111.33    3.76
  -4   0   0  108.31    4.81
   4   0   0  100.07    4.69
   4   1   0   68.60    3.65
   4   1   0   68.67    3.10
  -4  -1   0   69.19    3.75
   4   2   0   69.21    3.71
  -4  -2   0   58.91    3.56
   4   2   0   65.10    3.16
   4   3   0  143.35    6.20
  -4  -3   0  149.70    6.36
   4   3   0  146.30    5.82
  -4  -4   0   86.48    4.80
   4   4   0   90.72    4.47
   4   4   0   85.14    4.57
   4   5   0   21.14    2.40
   4   5   0   17.50    2.18
  -4  -5   0   20.09    2.49
   4   6   0   28.95    2.95
   4   6   0   25.32    2.65
  -4  -6   0   21.73    2.76
   4   7   0    4.00    1.57
  -4  -7   0    4.00    1.39
  -4  11  -1   35.57    3.72
   4 -11   1   41.41    3.68
  -4  10  -1   47.78    3.64
   4 -10   1   43.40    3.57
   4  -9   1   64.46    4.10
  -4   9  -1   53.01    3.73
  -4   8  -1  113.32    5.41
   4  -8   1  115.96    5.62
   4  -7   1   85.90    4.49
  -4   7  -1   80.37    4.26
   4  -6   1    6.72    1.30
   4  -6   1    7.35    1.42
  -4   6  -1    9.74    1.28
  -4   6  -1    8.60    1.50
  -4   5  -1   39.46    2.18
  -4   5  -1   35.65    2.38
   4  -5   1   37.89    2.64
   4  -5   1   34.85    2.12
   4  -5   1   36.72    2.33
  -4   4  -1  186.18    6.65
  -4   4  -1  201.19    6.46
  -4   4  -1  190.24    7.12
   4  -4   1  191.15    6.74
   4  -3   1   55.63    2.95
  -4   3  -1   62.96    2.87
  -4   3  -1   57.56    3.18
   4  -3   1   57.41    2.58
  -4   2  -1  103.67    3.90
  -4   2  -1   97.58    4.44
   4  -2   1  106.40    3.89
   4  -2   1  112.39    4.55
   4  -1   1  748.66   21.10
  -4   1  -1  766.52   20.30
  -4   1  -1  753.81   22.36
  -4   0  -1  244.68    8.50
   4   0   1  233.80    7.67
   4   1   1    2.49    0.94
  -4  -1  -1    3.24    1.06
   4   1   1    3.59    0.87
   4   2   1  160.65    6.25
   4   2   1  130.86    5.49
  -4  -2  -1  153.40    6.26
   4   3   1  121.12    5.19
   4   3   1  124.87    5.56
  -4  -3  -1  127.54    5.76
   4   4   1   39.69    2.79
  -4  -4  -1   39.68    3.03
   4   4   1   33.27    2.71
   4   5   1   22.38    2.38
   4   5   1   22.46    2.54
  -4  -5  -1   23.76    2.68
   4   6   1   13.62    2.09
   4   6   1   11.23    2.15
  -4  -6  -1   16.35    2.48
  -4  -7  -1   15.62    2.61
   4   7   1   19.03    2.77
   4 -11   2   10.29    2.08
  -4  11  -2   10.14    2.13
  -4  10  -2   75.90    4.74
   4 -10   2   78.76    4.79
  -4   9  -2  170.27    7.54
   4  -9   2  178.22    7.65
  -4   8  -2   27.78    2.30
  -4   8  -2   28.44    2.76
   4  -8   2   27.72    2.68
  -4   7  -2   51.96    3.03
   4  -7   2   52.11    3.31
  -4   7  -2   55.10    3.37
  -4   6  -2   76.54    3.62
   4  -6   2   75.09    3.53
  -4   6  -2   76.98    3.92
   4  -6   2   73.44    3.89
  -4   5  -2   79.80    3.87
   4  -5   2   87.08    4.20
   4  -5   2   80.61    3.62
  -4   5  -2   85.79    3.76
   4  -5   2   84.02    3.64
  -4   4  -2   72.85    3.57
  -4   4  -2   66.73    3.25
   4  -4   2   68.54    3.26
  -4   4  -2   67.91    3.20
  -4   3  -2  213.01    6.78
  -4   3  -2  190.90    7.27
  -4   2  -2   81.73    3.80
   4  -2   2   73.04    3.28
  -4   2  -2   79.18    3.75
  -4   2  -2   84.77    3.29
  -4   1  -2  287.23    8.22
  -4   1  -2  284.78    9.47
   4  -1   2  277.68    8.83
  -4   1  -2  266.64    9.47
   4   0   2  117.84    4.49
  -4   0  -2  113.14    5.01
  -4   0  -2  113.01    4.94
  -4  -1  -2   23.26    2.08
   4   1   2   22.19    1.74
  -4  -1  -2   20.46    2.08
  -4  -2  -2    8.95    1.55
  -4  -2  -2    8.68    1.51
   4   2   2    5.92    1.20
  -4  -3  -2   20.01    2.30
   4   3   2   21.85    2.11
  -4  -3  -2   22.31    2.42
  -4  -4  -2   57.50    3.72
   4   4   2   62.89    3.65
  -4  -5  -2   86.97    4.94
   4   5   2   99.10    5.03
   4   5   2   92.00    4.75
   4   6   2   13.83    2.01
  -4  -6  -2   17.73    2.63
   4   6   2   16.05    2.46
  -4  -7  -2   21.52    3.01
   4   7   2   27.49    3.32
  -4  10  -3    3.02    1.34
   4 -10   3    4.20    1.49
  -4  10  -3    3.17    1.21
  -4   9  -3   15.30    2.31
   4  -9   3   18.66    2.36
  -4   9  -3   17.90    2.25
  -4   8  -3   17.26    2.06
  -4   8  -3   14.88    2.20
   4  -8   3   14.89    2.01
   4  -7   3  168.51    6.81
  -4   7  -3  160.12    6.78
  -4   7  -3  173.16    6.70
  -4   6  -3   27.78    2.31
   4  -6   3   28.28    2.02
  -4   6  -3   27.05    2.14
   4  -6   3   30.64    2.26
  -4   5  -3   20.86    2.01
   4  -5   3   22.33    1.93
   4  -5   3   21.12    1.68
  -4   5  -3   19.66    1.76
  -4   4  -3   24.53    1.87
  -4   4  -3   21.36    1.85
  -4   4  -3   15.55    1.67
  -4   4  -3   19.26    1.68
  -4   3  -3   47.65    2.88
  -4   3  -3   57.40    3.08
  -4   3  -3   58.72    2.80
  -4   2  -3   36.69    2.45
  -4   2  -3   36.65    2.40
  -4   2  -3   37.86    2.02
   4  -2   3   37.97    2.26
  -4   1  -3  164.26    6.24
  -4   1  -3  150.08    6.07
   4  -1   3  156.09    5.74
  -4   0  -3  101.18    4.51
   4   0   3   95.67    4.15
  -4   0  -3   96.05    4.55
   4   1   3   41.94    2.58
  -4  -1  -3   41.01    2.85
  -4  -1  -3   45.94    2.87
   4   2   3   14.34    1.76
  -4  -2  -3   11.71    1.82
  -4  -2  -3   11.72    1.75
   4   3   3   32.56    2.53
  -4  -3  -3   32.22    2.68
  -4  -3  -3   38.28    2.89
  -4  -4  -3   27.67    2.54
   4   4   3   30.93    2.60
  -4  -4  -3   31.00    2.69
  -4  -5  -3   36.20    2.96
   4   5   3   30.83    2.81
  -4  -5  -3   35.77    3.05
  -4  -6  -3  129.41    6.53
   4   6   3  122.66    5.97
   4   6   3  138.86    6.65
   4   7   3   15.94    2.73
  -4  -7  -3   17.53    2.82
  -4  10  -4   13.16    2.27
  -4   9  -4   35.96    2.92
  -4   9  -4   29.00    3.13
  -4   8  -4   12.25    2.07
  -4   8  -4    7.15    1.49
   4  -8   4    6.57    1.42
  -4   7  -4   87.70    4.52
   4  -7   4   88.80    4.32
  -4   7  -4   81.10    4.27
  -4   6  -4   90.47    4.37
   4  -6   4   90.06    3.80
  -4   6  -4   87.82    4.36
   4  -6   4   85.13    4.13
  -4   5  -4  123.00    5.22
   4  -5   4  132.30    4.76
  -4   5  -4  126.56    5.06
  -4   5  -4  130.49    5.42
  -4   4  -4   92.37    4.09
  -4   4  -4   92.17    4.12
  -4   4  -4   90.26    4.02
  -4   4  -4   89.52    4.26
  -4   3  -4  209.78    7.48
  -4   2  -4  209.31    7.69
  -4   2  -4  217.00    7.52
   4  -2   4  215.98    7.57
  -4   1  -4    7.03    1.38
   4  -1   4    7.19    1.23
  -4   1  -4    8.36    1.35
  -4   0  -4   10.62    1.51
  -4   0  -4    9.21    1.58
   4   0   4    8.43    1.37
  -4  -1  -4   50.83    3.03
  -4  -1  -4   47.14    3.11
   4   1   4   43.56    2.76
  -4  -2  -4  133.85    5.68
   4   2   4  130.31    5.55
  -4  -2  -4  124.46    5.77
  -4  -3  -4    3.57    1.18
   4   3   4    4.19    1.19
  -4  -3  -4    3.58    1.22
  -4  -4  -4   14.72    2.17
  -4  -4  -4   18.19    2.30
   4   4   4   14.16    2.06
  -4  -5  -4   37.08    3.14
  -4  -5  -4   39.05    3.23
   4   5   4   41.34    3.25
   4   6   4  226.13    9.39
  -4  -6  -4  239.15    9.55
  -4  -6  -4  210.46    8.88
  -4  10  -5    1.77    1.11
   4 -10   5    1.63    1.10
  -4   9  -5    1.48    1.07
   4  -9   5    0.83    0.75
   4  -8   5   36.99    2.92
  -4   8  -5   31.48    2.74
   4  -7   5   23.38    2.42
  -4   7  -5   29.28    2.47
  -4   6  -5   98.43    4.80
   4  -5   5    8.53    1.39
  -4   5  -5   14.63    1.89
  -4   5  -5    9.66    1.45
  -4   4  -5   12.36    1.63
  -4   4  -5   12.06    1.77
   4  -4   5   13.25    1.51
  -4   4  -5   13.29    1.54
   4  -3   5   18.91    1.96
   4  -3   5   17.54    1.53
  -4   3  -5   19.37    2.00
  -4   3  -5   18.18    1.78
  -4   2  -5    4.92    1.19
  -4   2  -5    5.06    1.11
   4  -2   5    4.91    1.13
  -4   1  -5   18.90    1.87
   4  -1   5   18.20    1.94
  -4   1  -5   19.65    2.14
  -4   0  -5    8.70    1.61
   4   0   5    5.77    1.26
  -4   0  -5    6.02    1.24
  -4  -1  -5   16.37    2.20
   4   1   5   21.50    2.12
  -4  -1  -5   19.71    2.03
  -4  -2  -5    6.42    1.51
  -4  -2  -5    2.85    1.02
   4   2   5    4.44    1.21
  -4  -3  -5    7.09    1.57
   4   3   5   13.33    2.00
  -4  -3  -5    6.69    1.46
  -4  -4  -5    0.58    1.02
   4   4   5    1.92    1.07
  -4  -4  -5    2.18    1.14
  -4  -5  -5   33.74    2.98
  -4  -5  -5   34.99    3.06
   4   5   5   33.71    3.26
   4   6   5    1.24    1.26
  -4  -6  -5    5.30    1.76
  -4  -6  -5    1.81    1.38
  -4   9  -6   18.40    2.58
   4  -9   6   15.04    2.35
   4  -8   6   23.49    2.71
  -4   8  -6   29.85    2.96
   4  -7   6  150.59    6.69
  -4   7  -6  156.53    6.81
  -4   6  -6   81.80    4.39
   4  -6   6   70.72    4.00
  -4   5  -6   19.59    1.99
   4  -5   6   16.01    1.89
  -4   5  -6   20.96    2.32
  -4   4  -6   16.48    2.14
   4  -4   6   17.29    1.81
  -4   4  -6   15.47    1.87
  -4   3  -6   95.45    4.65
   4  -3   6  106.03    4.92
  -4   2  -6    8.35    1.59
   4  -2   6    7.96    1.49
  -4   1  -6    0.15    0.82
   4  -1   6    1.14    0.83
   4   0   6    4.57    1.23
  -4   0  -6    3.16    1.20
   4   1   6  179.35    7.19
  -4  -1  -6  168.64    7.27
  -4  -2  -6   51.90    3.64
   4   2   6   49.02    3.37
  -4  -2  -6   54.61    3.32
   4   3   6   13.91    2.13
  -4  -3  -6   16.50    2.12
  -4  -3  -6   17.35    2.42
  -4  -4  -6    8.02    1.84
   4   4   6   12.09    2.03
  -4  -4  -6    8.37    1.77
  -4  -5  -6   91.28    5.00
   4   5   6   89.86    5.21
  -4  -5  -6   85.02    5.09
  -4   9  -7    0.15    1.02
   4  -9   7    2.01    1.05
   4  -8   7   23.26    2.79
  -4   8  -7   26.07    2.98
  -4   7  -7  148.47    6.85
   4  -7   7  155.90    6.82
   4  -6   7  119.19    5.50
  -4   6  -7  114.88    5.74
   4  -5   7    6.54    1.40
  -4   5  -7    3.64    1.24
  -4   5  -7    5.56    1.40
  -4   4  -7   -0.38    0.68
   4  -4   7    1.13    0.68
  -4   4  -7    1.22    0.96
  -4   3  -7    7.87    1.62
   4  -3   7    7.13    1.48
  -4   2  -7   44.55    3.14
   4  -2   7   45.14    3.15
   4  -1   7   17.65    2.22
  -4   1  -7   21.07    2.46
   4   0   7   22.91    2.48
  -4   0  -7   19.69    2.50
   4   1   7   18.83    2.33
  -4  -1  -7   18.78    2.47
  -4  -2  -7   29.90    3.05
   4   2   7   35.23    2.89
  -4  -3  -7    0.11    1.05
   4   3   7   -0.63    0.83
  -4  -4  -7   14.07    2.42
   4   4   7   18.10    2.59
  -4   8  -8   51.10    3.91
   4  -8   8   52.31    3.84
   4  -7   8   18.96    2.50
  -4   7  -8   23.93    2.87
  -4   6  -8   13.42    2.17
   4  -6   8   13.08    2.00
  -4   5  -8   63.03    4.19
   4  -5   8   67.55    3.83
  -4   4  -8   16.03    2.16
  -4   4  -8   15.17    2.34
   4  -3   8   19.32    2.42
  -4   3  -8   27.44    2.70
  -4   2  -8   13.61    2.12
   4  -2   8   11.85    1.96
   4  -1   8  141.32    6.45
  -4   1  -8  129.04    6.32
  -4   0  -8   57.01    4.04
   4   0   8   75.67    4.34
   4   1   8   24.27    2.76
  -4  -1  -8   21.80    2.80
  -4  -2  -8   14.80    2.42
   4   2   8   19.21    2.54
   4   3   8    1.25    1.06
  -4  -3  -8    2.05    1.40
  -4  -4  -8   11.95    2.34
   4   4   8   14.51    2.37
  -4   7  -9  240.01   10.00
   4  -7   9  227.41    9.28
   4  -6   9   43.22    3.29
  -4   6  -9   49.38    3.80
   4  -5   9   59.36    3.66
  -4   5  -9   47.89    3.80
   4  -4   9    9.48    1.87
  -4   4  -9   11.30    2.04
  -4   3  -9   46.61    3.51
   4  -3   9   45.63    3.54
   4  -2   9    9.87    1.92
  -4   2  -9   11.54    2.15
   4  -1   9   39.27    3.23
  -4   1  -9   39.24    3.38
  -4   0  -9   58.48    4.24
   4   0   9   61.48    4.15
  -4  -1  -9   28.81    3.25
   4   1   9   33.38    3.30
  -4  -2  -9   12.16    2.43
   4   2   9   13.77    2.38
  -4   5 -10    2.26    1.21
  -4   4 -10   14.60    2.40
   4  -4  10   14.39    2.32
   4  -3  10   29.28    3.09
  -4   3 -10   27.37    3.12
   4  -2  10   65.09    4.45
  -4   2 -10   76.11    4.85
  -4   1 -10   16.23    2.67
   4  -1  10   15.58    2.47
   4   0  10   63.85    4.45
  -4   0 -10   66.53    4.66
   5  -3  -9   13.22    2.43
  -5   3   9   13.31    2.20
   5  -2  -9    3.74    1.56
  -5   2   9    3.86    1.33
  -5   1   9   17.34    2.39
   5  -1  -9   14.60    2.48
   5   0  -9    3.46    1.53
  -5   0   9    3.53    1.38
   5   1  -9    1.99    1.45
  -5  -1   9    6.79    1.63
   5  -5  -8    7.94    1.97
  -5   5   8   10.44    1.90
   5  -5  -8    6.07    1.80
   5  -4  -8   26.66    2.98
  -5   4   8   29.79    2.98
   5  -4  -8   20.92    2.43
   5  -4  -8   25.88    2.86
   5  -3  -8   23.05    2.45
  -5   3   8   19.08    2.44
   5  -3  -8   18.99    2.65
   5  -3  -8   24.24    2.73
   5  -2  -8   49.63    3.90
  -5   2   8   54.26    3.58
  -5   2   8   54.20    3.54
   5  -1  -8   23.70    2.86
  -5   1   8   26.99    2.70
   5   0  -8   12.23    2.21
  -5   0   8   18.24    2.27
  -5  -1   8   52.78    3.47
   5   1  -8   55.61    4.15
   5   2  -8   36.66    3.57
  -5  -2   8   41.25    2.98
   5   3  -8   19.53    2.82
  -5   6   7   24.02    2.86
   5  -6  -7   20.25    2.80
   5  -5  -7    4.95    1.38
  -5   5   7    2.98    1.33
   5  -5  -7    4.18    1.51
   5  -5  -7    4.29    1.48
  -5   4   7    5.86    1.47
   5  -4  -7    2.69    1.32
   5  -4  -7    5.61    1.43
   5  -4  -7    5.46    1.66
  -5   3   7   77.47    4.24
   5  -3  -7   76.70    4.58
   5  -2  -7  114.15    5.82
  -5   2   7  112.98    5.42
  -5   2   7  100.92    5.00
  -5   1   7   30.56    2.64
   5  -1  -7   33.82    2.97
  -5   1   7   32.46    2.54
  -5   0   7    7.23    1.45
  -5   0   7    6.83    1.49
   5   0  -7    6.55    1.73
   5   1  -7   20.30    2.68
  -5  -1   7   30.49    2.41
  -5  -1   7   28.96    2.56
  -5  -2   7   20.35    2.43
   5   2  -7   19.84    2.65
   5   3  -7   30.23    3.21
  -5  -3   7   36.19    3.07
   5   4  -7   34.32    3.47
  -5   7   6   -0.04    0.99
   5  -7  -6    1.03    1.34
   5  -6  -6    7.27    1.77
   5  -6  -6    8.97    1.80
  -5   6   6    9.93    2.00
   5  -5  -6    6.40    1.67
   5  -5  -6    4.13    1.26
   5  -5  -6    7.40    1.74
  -5   5   6    5.20    1.43
  -5   4   6   23.16    2.46
   5  -4  -6   24.66    2.77
   5  -4  -6   20.60    2.52
   5  -4  -6   24.13    2.50
  -5   3   6    4.21    1.21
  -5   3   6    5.14    1.31
   5  -3  -6    5.28    1.44
   5  -2  -6    3.80    1.35
  -5   2   6    4.46    1.23
  -5   2   6    4.32    1.18
  -5   1   6   11.44    1.73
  -5   1   6   10.75    1.75
   5  -1  -6    9.28    1.81
  -5   0   6   20.16    2.07
   5   0  -6   16.48    2.28
  -5   0   6   18.04    2.22
  -5  -1   6    3.88    1.10
   5   1  -6    2.75    1.31
  -5  -1   6    4.23    1.23
  -5  -2   6   47.64    3.38
   5   2  -6   40.82    3.37
  -5  -3   6   18.46    2.44
   5   3  -6   17.28    2.50
   5   4  -6   26.08    3.02
  -5  -4   6   27.75    3.02
  -5   8   5    3.81    1.52
   5  -8  -5    2.76    1.57
   5  -7  -5    0.66    1.24
  -5   7   5    0.29    0.90
  -5   6   5   18.72    2.45
   5  -6  -5   15.52    2.38
   5  -6  -5   13.66    2.07
   5  -5  -5   10.64    1.82
  -5   5   5   10.59    1.81
   5  -5  -5   11.01    2.02
   5  -5  -5   10.83    1.87
   5  -4  -5   11.13    1.91
  -5   4   5   10.23    1.73
  -5   3   5   85.34    4.59
  -5   3   5   89.25    4.28
   5  -3  -5   85.37    4.53
  -5   2   5   31.62    2.34
   5  -2  -5   30.44    2.67
  -5   2   5   29.90    2.56
  -5   1   5   35.66    2.43
   5  -1  -5   36.04    2.95
  -5   1   5   37.37    2.85
  -5   0   5   40.73    2.95
  -5   0   5   37.22    2.48
   5   0  -5   37.43    3.06
   5   1  -5   13.16    2.14
  -5  -1   5   16.63    2.23
  -5  -2   5   31.57    2.74
   5   2  -5   29.28    2.97
   5   3  -5   43.62    3.46
  -5  -3   5   50.18    3.56
  -5  -4   5   22.45    2.77
   5   4  -5   17.14    2.55
  -5  -5   5  142.39    6.92
   5   5  -5  121.31    6.50
   5  -9  -4   13.23    2.71
  -5   9   4   12.40    2.28
  -5   8   4   30.51    3.19
   5  -8  -4   35.06    3.68
   5  -7  -4    6.60    1.87
  -5   7   4    8.37    1.86
  -5   6   4   29.36    2.80
   5  -6  -4   26.19    2.74
   5  -6  -4   31.93    3.15
   5  -5  -4   16.09    2.03
   5  -5  -4   18.56    2.47
  -5   5   4   21.49    2.37
   5  -5  -4   20.30    2.37
  -5   4   4   77.50    4.06
   5  -4  -4   78.98    4.17
  -5   4   4   84.51    4.54
   5  -3  -4   12.15    1.86
  -5   3   4   10.71    1.81
  -5   3   4    8.95    1.57
  -5   2   4    7.76    1.34
   5  -2  -4    8.53    1.66
  -5   2   4    7.76    1.62
  -5   1   4   54.89    3.48
  -5   1   4   60.12    3.08
   5  -1  -4   55.77    3.53
  -5   0   4   29.87    2.57
  -5   0   4   32.84    2.15
   5   0  -4   33.95    2.78
  -5  -1   4   21.56    2.52
   5   1  -4   22.61    2.48
  -5  -2   4    4.14    1.12
   5   2  -4    3.67    1.37
  -5  -3   4   31.31    2.77
   5   3  -4   25.61    2.80
   5   4  -4   41.61    3.34
  -5  -4   4   38.50    3.29
   5   5  -4   40.02    3.45
  -5  -5   4   44.26    3.58
  -5   9   3   17.63    2.63
   5  -9  -3   16.11    2.88
  -5   8   3  106.04    5.60
   5  -8  -3  106.67    6.12
   5  -7  -3   16.49    2.52
  -5   7   3   19.77    2.46
  -5   6   3   15.08    2.11
   5  -6  -3   15.40    2.15
   5  -6  -3   17.21    2.44
   5  -5  -3   25.51    2.37
  -5   5   3   26.26    2.28
   5  -5  -3   26.32    2.77
   5  -5  -3   21.66    2.36
  -5   4   3  245.83    9.44
  -5   4   3  254.85    8.80
   5  -4  -3  246.95    8.89
  -5   3   3  148.28    5.70
  -5   3   3  144.76    6.37
   5  -3  -3  138.30    5.98
   5  -2  -3   37.15    2.75
  -5   2   3   30.34    2.22
  -5   2   3   35.03    2.76
   5  -1  -3   47.40    3.25
  -5   1   3   44.18    3.09
  -5   1   3   49.37    2.64
   5   0  -3   10.30    1.84
  -5   0   3    8.64    1.63
  -5  -1   3   14.84    2.13
   5   1  -3    7.31    1.67
   5   2  -3   60.24    3.87
  -5  -2   3   59.83    3.83
   5   3  -3   12.78    2.15
  -5  -3   3   16.53    2.38
  -5  -4   3   -0.14    0.81
   5   4  -3    0.62    1.09
  -5  -5   3   49.20    3.77
   5   5  -3   49.12    3.81
  -5  -6   3   13.43    2.30
   5   6  -3   12.58    2.38
   5  -9  -2    6.29    1.77
  -5   9   2    7.09    1.85
  -5   8   2   81.83    4.73
   5  -8  -2   80.49    5.03
   5  -7  -2  113.22    5.84
   5  -7  -2  104.21    5.14
  -5   7   2  108.48    5.38
  -5   6   2    4.91    1.29
   5  -6  -2    6.73    1.44
   5  -6  -2    5.77    1.51
   5  -5  -2   50.56    3.07
  -5   5   2   54.43    3.25
  -5   4   2   51.89    3.38
  -5   4   2   52.76    3.06
   5  -4  -2   47.12    3.00
   5  -3  -2  255.33    9.04
  -5   3   2  254.99    8.52
  -5   3   2  250.32    9.44
  -5   2   2   23.05    1.84
  -5   2   2   25.79    2.31
   5  -2  -2   19.79    2.20
  -5   1   2   38.77    2.35
   5  -1  -2   42.80    3.04
  -5   1   2   47.22    3.09
  -5   0   2   18.45    2.26
   5   0  -2   12.50    1.92
  -5  -1   2   49.29    3.33
   5   1  -2   43.45    3.23
  -5  -2   2  102.63    5.38
   5   2  -2  109.65    5.43
   5   3  -2    5.88    1.66
  -5  -3   2   11.66    2.01
  -5  -4   2    1.77    1.14
   5   4  -2    4.10    1.49
   5   5  -2    0.57    1.23
  -5  -5   2    2.25    1.16
  -5  -6   2    7.88    1.79
   5   6  -2    9.94    2.15
   5 -10  -1   44.72    3.85
  -5  10   1   37.88    3.78
  -5   9   1    7.56    1.88
   5  -9  -1   10.61    2.04
   5  -8  -1   67.47    4.44
  -5   8   1   68.21    4.23
  -5   7   1   25.93    2.64
   5  -7  -1   23.31    2.69
   5  -7  -1   25.35    2.67
   5  -6  -1    2.24    0.98
  -5   6   1    2.69    1.09
   5  -6  -1    3.00    1.14
  -5   5   1    6.80    1.47
   5  -5  -1    4.07    1.11
  -5   5   1    6.85    1.35
   5  -4  -1   57.24    3.37
  -5   4   1   62.38    3.72
  -5   4   1   68.38    3.43
  -5   3   1   44.88    3.15
  -5   3   1   46.14    2.70
   5  -3  -1   46.19    2.97
  -5   2   1  147.35    5.58
  -5   2   1  156.54    6.56
   5  -2  -1  163.72    6.43
   5  -1  -1   55.45    3.36
  -5   1   1   50.36    3.34
   5   0  -1  112.24    5.25
  -5   0   1  102.66    5.25
  -5  -1   1   57.09    3.71
   5   1  -1   60.68    3.76
  -5  -2   1   13.88    2.08
   5   2  -1   17.00    2.24
   5   3  -1   56.15    3.82
  -5  -3   1   62.17    4.03
   5   4  -1   15.52    2.29
  -5  -4   1   12.11    2.11
   5   5  -1    3.87    1.49
  -5  -5   1    4.01    1.30
   5   6  -1    1.38    1.30
  -5  -6   1    2.12    1.18
  -5  10   0   30.22    3.35
   5 -10   0   23.39    3.15
  -5   9   0   39.17    3.39
   5  -9   0   52.54    3.89
   5  -8   0  216.65    9.18
  -5   8   0  228.66    8.88
   5  -7   0   28.11    2.84
  -5   7   0   29.13    2.78
   5  -7   0   28.10    2.71
  -5   6   0    5.39    1.33
   5  -6   0    7.79    1.49
   5  -6   0    3.96    1.20
  -5   5   0   20.39    2.29
  -5   5   0   21.04    2.09
   5  -5   0   17.92    1.89
  -5   4   0   12.25    1.92
   5  -4   0   12.86    1.66
  -5   4   0    9.92    1.50
  -5   3   0    5.28    1.09
  -5   3   0    4.32    1.30
   5  -3   0    5.76    1.34
   5  -2   0  298.92   10.16
  -5   2   0  288.16    9.03
  -5   2   0  277.23   10.15
   5  -1   0  371.77   12.41
  -5   1   0  367.49   12.58
   5   0   0   46.42    3.21
  -5   0   0   42.89    3.15
  -5  -1   0   13.91    2.10
   5   1   0   15.34    2.11
  -5  -2   0   25.11    2.79
   5   2   0   23.86    2.57
   5   3   0  110.44    5.68
  -5  -3   0  119.55    5.96
  -5  -4   0    2.93    1.37
   5   4   0    0.84    1.08
  -5  -5   0    2.79    1.37
   5   5   0    2.17    1.28
  -5  -6   0    7.18    2.06
   5   6   0    4.80    1.67
   5 -10   1   34.80    3.60
  -5  10  -1   40.28    3.47
  -5   9  -1   78.14    4.80
   5  -9   1   87.20    5.10
   5  -8   1   25.29    2.78
  -5   8  -1   22.77    2.65
   5  -7   1   28.63    2.71
   5  -7   1   33.37    2.80
  -5   7  -1   33.66    2.72
   5  -6   1   38.08    2.70
  -5   6  -1   42.48    2.94
   5  -6   1   46.80    3.24
  -5   5  -1   17.88    2.17
  -5   5  -1   16.32    1.91
   5  -5   1   14.72    1.74
  -5   4  -1   41.56    2.97
   5  -4   1   44.92    2.86
  -5   4  -1   42.87    2.69
   5  -3   1  125.22    5.58
  -5   3  -1  136.16    5.90
  -5   3  -1  124.93    5.00
  -5   2  -1  263.21    9.84
   5  -2   1  296.09   10.03
  -5   1  -1   62.36    3.63
   5  -1   1   51.45    3.40
  -5   0  -1   37.05    2.91
   5   0   1   39.10    2.91
  -5  -1  -1    9.24    1.79
   5   1   1    8.48    1.73
  -5  -2  -1   23.77    2.70
   5   2   1   24.45    2.58
   5   3   1    3.18    1.21
   5   3   1    8.45    1.55
  -5  -3  -1    2.90    1.29
  -5  -4  -1   43.86    3.53
   5   4   1   43.29    3.42
   5   4   1   45.11    3.26
   5   5   1   10.49    2.08
   5   5   1   11.17    2.14
  -5  -5  -1   14.68    2.43
  -5  -6  -1   -1.03    1.09
   5   6   1    0.08    1.13
   5   6   1    0.42    1.21
   5 -10   2    3.30    1.36
  -5  10  -2    1.07    1.14
   5  -9   2    0.73    1.04
  -5   9  -2    0.31    1.08
  -5   8  -2   11.54    2.00
   5  -8   2    9.51    1.82
   5  -7   2   62.39    3.82
  -5   7  -2   53.76    3.54
   5  -7   2   57.67    3.36
  -5   6  -2  106.66    5.09
   5  -6   2  112.08    4.87
   5  -6   2  118.91    5.52
   5  -5   2   47.66    3.00
  -5   5  -2   49.63    3.02
  -5   5  -2   43.92    3.07
   5  -4   2  213.65    7.92
  -5   4  -2  224.02    8.34
  -5   4  -2  206.25    7.46
  -5   3  -2   62.87    3.72
   5  -3   2   61.18    3.56
  -5   2  -2  558.21   17.44
   5  -1   2  170.41    7.24
  -5   1  -2  200.03    7.56
  -5   0  -2  120.57    5.61
   5   0   2  120.50    5.58
   5   0   2  112.46    4.77
  -5  -1  -2   12.53    1.98
   5   1   2   12.70    1.88
   5   1   2   15.12    1.69
   5   2   2   53.44    3.20
  -5  -2  -2   55.04    3.72
   5   2   2   44.07    3.32
   5   3   2   38.94    3.18
   5   3   2   49.02    3.23
  -5  -3  -2   56.78    3.84
   5   4   2   39.18    3.08
   5   4   2   35.39    3.07
  -5  -4  -2   37.96    3.25
   5   5   2   43.33    3.51
   5   5   2   54.05    3.84
  -5  -5  -2   49.17    3.91
   5  -9   3   32.20    2.86
  -5   9  -3   27.12    3.05
   5  -8   3   26.37    2.75
  -5   8  -3   26.70    2.86
  -5   7  -3    3.63    1.22
   5  -7   3    5.84    1.37
   5  -7   3    5.84    1.35
   5  -6   3  229.76    7.76
  -5   6  -3  235.07    8.51
   5  -6   3  217.70    8.60
  -5   5  -3  174.92    7.04
  -5   5  -3  174.56    6.75
   5  -4   3    4.62    1.16
  -5   4  -3    3.78    1.01
  -5   4  -3    4.19    1.19
  -5   3  -3   27.26    2.40
   5  -3   3   27.81    2.02
  -5   2  -3  224.38    8.64
  -5   2  -3  248.17    8.67
   5  -2   3  223.26    7.92
  -5   1  -3  180.90    7.38
  -5   1  -3  180.98    7.28
   5  -1   3  182.88    6.69
  -5   0  -3   58.98    3.63
   5   0   3   59.32    3.19
  -5   0  -3   54.00    3.61
   5   1   3   79.56    4.05
  -5  -1  -3   81.70    4.49
  -5  -1  -3   79.47    4.53
  -5  -2  -3   74.46    4.55
  -5  -2  -3   89.68    4.94
   5   2   3   88.83    4.38
   5   3   3   58.05    3.59
  -5  -3  -3   49.99    3.75
   5   4   3   25.50    2.71
   5   4   3   22.49    2.56
  -5  -4  -3   26.22    2.93
   5   5   3   11.90    2.10
  -5  -5  -3   13.29    2.42
   5   5   3   11.41    2.19
  -5   9  -4    7.02    1.80
  -5   8  -4   19.53    2.56
  -5   7  -4    9.20    1.82
   5  -7   4    8.27    1.60
   5  -6   4   48.75    3.19
   5  -6   4   53.27    2.94
  -5   6  -4   46.25    3.17
  -5   6  -4   49.30    3.18
  -5   5  -4    6.42    1.40
  -5   5  -4    7.14    1.48
  -5   5  -4    5.89    1.31
  -5   4  -4   11.61    1.76
   5  -4   4   12.67    1.64
  -5   4  -4    9.75    1.69
   5  -3   4   10.63    1.54
  -5   3  -4   14.41    1.97
  -5   3  -4   13.06    1.85
   5  -2   4   93.69    4.32
  -5   2  -4   84.79    4.68
  -5   2  -4  100.44    4.65
   5  -1   4   77.65    3.85
  -5   1  -4   69.69    3.96
  -5   1  -4   72.63    4.25
   5   0   4   93.48    4.44
  -5   0  -4   94.12    5.03
  -5   0  -4   95.89    4.84
  -5  -1  -4   53.91    3.51
   5   1   4   48.07    3.16
  -5  -1  -4   51.16    3.67
  -5  -2  -4   18.64    2.41
  -5  -2  -4   17.66    2.49
   5   2   4   12.83    1.91
  -5  -3  -4   10.19    2.01
   5   3   4   11.95    2.03
  -5  -3  -4    6.52    1.75
   5   4   4   23.10    2.73
  -5  -4  -4   28.70    3.03
  -5  -4  -4   24.12    2.98
  -5  -5  -4   61.31    4.44
   5   5   4   66.15    4.43
   5  -9   5    5.71    1.57
   5  -8   5    2.53    1.12
  -5   8  -5    2.22    1.13
   5  -7   5    9.72    1.80
  -5   7  -5    9.62    1.78
   5  -6   5   27.70    2.41
  -5   6  -5   31.71    2.70
  -5   5  -5   23.10    2.35
  -5   5  -5   24.08    2.52
   5  -5   5   19.92    2.04
   5  -4   5   27.31    2.29
  -5   4  -5   25.15    2.48
  -5   3  -5   29.71    2.56
   5  -3   5   31.21    2.44
   5  -2   5   23.48    2.10
  -5   2  -5   23.85    2.49
  -5   2  -5   24.86    2.36
  -5   1  -5    6.14    1.45
   5  -1   5    7.27    1.47
  -5   1  -5    8.27    1.70
  -5   0  -5   23.23    2.62
   5   0   5   25.46    2.26
  -5   0  -5   25.44    2.53
   5   1   5   32.02    2.63
  -5  -1  -5   32.96    2.79
  -5  -1  -5   32.24    3.13
  -5  -2  -5   35.33    3.14
  -5  -2  -5   38.46    3.10
   5   2   5   40.31    3.05
  -5  -3  -5   31.75    2.90
  -5  -3  -5   29.56    3.27
   5   3   5   31.15    2.99
   5   4   5   12.71    2.27
  -5  -4  -5   11.95    2.16
  -5  -4  -5   14.99    2.53
   5  -8   6   10.67    2.00
  -5   8  -6    6.06    1.57
   5  -7   6    3.43    1.18
  -5   7  -6    2.91    1.25
  -5   6  -6    9.16    1.85
   5  -6   6    6.63    1.41
  -5   5  -6   28.94    2.90
   5  -4   6   10.64    1.77
  -5   4  -6   11.93    1.90
   5  -3   6    1.63    0.92
  -5   3  -6    1.58    1.03
   5  -2   6   30.15    2.54
  -5   2  -6   36.12    2.88
   5  -1   6    4.40    1.27
  -5   1  -6    7.48    1.71
  -5   0  -6   21.15    2.64
   5   0   6   20.07    2.35
   5   1   6   48.61    3.36
  -5  -1  -6   44.37    3.55
  -5  -2  -6    0.31    0.98
   5   2   6    1.46    1.06
   5   3   6    1.75    1.26
  -5  -3  -6    2.89    1.45
   5  -7   7   14.42    2.26
  -5   7  -7   15.70    2.41
  -5   6  -7   40.59    3.36
  -5   4  -7   34.62    2.89
   5  -4   7   36.90    3.01
  -5   3  -7   24.28    2.68
   5  -3   7   24.62    2.64
   5  -2   7    2.29    1.10
  -5   2  -7    2.76    1.21
  -5   1  -7   -0.27    1.02
   5  -1   7    1.42    0.99
   5   0   7   21.57    2.56
  -5   0  -7   19.80    2.73
  -5  -1  -7    5.65    1.59
   5   1   7    6.01    1.62
   5   2   7   27.66    3.02
  -5  -2  -7   22.14    2.97
  -5   6  -8   28.64    3.28
   5  -5   8   13.69    2.16
   5  -4   8    1.87    1.08
  -5   4  -8   -0.16    0.94
  -5   3  -8    2.08    1.16
   5  -3   8    1.89    1.07
   5  -2   8    9.06    1.88
  -5   2  -8   12.44    2.22
  -5   1  -8    2.71    1.49
   5  -1   8    1.65    1.07
  -5   0  -8   17.14    2.71
   5   0   8   16.39    2.46
   5   1   8   58.44    3.99
  -5  -1  -8   42.62    3.80
  -5   4  -9    3.55    1.44
   5  -4   9    4.09    1.43
  -5   3  -9   17.92    2.69
   5  -3   9   22.48    2.81
   5  -2   9   27.95    3.05
  -5   2  -9   25.66    3.18
  -6   3   7   66.71    4.30
  -6   3   7   64.10    3.99
   6  -3  -7   63.75    4.48
  -6   2   7   87.14    5.05
   6  -2  -7   92.76    5.37
  -6   2   7   97.38    4.92
   6  -1  -7    3.08    1.41
  -6   1   7    1.40    1.01
  -6   1   7    4.40    1.40
  -6   5   6    4.09    1.46
   6  -5  -6    1.37    1.32
   6  -5  -6    2.64    1.47
   6  -5  -6    2.87    1.21
   6  -4  -6    5.15    1.56
  -6   4   6    7.12    1.66
  -6   3   6   16.56    2.26
  -6   3   6   17.86    2.46
   6  -3  -6   14.68    2.36
  -6   2   6   29.08    2.47
   6  -2  -6   25.15    2.89
  -6   2   6   31.25    3.13
   6  -1  -6    1.31    1.16
  -6   1   6    1.10    1.04
  -6   0   6    6.17    1.53
   6   0  -6    5.87    1.63
   6   1  -6    8.33    2.04
  -6  -1   6    9.10    1.90
   6  -6  -5   17.42    2.77
  -6   6   5   19.87    2.64
   6  -6  -5   22.35    2.75
  -6   5   5    7.97    1.68
   6  -5  -5    4.91    1.59
   6  -5  -5    7.17    1.66
   6  -5  -5    4.74    1.71
  -6   4   5    6.84    1.68
  -6   4   5    4.65    1.33
   6  -4  -5    5.50    1.57
  -6   3   5   44.33    3.11
   6  -3  -5   41.15    3.32
  -6   3   5   46.53    3.47
   6  -2  -5   19.16    2.58
  -6   2   5   17.59    2.48
  -6   2   5   21.73    2.30
  -6   1   5   17.05    2.46
   6  -1  -5   17.61    2.58
   6   0  -5    7.51    1.93
  -6   0   5    6.75    1.53
  -6  -1   5    2.29    1.21
   6   1  -5    2.48    1.49
   6   2  -5    4.44    1.78
  -6  -2   5    4.83    1.46
  -6   7   4    2.30    1.23
   6  -7  -4    3.71    1.58
   6  -7  -4    3.15    1.32
   6  -6  -4    8.26    1.99
   6  -6  -4    6.88    1.65
  -6   6   4   12.25    2.17
   6  -5  -4   24.48    2.77
   6  -5  -4   28.76    2.76
   6  -5  -4   26.31    3.16
  -6   5   4   31.98    2.71
  -6   4   4  105.83    5.56
   6  -4  -4   90.79    5.03
  -6   4   4   91.55    4.77
  -6   3   4   44.85    3.03
   6  -3  -4   44.05    3.45
  -6   3   4   45.01    3.49
  -6   2   4   30.60    3.14
   6  -2  -4   30.44    3.05
   6  -1  -4    4.82    1.55
  -6   1   4    5.63    1.54
   6   0  -4    5.12    1.56
  -6   0   4    6.79    1.72
   6   1  -4   30.44    3.20
  -6  -1   4   34.79    3.09
  -6  -2   4   13.35    2.41
   6   2  -4    9.89    2.10
  -6  -3   4   12.21    2.23
   6   3  -4    7.38    1.97
  -6   7   3   12.36    2.14
   6  -7  -3    9.14    2.14
   6  -7  -3    9.45    1.95
  -6   6   3   17.27    2.32
   6  -6  -3   15.71    2.36
   6  -6  -3   16.69    2.64
   6  -5  -3   41.21    3.16
  -6   5   3   43.61    3.14
   6  -4  -3   36.70    3.00
  -6   4   3   40.85    2.88
  -6   4   3   36.01    3.09
  -6   3   3   18.99    2.55
  -6   3   3   20.87    2.17
   6  -3  -3   19.58    2.49
  -6   2   3   15.93    2.42
   6  -2  -3   17.43    2.37
  -6   1   3   51.87    3.71
   6  -1  -3   52.07    3.79
   6   0  -3   18.09    2.54
  -6   0   3   16.91    2.47
  -6  -1   3   32.76    3.30
   6   1  -3   24.41    2.98
  -6  -2   3   24.33    2.99
   6   2  -3   17.55    2.70
  -6  -3   3   18.80    2.72
   6   3  -3   13.75    2.46
  -6   8   2   11.02    2.14
   6  -8  -2    7.48    1.88
   6  -7  -2    9.66    1.88
   6  -7  -2    9.79    1.97
  -6   7   2   12.36    2.12
   6  -6  -2    1.84    1.11
  -6   6   2    2.61    1.10
   6  -6  -2    1.31    1.05
  -6   5   2   20.86    2.33
  -6   5   2   19.47    2.61
   6  -5  -2   17.96    2.22
  -6   4   2   29.17    2.97
   6  -4  -2   22.39    2.51
  -6   4   2   27.16    2.31
  -6   3   2   54.99    3.80
   6  -3  -2   52.98    3.67
   6  -2  -2   22.50    2.66
  -6   2   2   24.67    2.80
  -6   1   2   30.31    2.72
   6  -1  -2   25.93    2.90
  -6   0   2   78.46    4.71
   6   0  -2   70.64    4.59
  -6  -1   2   10.45    2.09
   6   1  -2   13.27    2.32
   6   2  -2   61.43    4.42
  -6  -2   2   64.77    4.42
  -6  -3   2   53.88    4.11
   6   3  -2   49.75    4.09
   6  -8  -1   83.26    5.29
  -6   8   1   88.10    5.13
   6  -7  -1    5.80    1.55
   6  -7  -1    3.51    1.29
  -6   7   1    4.53    1.41
   6  -6  -1    2.93    1.20
  -6   6   1    3.67    1.27
   6  -6  -1    3.06    1.27
   6  -5  -1   13.17    2.02
  -6   5   1   15.73    2.42
  -6   5   1   13.43    1.98
  -6   4   1    9.03    1.58
   6  -4  -1   10.94    1.91
  -6   4   1   11.64    2.02
   6  -3  -1    1.50    1.16
  -6   3   1    4.17    1.45
  -6   2   1   87.29    5.08
   6  -2  -1  102.93    5.24
  -6   1   1   25.76    2.90
   6  -1  -1   29.16    2.92
   6   0  -1   30.91    3.07
  -6   0   1   36.84    3.16
   6   1  -1    8.11    1.95
  -6  -1   1    7.40    1.91
   6   2  -1   26.33    3.06
  -6  -2   1   27.69    3.22
   6   3  -1   29.74    3.25
  -6  -3   1   28.88    3.36
   6  -8   0    7.36    1.82
   6  -8   0    9.43    2.05
  -6   8   0    7.32    1.80
   6  -7   0   17.38    2.39
  -6   7   0   16.00    2.36
   6  -7   0   20.25    2.72
   6  -6   0   15.71    2.26
  -6   6   0   13.42    2.06
   6  -6   0   10.09    1.95
  -6   5   0   30.98    2.56
  -6   5   0   27.20    2.91
   6  -5   0   31.42    2.71
   6  -4   0   10.51    1.86
  -6   4   0   10.23    2.04
  -6   3   0   15.86    2.34
   6  -3   0   15.18    2.20
  -6   2   0   48.95    3.51
   6  -2   0   42.27    3.34
   6  -1   0   15.19    2.26
  -6   1   0   20.28    2.62
   6   0   0   37.78    3.28
  -6   0   0   49.45    3.64
  -6  -1   0    0.50    0.98
   6   1   0    0.86    1.03
   6   2   0   43.44    3.60
  -6  -2   0   49.06    3.81
  -6  -3   0    7.29    1.99
   6   3   0    3.03    1.48
  -6   8  -1    3.52    1.44
   6  -8   1    2.90    1.41
   6  -8   1    2.98    1.29
   6  -7   1   15.42    2.37
   6  -7   1   13.72    2.18
  -6   7  -1   12.12    2.11
   6  -6   1    3.45    1.22
   6  -6   1    2.13    1.08
  -6   6  -1    4.08    1.25
  -6   5  -1    4.62    1.25
  -6   5  -1    6.50    1.71
   6  -5   1    3.29    1.25
  -6   4  -1   35.62    3.01
   6  -4   1   31.48    2.80
   6  -3   1   48.59    3.52
  -6   3  -1   53.81    3.76
  -6   2  -1  275.98   10.53
   6  -2   1  285.30   10.60
  -6   1  -1   67.93    4.30
   6  -1   1   67.47    4.29
  -6   0  -1    5.84    1.62
   6   0   1    5.56    1.56
   6   1   1    1.13    1.14
  -6  -1  -1    1.73    1.12
  -6  -2  -1   21.00    2.84
   6   2   1   23.01    2.86
   6   3   1   15.58    2.56
  -6  -3  -1   20.77    2.98
   6  -8   2    1.45    1.06
  -6   8  -2    3.02    1.41
  -6   7  -2    2.12    1.12
   6  -7   2    0.67    0.99
   6  -7   2    0.72    1.00
   6  -6   2   50.14    3.72
  -6   6  -2   53.13    3.49
   6  -6   2   50.65    3.33
   6  -5   2   29.94    2.65
  -6   5  -2   34.22    2.95
   6  -4   2   23.50    2.60
  -6   4  -2   23.65    2.69
   6  -3   2   52.66    3.75
  -6   3  -2   55.17    3.81
  -6   2  -2   16.79    2.35
   6  -2   2   11.27    2.07
  -6   1  -2   29.28    2.98
   6  -1   2   30.69    3.02
   6   0   2    9.53    1.95
  -6   0  -2   14.49    2.41
   6   1   2    6.35    1.63
  -6  -1  -2    9.90    2.04
  -6  -2  -2   15.73    2.53
   6   2   2   12.98    2.29
  -6  -3  -2   23.54    3.14
   6   3   2   20.90    2.83
  -6   8  -3   11.80    2.22
   6  -8   3   15.57    2.44
  -6   7  -3   -0.32    0.87
   6  -7   3    1.40    1.00
   6  -7   3    1.85    1.10
   6  -6   3   24.36    2.73
   6  -6   3   24.08    2.58
  -6   5  -3   18.22    2.44
  -6   4  -3    7.22    1.68
   6  -4   3    3.77    1.40
   6  -3   3   24.60    2.67
  -6   3  -3   20.69    2.60
  -6   2  -3   87.78    4.86
   6  -2   3   86.52    4.91
  -6   1  -3   60.17    3.99
   6  -1   3   54.65    3.89
  -6   0  -3   61.51    4.19
   6   0   3   53.20    3.89
   6   1   3   13.85    2.31
  -6  -1  -3   21.24    2.73
  -6  -2  -3   11.32    2.25
   6   2   3   11.95    2.18
   6   3   3   12.13    2.24
  -6   7  -4    6.97    1.71
  -6   5  -4   69.74    4.25
  -6   4  -4   99.81    5.24
   6  -3   4   48.96    3.58
  -6   3  -4   45.69    3.44
   6  -2   4   28.62    2.96
  -6   2  -4   34.77    2.98
  -6   1  -4    5.96    1.62
  -6   0  -4   42.14    3.47
  -6  -1  -4   17.36    2.53
   6   1   4   11.65    2.13
   6   2   4   10.25    1.96
  -6  -2  -4   12.46    2.31
  -6   3  -5   76.16    4.60
  -6   2  -5   63.85    4.24
  -6   1  -5   17.05    2.63
  -6   0  -5    0.40    1.21
  -6  -1  -5   13.74    2.38
  -6  -1  -5   12.75    2.37
   6   1   5   16.28    2.32
  -6   4  -6   33.32    3.22
  -6   3  -6   66.54    4.39
   6  -2   6   46.78    3.33
  -6   2  -6   49.11    3.86
   6  -1   6   79.74    4.50
  -6   1  -6   69.29    4.82
   6   0   6    4.29    1.47
  -6   0  -6    3.11    1.58
   7  -4  -2   29.10    3.21
  -7   4   2   37.66    3.69
  -7   3   2   10.47    2.31
   7  -3  -2   10.61    2.23
   7  -2  -2   21.44    2.96
  -7   2   2   21.75    3.13
  -7   1   2    1.99    1.12
   7  -1  -2    0.60    1.24
  -7   4   1    9.79    2.17
   7  -4  -1    4.80    1.75
   7  -3  -1    3.53    1.59
  -7   3   1    2.43    1.36
  -7   2   1    5.77    1.84
   7  -2  -1    2.92    1.53
  -7   1   1   25.51    3.28
   7  -1  -1   22.61    3.06
  -7   5   0   30.53    3.44
  -7   4   0   17.00    2.69
   7  -4   0   18.08    2.69
  -7   3   0    3.69    1.56
   7  -3   0    5.36    1.72
  -7   2   0    3.97    1.60
   7  -2   0    4.91    1.63
   7  -1   0   15.18    2.53
  -7   1   0   18.43    2.86
  -7   4  -1   24.89    3.10
   7  -4   1   18.79    2.72
  -7   3  -1   27.14    3.26
   7  -3   1   25.62    3.12
   7  -2   1   33.26    3.45
  -7   2  -1   28.53    3.37
  -7   1  -1   77.58    4.97
   7  -1   1   79.00    5.14
  -7   4  -2    6.36    1.84
   7  -4   2    8.71    2.04
   7  -3   2   37.27    3.67
  -7   3  -2   41.69    3.61
  -7   2  -2   49.34    3.96
   7  -2   2   46.55    3.87
   0   0   0    0.00    0.00
;
_shelx_hkl_checksum              61618
loop_
_space_group_symop_operation_xyz
'x, y, z'
loop_
_atom_site_label
_atom_site_type_symbol
_atom_site_fract_x
_atom_site_fract_y
_atom_site_fract_z
_atom_site_U_iso_or_equiv
_atom_site_adp_type
_atom_site_occupancy
_atom_site_site_symmetry_order
_atom_site_calc_flag
_atom_site_refinement_flags_posn
_atom_site_refinement_flags_adp
_atom_site_refinement_flags_occupancy
_atom_site_disorder_assembly
_atom_site_disorder_group
O1 O 0.5409(3) 0.2137(2) 0.22738(18) 0.0285(4) Uani 1 1 d . . . . .
O2 O 0.8215(3) 0.2103(2) 0.08344(18) 0.0271(4) Uani 1 1 d . . . . .
C1 C 0.7477(4) 0.2047(3) 0.1957(3) 0.0212(5) Uani 1 1 d . . . . .
C2 C 0.9250(4) 0.1844(3) 0.3019(2) 0.0216(5) Uani 1 1 d . . . . .
H2 H 1.086297 0.197851 0.262862 0.026 Uiso 1 1 calc R U . . .
C3 C 0.8575(5) 0.0284(3) 0.3397(2) 0.0246(6) Uani 1 1 d . . . . .
C4 C 1.0143(6) -0.0603(3) 0.3167(3) 0.0337(7) Uani 1 1 d . . . . .
H4 H 1.160252 -0.024764 0.275271 0.040 Uiso 1 1 calc R U . . .
C5 C 0.9617(7) -0.2010(4) 0.3532(3) 0.0432(8) Uani 1 1 d . . . . .
H5 H 1.071317 -0.260813 0.335740 0.052 Uiso 1 1 calc R U . . .
C6 C 0.7549(7) -0.2543(4) 0.4138(4) 0.0472(9) Uani 1 1 d . . . . .
H6 H 0.720157 -0.350190 0.439569 0.057 Uiso 1 1 calc R U . . .
C7 C 0.5986(7) -0.1671(6) 0.4367(6) 0.0755(17) Uani 1 1 d . . . . .
H7 H 0.453959 -0.202751 0.479192 0.091 Uiso 1 1 calc R U . . .
C8 C 0.6474(6) -0.0279(5) 0.3991(5) 0.0574(12) Uani 1 1 d . . . . .
H8 H 0.534230 0.029991 0.414386 0.069 Uiso 1 1 calc R U . . .
C9 C 0.9520(5) 0.2982(3) 0.4172(2) 0.0246(6) Uani 1 1 d . . . . .
C10 C 1.1759(6) 0.3887(3) 0.4495(3) 0.0327(6) Uani 1 1 d . . . . .
H10 H 1.308921 0.380191 0.398429 0.039 Uiso 1 1 calc R U . . .
C11 C 1.2087(7) 0.4919(3) 0.5558(3) 0.0433(8) Uani 1 1 d . . . . .
H11 H 1.363320 0.554011 0.576084 0.052 Uiso 1 1 calc R U . . .
C12 C 1.0195(8) 0.5046(4) 0.6316(3) 0.0488(10) Uani 1 1 d . . . . .
H12 H 1.042791 0.573621 0.705401 0.059 Uiso 1 1 calc R U . . .
C13 C 0.7972(8) 0.4168(7) 0.5996(4) 0.0746(16) Uani 1 1 d . . . . .
H13 H 0.664693 0.425422 0.651042 0.090 Uiso 1 1 calc R U . . .
C14 C 0.7637(6) 0.3156(5) 0.4931(4) 0.0575(12) Uani 1 1 d . . . . .
H14 H 0.607148 0.256577 0.471576 0.069 Uiso 1 1 calc R U . . .
N1 N 0.2894(4) 0.2684(2) 0.0168(2) 0.0204(5) Uani 1 1 d . . . . .
C15 C 0.3053(5) 0.1638(3) -0.0980(2) 0.0225(5) Uani 1 1 d . . . . .
H15 H 0.474039 0.186957 -0.127835 0.027 Uiso 1 1 calc R U . . .
C16 C 0.2470(5) 0.0101(3) -0.0578(3) 0.0273(6) Uani 1 1 d . . . . .
H16A H 0.082458 -0.013483 -0.024758 0.033 Uiso 1 1 calc R U . . .
H16B H 0.361014 0.003065 0.012186 0.033 Uiso 1 1 calc R U . . .
C17 C 0.2646(6) -0.0977(3) -0.1725(3) 0.0333(7) Uani 1 1 d . . . . .
H17A H 0.221896 -0.197775 -0.146108 0.040 Uiso 1 1 calc R U . . .
H17B H 0.432389 -0.078139 -0.201067 0.040 Uiso 1 1 calc R U . . .
C18 C 0.0975(7) -0.0865(3) -0.2841(3) 0.0381(7) Uani 1 1 d . . . . .
H18A H 0.118260 -0.154380 -0.358646 0.046 Uiso 1 1 calc R U . . .
H18B H -0.071541 -0.114809 -0.258327 0.046 Uiso 1 1 calc R U . . .
C19 C 0.1520(7) 0.0676(4) -0.3227(3) 0.0414(8) Uani 1 1 d . . . . .
H19A H 0.035692 0.074099 -0.391772 0.050 Uiso 1 1 calc R U . . .
H19B H 0.315165 0.091742 -0.357411 0.050 Uiso 1 1 calc R U . . .
C20 C 0.1375(6) 0.1777(3) -0.2085(3) 0.0326(7) Uani 1 1 d . . . . .
H20A H 0.183436 0.277548 -0.235315 0.039 Uiso 1 1 calc R U . . .
H20B H -0.029678 0.160327 -0.179208 0.039 Uiso 1 1 calc R U . . .
C21 C 0.3519(5) 0.4266(3) -0.0041(3) 0.0224(5) Uani 1 1 d . . . . .
H21 H 0.233662 0.442805 -0.069262 0.027 Uiso 1 1 calc R U . . .
C22 C 0.3281(6) 0.5172(3) 0.1205(3) 0.0351(7) Uani 1 1 d . . . . .
H22A H 0.444057 0.503495 0.186760 0.042 Uiso 1 1 calc R U . . .
H22B H 0.163911 0.484992 0.152481 0.042 Uiso 1 1 calc R U . . .
C23 C 0.3771(7) 0.6781(3) 0.0972(3) 0.0425(8) Uani 1 1 d . . . . .
H23A H 0.249811 0.692568 0.038224 0.051 Uiso 1 1 calc R U . . .
H23B H 0.370939 0.736972 0.179931 0.051 Uiso 1 1 calc R U . . .
C24 C 0.6196(6) 0.7304(3) 0.0397(4) 0.0426(8) Uani 1 1 d . . . . .
H24A H 0.636932 0.831530 0.017917 0.051 Uiso 1 1 calc R U . . .
H24B H 0.748048 0.730726 0.104287 0.051 Uiso 1 1 calc R U . . .
C25 C 0.6493(6) 0.6350(3) -0.0800(4) 0.0416(8) Uani 1 1 d . . . . .
H25A H 0.814981 0.666952 -0.109963 0.050 Uiso 1 1 calc R U . . .
H25B H 0.536689 0.646194 -0.149017 0.050 Uiso 1 1 calc R U . . .
C26 C 0.6013(6) 0.4749(3) -0.0552(4) 0.0431(9) Uani 1 1 d . . . . .
H26A H 0.614624 0.414848 -0.136226 0.052 Uiso 1 1 calc R U . . .
H26B H 0.722446 0.461550 0.008288 0.052 Uiso 1 1 calc R U . . .
H2N H 0.144(6) 0.244(3) 0.040(3) 0.012(7) Uiso 1 1 d . . . . .
H1N H 0.387(5) 0.253(3) 0.085(3) 0.018(7) Uiso 1 1 d . . . . .
loop_
_atom_site_aniso_label
_atom_site_aniso_U_11
_atom_site_aniso_U_22
_atom_site_aniso_U_33
_atom_site_aniso_U_23
_atom_site_aniso_U_13
_atom_site_aniso_U_12
O1 0.0203(9) 0.0458(12) 0.0217(9) 0.0065(8) 0.0019(7) 0.0112(8)
O2 0.0223(9) 0.0402(11) 0.0193(9) 0.0054(8) 0.0009(7) 0.0076(8)
C1 0.0214(12) 0.0192(11) 0.0226(12) 0.0020(9) -0.0020(9) 0.0045(9)
C2 0.0178(12) 0.0279(14) 0.0201(12) 0.0043(10) 0.0020(9) 0.0069(10)
C3 0.0226(13) 0.0301(14) 0.0197(12) 0.0037(10) -0.0068(10) 0.0034(11)
C4 0.0447(17) 0.0335(16) 0.0257(14) 0.0056(12) 0.0098(12) 0.0132(13)
C5 0.067(2) 0.0357(17) 0.0306(16) 0.0034(13) 0.0021(16) 0.0205(16)
C6 0.053(2) 0.0316(16) 0.052(2) 0.0206(15) -0.0234(17) -0.0049(15)
C7 0.0261(18) 0.086(3) 0.124(4) 0.078(3) 0.003(2) 0.0069(18)
C8 0.0252(16) 0.067(2) 0.092(3) 0.054(2) 0.0121(17) 0.0179(16)
C9 0.0266(13) 0.0283(14) 0.0213(13) 0.0033(11) -0.0038(10) 0.0113(11)
C10 0.0390(16) 0.0301(15) 0.0255(14) 0.0085(12) -0.0004(12) -0.0010(12)
C11 0.065(2) 0.0245(15) 0.0331(17) 0.0072(13) -0.0114(15) -0.0051(14)
C12 0.083(3) 0.0412(19) 0.0307(16) -0.0102(14) -0.0172(17) 0.0373(19)
C13 0.052(2) 0.137(5) 0.042(2) -0.039(3) -0.0134(18) 0.055(3)
C14 0.0282(17) 0.101(3) 0.0394(19) -0.025(2) -0.0067(14) 0.0202(18)
N1 0.0173(11) 0.0266(12) 0.0183(11) 0.0064(8) 0.0017(8) 0.0056(9)
C15 0.0246(12) 0.0255(13) 0.0181(12) 0.0034(10) 0.0022(10) 0.0067(10)
C16 0.0311(14) 0.0284(15) 0.0234(13) 0.0051(11) -0.0043(11) 0.0083(11)
C17 0.0425(17) 0.0285(15) 0.0304(15) 0.0029(12) -0.0041(13) 0.0115(13)
C18 0.054(2) 0.0342(16) 0.0254(15) -0.0051(12) -0.0111(14) 0.0141(15)
C19 0.070(2) 0.0380(17) 0.0190(14) 0.0011(12) -0.0066(14) 0.0203(16)
C20 0.0483(17) 0.0317(15) 0.0217(14) 0.0050(11) -0.0054(12) 0.0171(13)
C21 0.0234(13) 0.0230(12) 0.0222(12) 0.0059(10) 0.0012(10) 0.0067(10)
C22 0.0509(18) 0.0301(15) 0.0210(14) 0.0032(11) 0.0035(13) 0.0025(13)
C23 0.071(2) 0.0255(15) 0.0274(15) -0.0030(12) 0.0092(15) 0.0053(15)
C24 0.0444(19) 0.0303(16) 0.0472(19) 0.0137(14) -0.0161(15) -0.0057(13)
C25 0.0349(17) 0.0317(17) 0.062(2) 0.0193(16) 0.0197(16) 0.0095(13)
C26 0.0323(17) 0.0333(17) 0.071(2) 0.0259(16) 0.0248(16) 0.0132(13)
loop_
_atom_type_symbol
_atom_type_description
_atom_type_scat_dispersion_real
_atom_type_scat_dispersion_imag
_atom_type_scat_source
C C 0.0033 0.0016 'International Tables Vol C Tables 4.2.6.8 and 6.1.1.4'
H H 0.0000 0.0000 'International Tables Vol C Tables 4.2.6.8 and 6.1.1.4'
N N 0.0061 0.0033 'International Tables Vol C Tables 4.2.6.8 and 6.1.1.4'
O O 0.0106 0.0060 'International Tables Vol C Tables 4.2.6.8 and 6.1.1.4'
loop_
_geom_angle_atom_site_label_1
_geom_angle_atom_site_label_2
_geom_angle_atom_site_label_3
_geom_angle
_geom_angle_site_symmetry_1
_geom_angle_site_symmetry_3
_geom_angle_publ_flag
O1 C1 O2 124.5(2) . . ?
O1 C1 C2 118.2(2) . . ?
O2 C1 C2 117.3(2) . . ?
C9 C2 C3 112.9(2) . . ?
C9 C2 C1 113.0(2) . . ?
C3 C2 C1 110.4(2) . . ?
C8 C3 C4 117.6(3) . . ?
C8 C3 C2 122.9(3) . . ?
C4 C3 C2 119.4(2) . . ?
C3 C4 C5 120.8(3) . . ?
C6 C5 C4 120.8(3) . . ?
C7 C6 C5 118.6(3) . . ?
C6 C7 C8 121.0(4) . . ?
C7 C8 C3 121.0(3) . . ?
C10 C9 C14 117.6(3) . . ?
C10 C9 C2 119.1(2) . . ?
C14 C9 C2 123.3(3) . . ?
C9 C10 C11 120.8(3) . . ?
C12 C11 C10 120.5(3) . . ?
C11 C12 C13 119.1(3) . . ?
C12 C13 C14 120.5(4) . . ?
C13 C14 C9 121.5(3) . . ?
C21 N1 C15 116.25(19) . . ?
N1 C15 C16 109.0(2) . . ?
N1 C15 C20 111.2(2) . . ?
C16 C15 C20 111.2(2) . . ?
C15 C16 C17 109.9(2) . . ?
C16 C17 C18 111.3(2) . . ?
C19 C18 C17 110.5(3) . . ?
C18 C19 C20 111.5(3) . . ?
C15 C20 C19 110.2(2) . . ?
N1 C21 C26 112.4(2) . . ?
N1 C21 C22 109.7(2) . . ?
C26 C21 C22 110.5(3) . . ?
C21 C22 C23 109.7(2) . . ?
C24 C23 C22 111.9(3) . . ?
C25 C24 C23 111.7(3) . . ?
C24 C25 C26 111.7(3) . . ?
C21 C26 C25 109.7(2) . . ?
loop_
_geom_bond_atom_site_label_1
_geom_bond_atom_site_label_2
_geom_bond_distance
_geom_bond_site_symmetry_2
_geom_bond_publ_flag
O1 C1 1.254(3) . ?
O2 C1 1.252(3) . ?
C1 C2 1.548(3) . ?
C2 C9 1.521(4) . ?
C2 C3 1.530(4) . ?
C3 C8 1.377(4) . ?
C3 C4 1.378(4) . ?
C4 C5 1.389(4) . ?
C5 C6 1.362(5) . ?
C6 C7 1.366(6) . ?
C7 C8 1.380(5) . ?
C9 C10 1.382(4) . ?
C9 C14 1.379(4) . ?
C10 C11 1.390(5) . ?
C11 C12 1.372(6) . ?
C12 C13 1.365(6) . ?
C13 C14 1.381(5) . ?
N1 C21 1.497(3) . ?
N1 C15 1.502(3) . ?
C15 C16 1.518(4) . ?
C15 C20 1.525(4) . ?
C16 C17 1.522(4) . ?
C17 C18 1.524(4) . ?
C18 C19 1.516(4) . ?
C19 C20 1.528(4) . ?
C21 C26 1.514(4) . ?
C21 C22 1.518(4) . ?
C22 C23 1.530(4) . ?
C23 C24 1.512(5) . ?
C24 C25 1.510(5) . ?
C25 C26 1.527(4) . ?
