#------------------------------------------------------------------------------
#$Date: 2020-03-26 04:28:52 +0200 (Thu, 26 Mar 2020) $
#$Revision: 249717 $
#$URL: file:///home/coder/svn-repositories/cod/cif/7/24/01/7240195.cif $
#------------------------------------------------------------------------------
#
# This file is available in the Crystallography Open Database (COD),
# http://www.crystallography.net/
#
# All data on this site have been placed in the public domain by the
# contributors.
#
data_7240195
loop_
_publ_author_name
'Z\"anker, Steffen'
'Scholz, Gudrun'
'Heise, Macel'
'Emmerling, Franziska'
'Kemnitz, Erhard'
_publ_section_title
;
 New 2D networks with direct fluorine-metal bonds: MF(CH3COO) (M: Sr, Ba,
 Pb)
;
_journal_name_full               CrystEngComm
_journal_paper_doi               10.1039/D0CE00287A
_journal_year                    2020
_chemical_formula_moiety         'C4 H6 F1 Ba2 O4'
_chemical_formula_sum            'C4 H6 Ba2 F O4'
_chemical_formula_weight         411.740
_space_group_IT_number           5
_space_group_name_Hall           'C 2y'
_space_group_name_H-M_alt        'C 1 2 1'
_symmetry_cell_setting           monoclinic
_symmetry_space_group_name_Hall  'C 2y'
_symmetry_space_group_name_H-M   'C 1 2 1'
_audit_update_record
;
2019-11-14 deposited with the CCDC.	2020-03-24 downloaded from the CCDC.
;
_cell_angle_alpha                90
_cell_angle_beta                 89.996(3)
_cell_angle_gamma                90
_cell_formula_units_Z            2
_cell_length_a                   6.0948(3)
_cell_length_b                   6.0953(3)
_cell_length_c                   12.9370(6)
_cell_measurement_temperature    298
_cell_volume                     480.60(4)
_diffrn_ambient_temperature      298
_diffrn_measurement_device_type  'insertion device'
_diffrn_radiation_probe          x-ray
_diffrn_radiation_type           'Cu K\a1'
_diffrn_radiation_wavelength     1.5406
_exptl_crystal_density_diffrn    2.845
_pd_char_colour                  white
_pd_meas_2theta_range_max        60
_pd_meas_2theta_range_min        6
_pd_proc_ls_prof_R_factor        0.0150
_pd_proc_ls_prof_wR_expected     0.0081
_pd_proc_ls_prof_wR_factor       0.0299
_refine_ls_goodness_of_fit_all   3.68277
_refine_ls_R_I_factor            0.0414
_refine_ls_shift/su_max          0.0191003723
_cod_data_source_file            d0ce00287a2.cif
_cod_data_source_block           thestructure
_cod_original_sg_symbol_H-M      C121
_cod_original_formula_sum        'C4 H6 F1 Ba2 O4'
_cod_database_code               7240195
loop_
_symmetry_equiv_pos_site_id
_symmetry_equiv_pos_as_xyz
1 'x, y, z '
2 '-x, y, -z '
3 'x+1/2, y+1/2, z '
4 '-x+1/2, y+1/2, -z '
loop_
_atom_site_label
_atom_site_type_symbol
_atom_site_symmetry_multiplicity
_atom_site_fract_x
_atom_site_fract_y
_atom_site_fract_z
_atom_site_occupancy
_atom_site_B_iso_or_equiv
O1 O-2 4 0.082(13) 0.5553 0.227(5) 1 3.00036
C1 C 4 0.22(3) 0.4337 0.271(6) 1 3.00036
O2 O-2 4 0.366(10) 0.3291 0.222(5) 1 3.00036
C2 C 4 0.20(2) 0.4111 0.387(6) 1 3.00036
H1 H 4 0.0555 0.4039 0.4067 1 6.000719
H2 H 4 0.2803 0.2792 0.4067 1 6.000719
H3 H 4 0.2753 0.5351 0.4177 1 6.000719
Ba1 Ba+2 4 0.243(3) 0.916816 0.1227(5) 1 3
F1 F-1 2 0 1.165(15) 0 1 3.00036
loop_
_geom_angle_atom_site_label_1
_geom_angle_atom_site_label_2
_geom_angle_atom_site_label_3
_geom_angle
_geom_angle_site_symmetry_1
_geom_angle_site_symmetry_2
_geom_angle_site_symmetry_3
O2 O1 C1 153(5) 3_455 1_555 1_555
O2 O1 O2 166(4) 1_555 1_555 3_455
O2 O1 C1 29(5) 1_555 1_555 1_555
C2 O1 C1 34(5) 1_555 1_555 1_555
Ba1 O1 O2 114(2) 3_445 1_555 1_555
Ba1 O1 O2 75(3) 3_445 1_555 3_455
Ba1 O1 C1 125(4) 3_445 1_555 1_555
Ba1 O1 Ba1 107(2) 1_555 1_555 3_445
Ba1 O1 O2 102(3) 1_555 1_555 1_555
Ba1 O1 O2 65.1(17) 1_555 1_555 3_455
Ba1 O1 C1 118(7) 1_555 1_555 1_555
O2 C1 O1 122(7) 1_555 1_555 1_555
C2 C1 O2 119(9) 1_555 1_555 1_555
C2 C1 O1 118(10) 1_555 1_555 1_555
H1 C1 C2 26(6) 1_555 1_555 1_555
H1 C1 O2 137(4) 1_555 1_555 1_555
H3 C1 C2 27(3) 1_555 1_555 1_555
H2 C1 C2 27(3) 1_555 1_555 1_555
O1 O2 C1 145(5) 3_545 1_555 1_555
O1 O2 O1 166(4) 1_555 1_555 3_545
O1 O2 C1 29(5) 1_555 1_555 1_555
C2 O2 C1 33(5) 1_555 1_555 1_555
Ba1 O2 H2 132(3) 3_545 1_555 1_555
Ba1 O2 O1 124(2) 3_545 1_555 1_555
Ba1 O2 O1 69(2) 3_545 1_555 3_545
Ba1 O2 C1 138(4) 3_545 1_555 1_555
Ba1 O2 Ba1 100.4(18) 1_545 1_555 3_545
Ba1 O2 O1 110(3) 1_545 1_555 1_555
Ba1 O2 O1 59.8(18) 1_545 1_555 3_545
Ba1 O2 C1 118(6) 1_545 1_555 1_555
H1 O2 Ba1 108.1(15) 1_555 1_555 1_545
H1 O2 Ba1 150.1(18) 1_555 1_555 3_545
H3 C2 H1 111(8) 1_555 1_555 1_555
H2 C2 H3 109(12) 1_555 1_555 1_555
H2 C2 H1 110(7) 1_555 1_555 1_555
C1 C2 H2 109(7) 1_555 1_555 1_555
C1 C2 H3 109(6) 1_555 1_555 1_555
C1 C2 H1 109(11) 1_555 1_555 1_555
O1 C2 C1 28(6) 1_555 1_555 1_555
O1 C2 H2 134(5) 1_555 1_555 1_555
O1 C2 H3 102(4) 1_555 1_555 1_555
O1 C2 H1 88(7) 1_555 1_555 1_555
O2 C2 O1 55(3) 1_555 1_555 1_555
O2 C2 C1 28(5) 1_555 1_555 1_555
O2 C2 H2 82(6) 1_555 1_555 1_555
O2 C2 H3 111(8) 1_555 1_555 1_555
O2 C2 H1 129(7) 1_555 1_555 1_555
H1 C2 O2 166(3) 2_556 1_555 1_555
H1 C2 O1 127(5) 2_556 1_555 1_555
H1 C2 C1 152(10) 2_556 1_555 1_555
H1 C2 H2 90(6) 2_556 1_555 1_555
H1 C2 H3 83(6) 2_556 1_555 1_555
H1 C2 H1 43(4) 2_556 1_555 1_555
H3 H1 C2 35(3) 1_555 1_555 1_555
H2 H1 H3 59.992 1_555 1_555 1_555
H2 H1 C2 35(2) 1_555 1_555 1_555
C1 H1 H2 67(3) 1_555 1_555 1_555
C1 H1 H3 67(3) 1_555 1_555 1_555
C1 H1 C2 44(7) 1_555 1_555 1_555
H1 H1 C1 165(4) 2_556 1_555 1_555
H1 H1 H2 103.646 2_556 1_555 1_555
H1 H1 H3 98.235 2_556 1_555 1_555
H1 H1 C2 122(5) 2_556 1_555 1_555
O1 H1 H1 155.6(10) 1_555 1_555 2_556
O1 H1 C1 30(4) 1_555 1_555 1_555
O1 H1 H2 97.0(16) 1_555 1_555 1_555
O1 H1 H3 80.8(16) 1_555 1_555 1_555
O1 H1 C2 70(5) 1_555 1_555 1_555
H3 H1 O1 112.2(12) 3_445 1_555 1_555
H3 H1 H1 77.791 3_445 1_555 2_556
H3 H1 C1 114(2) 3_445 1_555 1_555
H3 H1 H2 98.194 3_445 1_555 1_555
H3 H1 H3 156.634 3_445 1_555 1_555
H3 H1 C2 129.1(6) 3_445 1_555 1_555
H2 H1 H3 106.505 3_455 1_555 3_445
H2 H1 O1 75.0(12) 3_455 1_555 1_555
H2 H1 H1 80.821 3_455 1_555 2_556
H2 H1 C1 103(2) 3_455 1_555 1_555
H2 H1 H2 155.269 3_455 1_555 1_555
H2 H1 H3 95.392 3_455 1_555 1_555
H2 H1 C2 122.0(10) 3_455 1_555 1_555
O2 H1 H2 118.8(7) 1_555 1_555 3_455
O2 H1 H3 107.0(5) 1_555 1_555 3_445
O2 H1 O1 45.2(17) 1_555 1_555 1_555
O2 H1 H1 155.8(11) 1_555 1_555 2_556
O2 H1 C1 16(2) 1_555 1_555 1_555
O2 H1 H2 52.5(10) 1_555 1_555 1_555
O2 H1 H3 67.7(9) 1_555 1_555 1_555
O2 H1 C2 37(5) 1_555 1_555 1_555
C2 H1 O2 169.1(18) 2_556 1_555 1_555
C2 H1 H2 71.8(12) 2_556 1_555 3_455
C2 H1 H3 70.1(12) 2_556 1_555 3_445
C2 H1 O1 146(2) 2_556 1_555 1_555
C2 H1 H1 15(2) 2_556 1_555 2_556
C2 H1 C1 173.9(7) 2_556 1_555 1_555
C2 H1 H2 116.9(19) 2_556 1_555 1_555
C2 H1 H3 110.5(19) 2_556 1_555 1_555
C2 H1 C2 137(4) 2_556 1_555 1_555
H3 H1 C2 17.7(13) 2_556 1_555 2_556
H3 H1 O2 173.0(5) 2_556 1_555 1_555
H3 H1 H2 54.205 2_556 1_555 3_455
H3 H1 H3 77.190 2_556 1_555 3_445
H3 H1 O1 128.3(14) 2_556 1_555 1_555
H3 H1 H1 29.582 2_556 1_555 2_556
H3 H1 C1 157(2) 2_556 1_555 1_555
H3 H1 H2 133.221 2_556 1_555 1_555
H3 H1 H3 110.683 2_556 1_555 1_555
H3 H1 C2 144(4) 2_556 1_555 1_555
H3 H2 C2 35(6) 1_555 1_555 1_555
H1 H2 H3 59.999 1_555 1_555 1_555
H1 H2 C2 34(8) 1_555 1_555 1_555
C1 H2 H1 67(4) 1_555 1_555 1_555
C1 H2 H3 67.2(10) 1_555 1_555 1_555
C1 H2 C2 45(5) 1_555 1_555 1_555
O2 H2 C1 31(4) 1_555 1_555 1_555
O2 H2 H1 97.2(12) 1_555 1_555 1_555
O2 H2 H3 88.2(2) 1_555 1_555 1_555
O2 H2 C2 75(5) 1_555 1_555 1_555
H3 H2 O2 153.9(3) 4_546 1_555 1_555
H3 H2 C1 161(4) 4_546 1_555 1_555
H3 H2 H1 98.947 4_546 1_555 1_555
H3 H2 H3 117.614 4_546 1_555 1_555
H3 H2 C2 128(6) 4_546 1_555 1_555
H1 H2 H3 68.576 3_545 1_555 4_546
H1 H2 O2 88.5(8) 3_545 1_555 1_555
H1 H2 C1 119(3) 3_545 1_555 1_555
H1 H2 H1 155.269 3_545 1_555 1_555
H1 H2 H3 144.534 3_545 1_555 1_555
H1 H2 C2 163(6) 3_545 1_555 1_555
O1 H2 H1 131.7(11) 1_555 1_555 3_545
O1 H2 H3 150.0(14) 1_555 1_555 4_546
O1 H2 O2 44.9(16) 1_555 1_555 1_555
O1 H2 C1 14(4) 1_555 1_555 1_555
O1 H2 H1 53.1(14) 1_555 1_555 1_555
O1 H2 H3 61.5(7) 1_555 1_555 1_555
O1 H2 C2 33(5) 1_555 1_555 1_555
H2 H3 C2 36(6) 1_555 1_555 1_555
H1 H3 H2 60.009 1_555 1_555 1_555
H1 H3 C2 34(8) 1_555 1_555 1_555
C1 H3 H1 67(4) 1_555 1_555 1_555
C1 H3 H2 67.3(8) 1_555 1_555 1_555
C1 H3 C2 45(5) 1_555 1_555 1_555
H2 H3 C1 157(3) 4_556 1_555 1_555
H2 H3 H1 104.305 4_556 1_555 1_555
H2 H3 H2 128.254 4_556 1_555 1_555
H2 H3 C2 136(7) 4_556 1_555 1_555
O1 H3 H2 132.2(10) 1_555 1_555 4_556
O1 H3 C1 25(3) 1_555 1_555 1_555
O1 H3 H1 64.8(13) 1_555 1_555 1_555
O1 H3 H2 88.35(11) 1_555 1_555 1_555
O1 H3 C2 58(4) 1_555 1_555 1_555
H1 H3 O1 100.3(10) 3_555 1_555 1_555
H1 H3 H2 71.591 3_555 1_555 4_556
H1 H3 C1 107(3) 3_555 1_555 1_555
H1 H3 H1 156.634 3_555 1_555 1_555
H1 H3 H2 140.851 3_555 1_555 1_555
H1 H3 C2 151(6) 3_555 1_555 1_555
O2 H3 H1 100.7(8) 1_555 1_555 3_555
O2 H3 O1 46.3(16) 1_555 1_555 1_555
O2 H3 H2 172.2(8) 1_555 1_555 4_556
O2 H3 C1 23(4) 1_555 1_555 1_555
O2 H3 H1 82.1(10) 1_555 1_555 1_555
O2 H3 H2 58.8(6) 1_555 1_555 1_555
O2 H3 C2 51(6) 1_555 1_555 1_555
H1 H3 O2 130.4(8) 2_556 1_555 1_555
H1 H3 H1 128.807 2_556 1_555 3_555
H1 H3 O1 112.8(16) 2_556 1_555 1_555
H1 H3 H2 57.219 2_556 1_555 4_556
H1 H3 C1 119(4) 2_556 1_555 1_555
H1 H3 H1 52.183 2_556 1_555 1_555
H1 H3 H2 79.902 2_556 1_555 1_555
H1 H3 C2 79(6) 2_556 1_555 1_555
F1 Ba1 O1 124.6(16) 1_555 1_555 3_555
O2 Ba1 F1 85.6(13) 3_455 1_555 1_555
O2 Ba1 O1 120(2) 3_455 1_555 3_555
F1 Ba1 O2 131.5(16) 3_545 1_555 3_455
F1 Ba1 F1 107.3(2) 3_545 1_555 1_555
F1 Ba1 O1 91.5(16) 3_545 1_555 3_555
O1 Ba1 F1 92(2) 1_555 1_555 3_545
O1 Ba1 O2 45.9(15) 1_555 1_555 3_455
O1 Ba1 F1 123(2) 1_555 1_555 1_555
O1 Ba1 O1 107(2) 1_555 1_555 3_555
O2 Ba1 O1 124.3(18) 1_565 1_555 1_555
O2 Ba1 F1 126.6(19) 1_565 1_555 3_545
O2 Ba1 O2 100.4(18) 1_565 1_555 3_455
O2 Ba1 F1 85.2(19) 1_565 1_555 1_555
O2 Ba1 O1 44.8(13) 1_565 1_555 3_555
Ba1 F1 Ba1 110(3) 2_555 1_555 1_555
Ba1 F1 Ba1 110.60(14) 3_455 1_555 2_555
Ba1 F1 Ba1 107.3(2) 3_455 1_555 1_555
Ba1 F1 Ba1 111(3) 4_555 1_555 3_455
Ba1 F1 Ba1 107.3(2) 4_555 1_555 2_555
Ba1 F1 Ba1 110.60(14) 4_555 1_555 1_555
loop_
_geom_bond_atom_site_label_1
_geom_bond_atom_site_label_2
_geom_bond_distance
_geom_bond_site_symmetry_1
_geom_bond_site_symmetry_2
O1 C1 1.25(13) 1_555 1_555
O1 Ba1 2.61(7) 1_555 3_445
O1 Ba1 2.76(4) 1_555 1_555
C1 O1 1.25(13) 1_555 1_555
C1 O2 1.27(13) 1_555 1_555
C1 C2 1.50(11) 1_555 1_555
O2 C1 1.27(13) 1_555 1_555
O2 O1 2.21(8) 1_555 1_555
O2 Ba1 2.68(6) 1_555 3_545
O2 Ba1 2.92(4) 1_555 1_545
C2 H1 0.94(14) 1_555 1_555
C2 H3 0.96(6) 1_555 1_555
C2 H2 0.96(6) 1_555 1_555
C2 C1 1.50(11) 1_555 1_555
H1 C2 0.94(14) 1_555 1_555
H2 C2 0.96(6) 1_555 1_555
H3 C2 0.96(6) 1_555 1_555
Ba1 O1 2.61(7) 1_555 3_555
Ba1 F1 2.65(5) 1_555 1_555
Ba1 O2 2.68(6) 1_555 3_455
Ba1 F1 2.71(5) 1_555 3_545
Ba1 O1 2.76(4) 1_555 1_555
Ba1 O2 2.92(4) 1_555 1_565
F1 Ba1 2.65(5) 1_555 1_555
F1 Ba1 2.65(5) 1_555 2_555
F1 Ba1 2.71(5) 1_555 3_455
F1 Ba1 2.71(5) 1_555 4_555
loop_
_pd_proc_point_id
_pd_meas_2theta_scan
_pd_proc_intensity_total
_pd_calc_intensity_total
_pd_proc_ls_weight
1 5.99621 64501.27946 66239.00000 0.00002
2 6.00570 64442.55083 66903.00000 0.00001
3 6.01519 64384.59355 66505.00000 0.00002
4 6.02467 64327.43643 65773.00000 0.00002
5 6.03416 64271.11140 66647.00000 0.00002
6 6.04365 64215.65402 65973.00000 0.00002
7 6.05314 64161.10421 65878.00000 0.00002
8 6.06262 64107.50719 66478.00000 0.00002
9 6.07211 64054.91479 65959.00000 0.00002
10 6.08160 64003.38719 65720.00000 0.00002
11 6.09109 63952.99548 65259.00000 0.00002
12 6.10057 63903.82509 65703.00000 0.00002
13 6.11006 63855.98000 65571.00000 0.00002
14 6.11955 63809.58541 65667.00000 0.00002
15 6.12904 63764.78349 65577.00000 0.00002
16 6.13853 63721.71888 65150.00000 0.00002
17 6.14801 63680.52346 65571.00000 0.00002
18 6.15750 63641.31806 65751.00000 0.00002
19 6.16699 63604.23019 65209.00000 0.00002
20 6.17648 63569.40493 65217.00000 0.00002
21 6.18596 63536.99573 65033.00000 0.00002
22 6.19545 63507.15089 64801.00000 0.00002
23 6.20494 63480.01874 64977.00000 0.00002
24 6.21443 63455.76556 64520.00000 0.00002
25 6.22391 63434.58015 65383.00000 0.00002
26 6.23340 63416.65910 64618.00000 0.00002
27 6.24289 63402.19758 64935.00000 0.00002
28 6.25238 63391.40282 64828.00000 0.00002
29 6.26187 63384.51012 64744.00000 0.00002
30 6.27135 63381.77666 64486.00000 0.00002
31 6.28084 63383.46561 64637.00000 0.00002
32 6.29033 63389.85054 64687.00000 0.00002
33 6.29982 63401.23527 64586.00000 0.00002
34 6.30930 63417.95695 64483.00000 0.00002
35 6.31879 63440.36980 64318.00000 0.00002
36 6.32828 63468.84255 64491.00000 0.00002
37 6.33777 63503.77858 64617.00000 0.00002
38 6.34726 63545.62573 64004.00000 0.00002
39 6.35674 63594.86280 64135.00000 0.00002
40 6.36623 63651.99500 64476.00000 0.00002
41 6.37572 63717.57385 64244.00000 0.00002
42 6.38521 63792.20880 64128.00000 0.00002
43 6.39469 63876.55555 64343.00000 0.00002
44 6.40418 63971.31524 64119.00000 0.00002
45 6.41367 64077.25731 64426.00000 0.00002
46 6.42316 64195.22964 64328.00000 0.00002
47 6.43264 64326.14907 64123.00000 0.00002
48 6.44213 64471.01017 63955.00000 0.00002
49 6.45162 64630.91089 64831.00000 0.00002
50 6.46111 64807.05761 64418.00000 0.00002
51 6.47060 65000.76327 64824.00000 0.00002
52 6.48008 65213.47164 64527.00000 0.00002
53 6.48957 65446.78164 64086.00000 0.00002
54 6.49906 65702.45197 64480.00000 0.00002
55 6.50855 65982.42036 64603.00000 0.00002
56 6.51803 66288.83897 65063.00000 0.00002
57 6.52752 66624.09516 64913.00000 0.00002
58 6.53701 66990.83521 65264.00000 0.00002
59 6.54650 67392.00658 66132.00000 0.00002
60 6.55598 67830.89310 65804.00000 0.00002
61 6.56547 68311.15047 65880.00000 0.00002
62 6.57496 68836.85750 65969.00000 0.00002
63 6.58445 69412.56244 67023.00000 0.00001
64 6.59394 70043.32429 67066.00000 0.00001
65 6.60342 70734.74306 67181.00000 0.00001
66 6.61291 71492.93621 67227.00000 0.00001
67 6.62240 72324.45483 68474.00000 0.00001
68 6.63189 73236.23308 68491.00000 0.00001
69 6.64137 74235.76166 69477.00000 0.00001
70 6.65086 75331.53556 69928.00000 0.00001
71 6.66035 76533.56945 70229.00000 0.00001
72 6.66984 77853.81515 71205.00000 0.00001
73 6.67932 79306.47071 72868.00000 0.00001
74 6.68881 80908.19843 74018.00000 0.00001
75 6.69830 82678.19355 75367.00000 0.00001
76 6.70779 84637.87196 77409.00000 0.00001
77 6.71728 86809.67972 79628.00000 0.00001
78 6.72676 89213.86288 82518.00000 0.00001
79 6.73625 91860.01753 86541.00000 0.00001
80 6.74574 94725.37311 90444.00000 0.00001
81 6.75523 97702.24348 95297.00000 0.00001
82 6.76471 100486.00823 100407.00000 0.00001
83 6.77420 102408.92295 102844.00000 0.00001
84 6.78369 102428.71046 104458.00000 0.00001
85 6.79318 99692.46902 100266.00000 0.00001
86 6.80267 94470.16149 94085.00000 0.00001
87 6.81215 88213.24026 86401.00000 0.00001
88 6.82164 82424.10051 79596.00000 0.00001
89 6.83113 77779.56357 73683.00000 0.00001
90 6.84062 74261.24038 69692.00000 0.00001
91 6.85010 71613.35084 66476.00000 0.00002
92 6.85959 69588.99092 64814.00000 0.00002
93 6.86908 68006.74458 64150.00000 0.00002
94 6.87857 66742.46702 62849.00000 0.00002
95 6.88805 65711.69022 62338.00000 0.00002
96 6.89754 64855.96532 61784.00000 0.00002
97 6.90703 64134.02116 61112.00000 0.00002
98 6.91652 63516.17684 61452.00000 0.00002
99 6.92601 62980.70086 61041.00000 0.00002
100 6.93549 62511.39246 60652.00000 0.00002
101 6.94498 62095.96279 60683.00000 0.00002
102 6.95447 61724.93973 60528.00000 0.00002
103 6.96396 61390.91508 60110.00000 0.00002
104 6.97344 61088.01807 59984.00000 0.00002
105 6.98293 60811.54052 59595.00000 0.00002
106 6.99242 60557.66562 59502.00000 0.00002
107 7.00191 60323.26863 59519.00000 0.00002
108 7.01139 60105.76838 59112.00000 0.00002
109 7.02088 59903.01511 59441.00000 0.00002
110 7.03037 59713.20480 59076.00000 0.00002
111 7.03986 59534.81306 59335.00000 0.00002
112 7.04935 59366.54340 59256.00000 0.00002
113 7.05883 59207.28666 58856.00000 0.00002
114 7.06832 59056.08859 59262.00000 0.00002
115 7.07781 58912.12402 59137.00000 0.00002
116 7.08730 58774.67593 58547.00000 0.00002
117 7.09678 58643.11846 58237.00000 0.00002
118 7.10627 58516.90299 58525.00000 0.00002
119 7.11576 58395.54673 58081.00000 0.00002
120 7.12525 58278.62316 58263.00000 0.00002
121 7.13474 58165.75421 57956.00000 0.00002
122 7.14422 58056.60357 58306.00000 0.00002
123 7.15371 57950.87116 58365.00000 0.00002
124 7.16320 57848.28844 58332.00000 0.00002
125 7.17269 57748.61436 57848.00000 0.00002
126 7.18217 57651.63200 57680.00000 0.00002
127 7.19166 57557.14564 57925.00000 0.00002
128 7.20115 57464.97825 57733.00000 0.00002
129 7.21064 57374.96932 57710.00000 0.00002
130 7.22012 57286.97303 57617.00000 0.00002
131 7.22961 57200.85655 57408.00000 0.00002
132 7.23910 57116.49872 57549.00000 0.00002
133 7.24859 57033.78874 56876.00000 0.00002
134 7.25808 56952.62512 57326.00000 0.00002
135 7.26756 56872.91473 57493.00000 0.00002
136 7.27705 56794.57195 57109.00000 0.00002
137 7.28654 56717.51796 57260.00000 0.00002
138 7.29603 56641.68005 57395.00000 0.00002
139 7.30551 56566.99104 57212.00000 0.00002
140 7.31500 56493.38880 56989.00000 0.00002
141 7.32449 56420.81578 56868.00000 0.00002
142 7.33398 56349.21854 56847.00000 0.00002
143 7.34346 56278.54749 56995.00000 0.00002
144 7.35295 56208.75646 56638.00000 0.00002
145 7.36244 56139.80246 56845.00000 0.00002
146 7.37193 56071.64539 56701.00000 0.00002
147 7.38142 56004.24782 56492.00000 0.00002
148 7.39090 55937.57476 56490.00000 0.00002
149 7.40039 55871.59347 56232.00000 0.00002
150 7.40988 55806.27327 56680.00000 0.00002
151 7.41937 55741.58538 56167.00000 0.00002
152 7.42885 55677.50281 56141.00000 0.00002
153 7.43834 55614.00016 56488.00000 0.00002
154 7.44783 55551.05358 56005.00000 0.00002
155 7.45732 55488.64058 56385.00000 0.00002
156 7.46681 55426.73998 56259.00000 0.00002
157 7.47629 55365.33181 56019.00000 0.00002
158 7.48578 55304.39720 56152.00000 0.00002
159 7.49527 55243.91834 55302.00000 0.00002
160 7.50476 55183.87837 55740.00000 0.00002
161 7.51424 55124.26134 55427.00000 0.00002
162 7.52373 55065.05215 55647.00000 0.00002
163 7.53322 55006.23649 55397.00000 0.00002
164 7.54271 54947.80076 55955.00000 0.00002
165 7.55219 54889.73208 55655.00000 0.00002
166 7.56168 54832.01820 55520.00000 0.00002
167 7.57117 54774.64747 55224.00000 0.00002
168 7.58066 54717.60881 55014.00000 0.00002
169 7.59015 54660.89169 55243.00000 0.00002
170 7.59963 54604.48605 54991.00000 0.00002
171 7.60912 54548.38233 55398.00000 0.00002
172 7.61861 54492.57138 55405.00000 0.00002
173 7.62810 54437.04451 55003.00000 0.00002
174 7.63758 54381.79337 54815.00000 0.00002
175 7.64707 54326.81002 54958.00000 0.00002
176 7.65656 54272.08686 54900.00000 0.00002
177 7.66605 54217.61662 54962.00000 0.00002
178 7.67553 54163.39232 54967.00000 0.00002
179 7.68502 54109.40731 54904.00000 0.00002
180 7.69451 54055.65519 54692.00000 0.00002
181 7.70400 54002.12984 54620.00000 0.00002
182 7.71349 53948.82538 54306.00000 0.00002
183 7.72297 53895.73618 54589.00000 0.00002
184 7.73246 53842.85683 54158.00000 0.00002
185 7.74195 53790.18211 54686.00000 0.00002
186 7.75144 53737.70704 53839.00000 0.00002
187 7.76092 53685.42681 54706.00000 0.00002
188 7.77041 53633.33679 54300.00000 0.00002
189 7.77990 53581.43254 54045.00000 0.00002
190 7.78939 53529.70977 54233.00000 0.00002
191 7.79887 53478.16435 53712.00000 0.00002
192 7.80836 53426.79231 53883.00000 0.00002
193 7.81785 53375.58980 54064.00000 0.00002
194 7.82734 53324.55315 54072.00000 0.00002
195 7.83683 53273.67877 54006.00000 0.00002
196 7.84631 53222.96321 53688.00000 0.00002
197 7.85580 53172.40317 54113.00000 0.00002
198 7.86529 53121.99541 53687.00000 0.00002
199 7.87478 53071.73685 53701.00000 0.00002
200 7.88426 53021.62446 53509.00000 0.00002
201 7.89375 52971.65536 53618.00000 0.00002
202 7.90324 52921.82673 53519.00000 0.00002
203 7.91273 52872.13586 53462.00000 0.00002
204 7.92222 52822.58011 53380.00000 0.00002
205 7.93170 52773.15694 53387.00000 0.00002
206 7.94119 52723.86387 53241.00000 0.00002
207 7.95068 52674.69851 53406.00000 0.00002
208 7.96017 52625.65855 53201.00000 0.00002
209 7.96965 52576.74174 53608.00000 0.00002
210 7.97914 52527.94589 52615.00000 0.00002
211 7.98863 52479.26888 53009.00000 0.00002
212 7.99812 52430.70867 53119.00000 0.00002
213 8.00760 52382.26326 53115.00000 0.00002
214 8.01709 52333.93071 53409.00000 0.00002
215 8.02658 52285.70914 53681.00000 0.00002
216 8.03607 52237.59672 53203.00000 0.00002
217 8.04556 52189.59167 52625.00000 0.00002
218 8.05504 52141.69227 53096.00000 0.00002
219 8.06453 52093.89683 53273.00000 0.00002
220 8.07402 52046.20372 53296.00000 0.00002
221 8.08351 51998.61136 52861.00000 0.00002
222 8.09299 51951.11818 53072.00000 0.00002
223 8.10248 51903.72269 53525.00000 0.00002
224 8.11197 51856.42342 52987.00000 0.00002
225 8.12146 51809.21895 53137.00000 0.00002
226 8.13094 51762.10786 53365.00000 0.00002
227 8.14043 51715.08883 52837.00000 0.00002
228 8.14992 51668.16051 52524.00000 0.00002
229 8.15941 51621.32162 51878.00000 0.00002
230 8.16890 51574.57091 52245.00000 0.00002
231 8.17838 51527.90716 52212.00000 0.00002
232 8.18787 51481.32916 51483.00000 0.00002
233 8.19736 51434.83575 51643.00000 0.00002
234 8.20685 51388.42579 51308.00000 0.00002
235 8.21633 51342.09818 51668.00000 0.00002
236 8.22582 51295.85183 51850.00000 0.00002
237 8.23531 51249.68568 51761.00000 0.00002
238 8.24480 51203.59870 51343.00000 0.00002
239 8.25429 51157.58988 51649.00000 0.00002
240 8.26377 51111.65823 51190.00000 0.00002
241 8.27326 51065.80280 51862.00000 0.00002
242 8.28275 51020.02264 51113.00000 0.00002
243 8.29224 50974.31683 51541.00000 0.00002
244 8.30172 50928.68447 51531.00000 0.00002
245 8.31121 50883.12469 51307.00000 0.00002
246 8.32070 50837.63662 51422.00000 0.00002
247 8.33019 50792.21942 51115.00000 0.00002
248 8.33967 50746.87228 51375.00000 0.00002
249 8.34916 50701.59439 51122.00000 0.00002
250 8.35865 50656.38496 50981.00000 0.00002
251 8.36814 50611.24322 51126.00000 0.00002
252 8.37763 50566.16842 50905.00000 0.00002
253 8.38711 50521.15983 50973.00000 0.00002
254 8.39660 50476.21672 51092.00000 0.00002
255 8.40609 50431.33838 50692.00000 0.00002
256 8.41558 50386.52413 50780.00000 0.00002
257 8.42506 50341.77328 50622.00000 0.00002
258 8.43455 50297.08518 50727.00000 0.00002
259 8.44404 50252.45917 50645.00000 0.00002
260 8.45353 50207.89462 50485.00000 0.00002
261 8.46301 50163.39091 50262.00000 0.00002
262 8.47250 50118.94742 50547.00000 0.00002
263 8.48199 50074.56356 49959.00000 0.00002
264 8.49148 50030.23874 50097.00000 0.00002
265 8.50097 49985.97238 50230.00000 0.00002
266 8.51045 49941.76393 49973.00000 0.00002
267 8.51994 49897.61283 50428.00000 0.00002
268 8.52943 49853.51855 50066.00000 0.00002
269 8.53892 49809.48054 49707.00000 0.00002
270 8.54840 49765.49830 49973.00000 0.00002
271 8.55789 49721.57131 50205.00000 0.00002
272 8.56738 49677.69907 50205.00000 0.00002
273 8.57687 49633.88110 49658.00000 0.00002
274 8.58636 49590.11691 49829.00000 0.00002
275 8.59584 49546.40603 50003.00000 0.00002
276 8.60533 49502.74800 49619.00000 0.00002
277 8.61482 49459.14236 49674.00000 0.00002
278 8.62431 49415.58868 49506.00000 0.00002
279 8.63379 49372.08651 49284.00000 0.00002
280 8.64328 49328.63543 49729.00000 0.00002
281 8.65277 49285.23502 49775.00000 0.00002
282 8.66226 49241.88487 49368.00000 0.00002
283 8.67174 49198.58456 49406.00000 0.00002
284 8.68123 49155.33372 49348.00000 0.00002
285 8.69072 49112.13194 49713.00000 0.00002
286 8.70021 49068.97885 49044.00000 0.00002
287 8.70970 49025.87407 49425.00000 0.00002
288 8.71918 48982.81723 49281.00000 0.00002
289 8.72867 48939.80797 48889.00000 0.00002
290 8.73816 48896.84595 48732.00000 0.00002
291 8.74765 48853.93081 49134.00000 0.00002
292 8.75713 48811.06221 49013.00000 0.00002
293 8.76662 48768.23981 49512.00000 0.00002
294 8.77611 48725.46330 48640.00000 0.00002
295 8.78560 48682.73234 48940.00000 0.00002
296 8.79508 48640.04663 48861.00000 0.00002
297 8.80457 48597.40584 48405.00000 0.00002
298 8.81406 48554.80968 48997.00000 0.00002
299 8.82355 48512.25784 48609.00000 0.00002
300 8.83304 48469.75004 48587.00000 0.00002
301 8.84252 48427.28599 48426.00000 0.00002
302 8.85201 48384.86540 48441.00000 0.00002
303 8.86150 48342.48799 48482.00000 0.00002
304 8.87099 48300.15350 48318.00000 0.00002
305 8.88047 48257.86165 48425.00000 0.00002
306 8.88996 48215.61219 48525.00000 0.00002
307 8.89945 48173.40485 48745.00000 0.00002
308 8.90894 48131.23939 47883.00000 0.00002
309 8.91842 48089.11555 47984.00000 0.00002
310 8.92791 48047.03310 48643.00000 0.00002
311 8.93740 48004.99179 48076.00000 0.00002
312 8.94689 47962.99139 48143.00000 0.00002
313 8.95638 47921.03167 47806.00000 0.00002
314 8.96586 47879.11240 47975.00000 0.00002
315 8.97535 47837.23337 47940.00000 0.00002
316 8.98484 47795.39436 47712.00000 0.00002
317 8.99433 47753.59514 47790.00000 0.00002
318 9.00381 47711.83552 48061.00000 0.00002
319 9.01330 47670.11529 47923.00000 0.00002
320 9.02279 47628.43424 47903.00000 0.00002
321 9.03228 47586.79219 47488.00000 0.00002
322 9.04177 47545.18893 47786.00000 0.00002
323 9.05125 47503.62428 47339.00000 0.00002
324 9.06074 47462.09805 47446.00000 0.00002
325 9.07023 47420.61005 47414.00000 0.00002
326 9.07972 47379.16012 47826.00000 0.00002
327 9.08920 47337.74806 47352.00000 0.00002
328 9.09869 47296.37372 47060.00000 0.00002
329 9.10818 47255.03692 47450.00000 0.00002
330 9.11767 47213.73749 47211.00000 0.00002
331 9.12715 47172.47528 47453.00000 0.00002
332 9.13664 47131.25012 47045.00000 0.00002
333 9.14613 47090.06186 46858.00000 0.00002
334 9.15562 47048.91035 46817.00000 0.00002
335 9.16511 47007.79543 46982.00000 0.00002
336 9.17459 46966.71696 47004.00000 0.00002
337 9.18408 46925.67479 47127.00000 0.00002
338 9.19357 46884.66879 46916.00000 0.00002
339 9.20306 46843.69881 46229.00000 0.00002
340 9.21254 46802.76473 46819.00000 0.00002
341 9.22203 46761.86640 46761.00000 0.00002
342 9.23152 46721.00371 46584.00000 0.00002
343 9.24101 46680.17651 46502.00000 0.00002
344 9.25049 46639.38469 46720.00000 0.00002
345 9.25998 46598.62813 46173.00000 0.00002
346 9.26947 46557.90671 46080.00000 0.00002
347 9.27896 46517.22030 46311.00000 0.00002
348 9.28845 46476.56880 46590.00000 0.00002
349 9.29793 46435.95210 46538.00000 0.00002
350 9.30742 46395.37008 46143.00000 0.00002
351 9.31691 46354.82265 46237.00000 0.00002
352 9.32640 46314.30968 45941.00000 0.00002
353 9.33588 46273.83109 46172.00000 0.00002
354 9.34537 46233.38678 46079.00000 0.00002
355 9.35486 46192.97664 46290.00000 0.00002
356 9.36435 46152.60058 46278.00000 0.00002
357 9.37384 46112.25851 46429.00000 0.00002
358 9.38332 46071.95034 45935.00000 0.00002
359 9.39281 46031.67597 46169.00000 0.00002
360 9.40230 45991.43533 46130.00000 0.00002
361 9.41179 45951.22833 45933.00000 0.00002
362 9.42127 45911.05488 45847.00000 0.00002
363 9.43076 45870.91491 45866.00000 0.00002
364 9.44025 45830.80834 45930.00000 0.00002
365 9.44974 45790.73508 45454.00000 0.00002
366 9.45922 45750.69508 45842.00000 0.00002
367 9.46871 45710.68824 45328.00000 0.00002
368 9.47820 45670.71451 45561.00000 0.00002
369 9.48769 45630.77382 45515.00000 0.00002
370 9.49718 45590.86609 46076.00000 0.00002
371 9.50666 45550.99127 45510.00000 0.00002
372 9.51615 45511.14928 45174.00000 0.00002
373 9.52564 45471.34007 45365.00000 0.00002
374 9.53513 45431.56358 45117.00000 0.00002
375 9.54461 45391.81975 45192.00000 0.00002
376 9.55410 45352.10852 45191.00000 0.00002
377 9.56359 45312.42979 45176.00000 0.00002
378 9.57308 45272.78338 45129.00000 0.00002
379 9.58256 45233.16912 45459.00000 0.00002
380 9.59205 45193.58689 44983.00000 0.00002
381 9.60154 45154.03660 45512.00000 0.00002
382 9.61103 45114.51811 44796.00000 0.00002
383 9.62052 45075.03122 45252.00000 0.00002
384 9.63000 45035.57572 44976.00000 0.00002
385 9.63949 44996.15147 44525.00000 0.00002
386 9.64898 44956.75835 44818.00000 0.00002
387 9.65847 44917.39617 45175.00000 0.00002
388 9.66795 44878.06463 44744.00000 0.00002
389 9.67744 44838.76353 44592.00000 0.00002
390 9.68693 44799.49271 44646.00000 0.00002
391 9.69642 44760.25195 43868.00000 0.00002
392 9.70591 44721.04094 44752.00000 0.00002
393 9.71539 44681.85936 44576.00000 0.00002
394 9.72488 44642.70697 44978.00000 0.00002
395 9.73437 44603.58354 44124.00000 0.00002
396 9.74386 44564.48867 44380.00000 0.00002
397 9.75334 44525.42196 44458.00000 0.00002
398 9.76283 44486.38305 44360.00000 0.00002
399 9.77232 44447.37162 44359.00000 0.00002
400 9.78181 44408.38720 44267.00000 0.00002
401 9.79129 44369.42925 44232.00000 0.00002
402 9.80078 44330.49728 44116.00000 0.00002
403 9.81027 44291.59085 43998.00000 0.00002
404 9.81976 44252.70931 43883.00000 0.00002
405 9.82925 44213.85196 44137.00000 0.00002
406 9.83873 44175.01814 44073.00000 0.00002
407 9.84822 44136.20720 43796.00000 0.00002
408 9.85771 44097.41825 44147.00000 0.00002
409 9.86720 44058.65035 43548.00000 0.00002
410 9.87668 44019.90261 44105.00000 0.00002
411 9.88617 43981.17402 43598.00000 0.00002
412 9.89566 43942.46333 43814.00000 0.00002
413 9.90515 43903.76927 43809.00000 0.00002
414 9.91463 43865.09056 43605.00000 0.00002
415 9.92412 43826.42562 43656.00000 0.00002
416 9.93361 43787.77269 43386.00000 0.00002
417 9.94310 43749.13002 43586.00000 0.00002
418 9.95259 43710.49554 43277.00000 0.00002
419 9.96207 43671.86687 43568.00000 0.00002
420 9.97156 43633.24154 43843.00000 0.00002
421 9.98105 43594.61672 43584.00000 0.00002
422 9.99054 43555.98912 43847.00000 0.00002
423 10.00002 43517.35521 43443.00000 0.00002
424 10.00951 43478.71092 43360.00000 0.00002
425 10.01900 43440.05158 43600.00000 0.00002
426 10.02849 43401.37202 43121.00000 0.00002
427 10.03797 43362.66618 43439.00000 0.00002
428 10.04746 43323.92701 43215.00000 0.00002
429 10.05695 43285.14605 43932.00000 0.00002
430 10.06644 43246.31370 43009.00000 0.00002
431 10.07593 43207.42025 42893.00000 0.00002
432 10.08541 43168.45530 43022.00000 0.00002
433 10.09490 43129.40694 42502.00000 0.00002
434 10.10439 43090.26123 42925.00000 0.00002
435 10.11388 43051.00141 43011.00000 0.00002
436 10.12336 43011.60714 42698.00000 0.00002
437 10.13285 42972.05316 42487.00000 0.00002
438 10.14234 42932.30739 42812.00000 0.00002
439 10.15183 42892.32820 42633.00000 0.00002
440 10.16132 42852.06147 42875.00000 0.00002
441 10.17080 42811.43227 42778.00000 0.00002
442 10.18029 42770.32802 42534.00000 0.00002
443 10.18978 42728.56467 42468.00000 0.00002
444 10.19927 42685.78938 42420.00000 0.00002
445 10.20875 42641.02344 42662.00000 0.00002
446 10.21824 42593.27538 42703.00000 0.00002
447 10.22773 42545.80764 42724.00000 0.00002
448 10.23722 42503.55426 42556.00000 0.00002
449 10.24670 42465.46045 42329.00000 0.00002
450 10.25619 42428.28358 42242.00000 0.00002
451 10.26568 42391.20473 42712.00000 0.00002
452 10.27517 42354.16722 42076.00000 0.00002
453 10.28466 42317.16592 42564.00000 0.00002
454 10.29414 42280.19901 42229.00000 0.00002
455 10.30363 42243.26577 42473.00000 0.00002
456 10.31312 42206.36469 42313.00000 0.00002
457 10.32261 42169.49418 42513.00000 0.00002
458 10.33209 42132.65394 41876.00000 0.00002
459 10.34158 42095.84399 42112.00000 0.00002
460 10.35107 42059.06435 41766.00000 0.00002
461 10.36056 42022.31508 42266.00000 0.00002
462 10.37004 41985.59621 41883.00000 0.00002
463 10.37953 41948.90778 41569.00000 0.00002
464 10.38902 41912.24984 41863.00000 0.00002
465 10.39851 41875.62243 41526.00000 0.00002
466 10.40800 41839.02558 41634.00000 0.00002
467 10.41748 41802.45934 41688.00000 0.00002
468 10.42697 41765.92375 41464.00000 0.00002
469 10.43646 41729.41885 41282.00000 0.00002
470 10.44595 41692.94468 41603.00000 0.00002
471 10.45543 41656.50130 41581.00000 0.00002
472 10.46492 41620.08873 41917.00000 0.00002
473 10.47441 41583.70702 41682.00000 0.00002
474 10.48390 41547.35622 41531.00000 0.00002
475 10.49339 41511.03637 40912.00000 0.00002
476 10.50287 41474.74751 41463.00000 0.00002
477 10.51236 41438.48968 41479.00000 0.00002
478 10.52185 41402.26293 41152.00000 0.00002
479 10.53134 41366.06731 41317.00000 0.00002
480 10.54082 41329.90285 41544.00000 0.00002
481 10.55031 41293.76960 41277.00000 0.00002
482 10.55980 41257.66761 41135.00000 0.00002
483 10.56929 41221.59691 40933.00000 0.00002
484 10.57877 41185.55756 40975.00000 0.00002
485 10.58826 41149.54960 41567.00000 0.00002
486 10.59775 41113.57307 41491.00000 0.00002
487 10.60724 41077.62802 40942.00000 0.00002
488 10.61673 41041.71450 41113.00000 0.00002
489 10.62621 41005.83254 41170.00000 0.00002
490 10.63570 40969.98219 40916.00000 0.00002
491 10.64519 40934.16351 40667.00000 0.00002
492 10.65468 40898.37653 41163.00000 0.00002
493 10.66416 40862.62130 40705.00000 0.00002
494 10.67365 40826.89786 40500.00000 0.00002
495 10.68314 40791.20627 40697.00000 0.00002
496 10.69263 40755.54656 40849.00000 0.00002
497 10.70211 40719.91879 40566.00000 0.00002
498 10.71160 40684.32299 40389.00000 0.00002
499 10.72109 40648.75922 40851.00000 0.00002
500 10.73058 40613.22752 40421.00000 0.00002
501 10.74007 40577.72794 40551.00000 0.00002
502 10.74955 40542.26052 40227.00000 0.00002
503 10.75904 40506.82531 40525.00000 0.00002
504 10.76853 40471.42235 40218.00000 0.00002
505 10.77802 40436.05169 40185.00000 0.00002
506 10.78750 40400.71338 40603.00000 0.00002
507 10.79699 40365.40747 40706.00000 0.00002
508 10.80648 40330.13399 40551.00000 0.00002
509 10.81597 40294.89300 40091.00000 0.00002
510 10.82546 40259.68454 40319.00000 0.00002
511 10.83494 40224.50866 40080.00000 0.00002
512 10.84443 40189.36541 40166.00000 0.00002
513 10.85392 40154.25482 40296.00000 0.00002
514 10.86341 40119.17696 40269.00000 0.00002
515 10.87289 40084.13185 40030.00000 0.00002
516 10.88238 40049.11956 39875.00000 0.00003
517 10.89187 40014.14012 40094.00000 0.00002
518 10.90136 39979.19358 40219.00000 0.00002
519 10.91084 39944.27999 39770.00000 0.00003
520 10.92033 39909.39940 40116.00000 0.00002
521 10.92982 39874.55184 39666.00000 0.00003
522 10.93931 39839.73737 39483.00000 0.00003
523 10.94880 39804.95604 39940.00000 0.00003
524 10.95828 39770.20788 39333.00000 0.00003
525 10.96777 39735.49294 39531.00000 0.00003
526 10.97726 39700.81127 39987.00000 0.00003
527 10.98675 39666.16292 39468.00000 0.00003
528 10.99623 39631.54793 39733.00000 0.00003
529 11.00572 39596.96634 39711.00000 0.00003
530 11.01521 39562.41821 39547.00000 0.00003
531 11.02470 39527.90357 39631.00000 0.00003
532 11.03418 39493.42248 39124.00000 0.00003
533 11.04367 39458.97497 39543.00000 0.00003
534 11.05316 39424.56110 39046.00000 0.00003
535 11.06265 39390.18090 39448.00000 0.00003
536 11.07214 39355.83443 39033.00000 0.00003
537 11.08162 39321.52172 39370.00000 0.00003
538 11.09111 39287.24283 39386.00000 0.00003
539 11.10060 39252.99779 39022.00000 0.00003
540 11.11009 39218.78666 38994.00000 0.00003
541 11.11957 39184.60947 39066.00000 0.00003
542 11.12906 39150.46627 39269.00000 0.00003
543 11.13855 39116.35710 39027.00000 0.00003
544 11.14804 39082.28202 38762.00000 0.00003
545 11.15752 39048.24105 39081.00000 0.00003
546 11.16701 39014.23426 39154.00000 0.00003
547 11.17650 38980.26167 39101.00000 0.00003
548 11.18599 38946.32333 38839.00000 0.00003
549 11.19548 38912.41930 39478.00000 0.00003
550 11.20496 38878.54960 39153.00000 0.00003
551 11.21445 38844.71429 38884.00000 0.00003
552 11.22394 38810.91340 38871.00000 0.00003
553 11.23343 38777.14698 38787.00000 0.00003
554 11.24291 38743.41507 38919.00000 0.00003
555 11.25240 38709.71772 38549.00000 0.00003
556 11.26189 38676.05496 39119.00000 0.00003
557 11.27138 38642.42684 38755.00000 0.00003
558 11.28087 38608.83341 38425.00000 0.00003
559 11.29035 38575.27469 38374.00000 0.00003
560 11.29984 38541.75074 38285.00000 0.00003
561 11.30933 38508.26160 38911.00000 0.00003
562 11.31882 38474.80731 38513.00000 0.00003
563 11.32830 38441.38793 38614.00000 0.00003
564 11.33779 38408.00354 38382.00000 0.00003
565 11.34728 38374.65420 38344.00000 0.00003
566 11.35677 38341.34000 38366.00000 0.00003
567 11.36625 38308.06102 38521.00000 0.00003
568 11.37574 38274.81734 38431.00000 0.00003
569 11.38523 38241.60909 37869.00000 0.00003
570 11.39472 38208.43636 38256.00000 0.00003
571 11.40421 38175.29928 38031.00000 0.00003
572 11.41369 38142.19799 38129.00000 0.00003
573 11.42318 38109.13265 38055.00000 0.00003
574 11.43267 38076.10343 38072.00000 0.00003
575 11.44216 38043.11054 37749.00000 0.00003
576 11.45164 38010.15420 37911.00000 0.00003
577 11.46113 37977.23467 38017.00000 0.00003
578 11.47062 37944.35227 37934.00000 0.00003
579 11.48011 37911.50735 37829.00000 0.00003
580 11.48959 37878.70033 38039.00000 0.00003
581 11.49908 37845.93171 37545.00000 0.00003
582 11.50857 37813.20209 37843.00000 0.00003
583 11.51806 37780.51219 37800.00000 0.00003
584 11.52755 37747.86290 37687.00000 0.00003
585 11.53703 37715.25532 37678.00000 0.00003
586 11.54652 37682.69086 37533.00000 0.00003
587 11.55601 37650.17131 38087.00000 0.00003
588 11.56550 37617.69905 37687.00000 0.00003
589 11.57498 37585.27712 37387.00000 0.00003
590 11.58447 37552.90922 37495.00000 0.00003
591 11.59396 37520.60013 37460.00000 0.00003
592 11.60345 37488.35680 37692.00000 0.00003
593 11.61294 37456.19028 37620.00000 0.00003
594 11.62242 37424.12113 37534.00000 0.00003
595 11.63191 37392.20414 37528.00000 0.00003
596 11.64140 37360.50428 37226.00000 0.00003
597 11.65089 37328.86593 37383.00000 0.00003
598 11.66037 37297.01149 37446.00000 0.00003
599 11.66986 37264.96346 37133.00000 0.00003
600 11.67935 37232.89307 36776.00000 0.00003
601 11.68884 37200.85475 36951.00000 0.00003
602 11.69832 37168.85246 37214.00000 0.00003
603 11.70781 37136.88654 37160.00000 0.00003
604 11.71730 37104.95713 36810.00000 0.00003
605 11.72679 37073.06430 37002.00000 0.00003
606 11.73628 37041.20817 37112.00000 0.00003
607 11.74576 37009.38885 37232.00000 0.00003
608 11.75525 36977.60642 37307.00000 0.00003
609 11.76474 36945.86091 36882.00000 0.00003
610 11.77423 36914.15236 37009.00000 0.00003
611 11.78371 36882.48080 36954.00000 0.00003
612 11.79320 36850.84628 37055.00000 0.00003
613 11.80269 36819.24882 36579.00000 0.00003
614 11.81218 36787.68847 36772.00000 0.00003
615 11.82166 36756.16526 36577.00000 0.00003
616 11.83115 36724.67923 36974.00000 0.00003
617 11.84064 36693.23042 36927.00000 0.00003
618 11.85013 36661.81886 36584.00000 0.00003
619 11.85962 36630.44458 36958.00000 0.00003
620 11.86910 36599.10763 36780.00000 0.00003
621 11.87859 36567.80805 36533.00000 0.00003
622 11.88808 36536.54585 36289.00000 0.00003
623 11.89757 36505.32109 36462.00000 0.00003
624 11.90705 36474.13380 36440.00000 0.00003
625 11.91654 36442.98402 36846.00000 0.00003
626 11.92603 36411.87177 36432.00000 0.00003
627 11.93552 36380.79710 36119.00000 0.00003
628 11.94501 36349.76005 36261.00000 0.00003
629 11.95449 36318.76064 36191.00000 0.00003
630 11.96398 36287.79892 36519.00000 0.00003
631 11.97347 36256.87491 36395.00000 0.00003
632 11.98296 36225.98867 36026.00000 0.00003
633 11.99244 36195.14021 36104.00000 0.00003
634 12.00193 36164.32959 36575.00000 0.00003
635 12.01142 36133.55682 35988.00000 0.00003
636 12.02091 36102.82196 36287.00000 0.00003
637 12.03039 36072.12504 36265.00000 0.00003
638 12.03988 36041.46609 36047.00000 0.00003
639 12.04937 36010.84515 36193.00000 0.00003
640 12.05886 35980.26225 36183.00000 0.00003
641 12.06835 35949.71744 35652.00000 0.00003
642 12.07783 35919.21074 36003.00000 0.00003
643 12.08732 35888.74220 36187.00000 0.00003
644 12.09681 35858.31186 35621.00000 0.00003
645 12.10630 35827.91975 36032.00000 0.00003
646 12.11578 35797.56590 35886.00000 0.00003
647 12.12527 35767.25036 35903.00000 0.00003
648 12.13476 35736.97316 35682.00000 0.00003
649 12.14425 35706.73435 35522.00000 0.00003
650 12.15373 35676.53395 36194.00000 0.00003
651 12.16322 35646.37202 35308.00000 0.00003
652 12.17271 35616.24858 35787.00000 0.00003
653 12.18220 35586.16368 35392.00000 0.00003
654 12.19169 35556.11736 35816.00000 0.00003
655 12.20117 35526.10965 35539.00000 0.00003
656 12.21066 35496.14061 35242.00000 0.00003
657 12.22015 35466.21026 35431.00000 0.00003
658 12.22964 35436.31865 35553.00000 0.00003
659 12.23912 35406.46583 35261.00000 0.00003
660 12.24861 35376.65184 35355.00000 0.00003
661 12.25810 35346.87671 35676.00000 0.00003
662 12.26759 35317.14050 35397.00000 0.00003
663 12.27707 35287.44325 35610.00000 0.00003
664 12.28656 35257.78499 35367.00000 0.00003
665 12.29605 35228.16579 35287.00000 0.00003
666 12.30554 35198.58569 35344.00000 0.00003
667 12.31503 35169.04472 35080.00000 0.00003
668 12.32451 35139.54296 35227.00000 0.00003
669 12.33400 35110.08043 34895.00000 0.00003
670 12.34349 35080.65719 34987.00000 0.00003
671 12.35298 35051.27330 35295.00000 0.00003
672 12.36246 35021.92881 35322.00000 0.00003
673 12.37195 34992.62376 35435.00000 0.00003
674 12.38144 34963.35822 34990.00000 0.00003
675 12.39093 34934.13224 35073.00000 0.00003
676 12.40042 34904.94588 35027.00000 0.00003
677 12.40990 34875.79920 34751.00000 0.00003
678 12.41939 34846.69226 35139.00000 0.00003
679 12.42888 34817.62512 34733.00000 0.00003
680 12.43837 34788.59785 34753.00000 0.00003
681 12.44785 34759.61051 35137.00000 0.00003
682 12.45734 34730.66317 34860.00000 0.00003
683 12.46683 34701.75589 34771.00000 0.00003
684 12.47632 34672.88876 34602.00000 0.00003
685 12.48580 34644.06184 34856.00000 0.00003
686 12.49529 34615.27521 34721.00000 0.00003
687 12.50478 34586.52895 34760.00000 0.00003
688 12.51427 34557.82315 34254.00000 0.00003
689 12.52376 34529.15788 34591.00000 0.00003
690 12.53324 34500.53323 35148.00000 0.00003
691 12.54273 34471.94930 34311.00000 0.00003
692 12.55222 34443.40617 34505.00000 0.00003
693 12.56171 34414.90395 34460.00000 0.00003
694 12.57119 34386.44274 34210.00000 0.00003
695 12.58068 34358.02263 34553.00000 0.00003
696 12.59017 34329.64375 34406.00000 0.00003
697 12.59966 34301.30620 34361.00000 0.00003
698 12.60914 34273.01010 34182.00000 0.00003
699 12.61863 34244.75557 34428.00000 0.00003
700 12.62812 34216.54274 34221.00000 0.00003
701 12.63761 34188.37174 34400.00000 0.00003
702 12.64710 34160.24272 34491.00000 0.00003
703 12.65658 34132.15582 34330.00000 0.00003
704 12.66607 34104.11118 34366.00000 0.00003
705 12.67556 34076.10898 34215.00000 0.00003
706 12.68505 34048.14937 34271.00000 0.00003
707 12.69453 34020.23253 34076.00000 0.00003
708 12.70402 33992.35863 34295.00000 0.00003
709 12.71351 33964.52788 33981.00000 0.00003
710 12.72300 33936.74047 33786.00000 0.00003
711 12.73249 33908.99662 33697.00000 0.00003
712 12.74197 33881.29653 33760.00000 0.00003
713 12.75146 33853.64045 33975.00000 0.00003
714 12.76095 33826.02862 34043.00000 0.00003
715 12.77044 33798.46129 34051.00000 0.00003
716 12.77992 33770.93874 33557.00000 0.00003
717 12.78941 33743.46125 34048.00000 0.00003
718 12.79890 33716.02913 33953.00000 0.00003
719 12.80839 33688.64269 33770.00000 0.00003
720 12.81787 33661.30226 34005.00000 0.00003
721 12.82736 33634.00821 33875.00000 0.00003
722 12.83685 33606.76091 33783.00000 0.00003
723 12.84634 33579.56075 33839.00000 0.00003
724 12.85583 33552.40817 33464.00000 0.00003
725 12.86531 33525.30360 33770.00000 0.00003
726 12.87480 33498.24753 33832.00000 0.00003
727 12.88429 33471.24045 33524.00000 0.00003
728 12.89378 33444.28290 33623.00000 0.00003
729 12.90326 33417.37547 33582.00000 0.00003
730 12.91275 33390.51874 33308.00000 0.00003
731 12.92224 33363.71338 33738.00000 0.00003
732 12.93173 33336.96008 33860.00000 0.00003
733 12.94121 33310.25958 33391.00000 0.00003
734 12.95070 33283.61267 33577.00000 0.00003
735 12.96019 33257.02019 33168.00000 0.00003
736 12.96968 33230.48307 33373.00000 0.00003
737 12.97917 33204.00226 33596.00000 0.00003
738 12.98865 33177.57883 33103.00000 0.00003
739 12.99814 33151.21389 33152.00000 0.00003
740 13.00763 33124.90866 32778.00000 0.00003
741 13.01712 33098.66445 33156.00000 0.00003
742 13.02660 33072.48267 33088.00000 0.00003
743 13.03609 33046.36485 33191.00000 0.00003
744 13.04558 33020.31264 32840.00000 0.00003
745 13.05507 32994.32783 32884.00000 0.00003
746 13.06456 32968.41237 32967.00000 0.00003
747 13.07404 32942.56839 32888.00000 0.00003
748 13.08353 32916.79818 32966.00000 0.00003
749 13.09302 32891.10428 33021.00000 0.00003
750 13.10251 32865.48944 32807.00000 0.00003
751 13.11199 32839.95668 32756.00000 0.00003
752 13.12148 32814.50933 33048.00000 0.00003
753 13.13097 32789.15104 32995.00000 0.00003
754 13.14046 32763.88586 33234.00000 0.00003
755 13.14994 32738.71825 32700.00000 0.00003
756 13.15943 32713.65318 32757.00000 0.00003
757 13.16892 32688.69618 32809.00000 0.00003
758 13.17841 32663.85342 32596.00000 0.00003
759 13.18790 32639.13183 32704.00000 0.00003
760 13.19738 32614.53921 32966.00000 0.00003
761 13.20687 32590.08438 32644.00000 0.00003
762 13.21636 32565.77740 32708.00000 0.00003
763 13.22585 32541.62974 32469.00000 0.00003
764 13.23533 32517.65465 32705.00000 0.00003
765 13.24482 32493.86749 32785.00000 0.00003
766 13.25431 32470.28627 32373.00000 0.00003
767 13.26380 32446.93235 32263.00000 0.00003
768 13.27328 32423.83131 32312.00000 0.00003
769 13.28277 32401.01425 32446.00000 0.00003
770 13.29226 32378.51937 32488.00000 0.00003
771 13.30175 32356.39354 32529.00000 0.00003
772 13.31124 32334.69322 32098.00000 0.00003
773 13.32072 32313.48395 32303.00000 0.00003
774 13.33021 32292.83893 32331.00000 0.00003
775 13.33970 32272.83847 31971.00000 0.00003
776 13.34919 32253.57066 32443.00000 0.00003
777 13.35867 32235.13300 32174.00000 0.00003
778 13.36816 32217.63446 32152.00000 0.00003
779 13.37765 32201.19769 32107.00000 0.00003
780 13.38714 32185.96170 32369.00000 0.00003
781 13.39662 32172.08482 32298.00000 0.00003
782 13.40611 32159.74811 32023.00000 0.00003
783 13.41560 32149.15933 32145.00000 0.00003
784 13.42509 32140.55769 32535.00000 0.00003
785 13.43458 32134.21950 32092.00000 0.00003
786 13.44406 32130.46512 32055.00000 0.00003
787 13.45355 32129.66724 32114.00000 0.00003
788 13.46304 32132.26101 32070.00000 0.00003
789 13.47253 32138.75622 31985.00000 0.00003
790 13.48201 32149.75208 32052.00000 0.00003
791 13.49150 32165.95469 31825.00000 0.00003
792 13.50099 32188.19764 32244.00000 0.00003
793 13.51048 32217.46505 32109.00000 0.00003
794 13.51997 32254.91603 32290.00000 0.00003
795 13.52945 32301.90691 32206.00000 0.00003
796 13.53894 32360.00389 31832.00000 0.00003
797 13.54843 32430.97267 31986.00000 0.00003
798 13.55792 32516.72815 31940.00000 0.00003
799 13.56740 32619.22774 31657.00000 0.00003
800 13.57689 32740.26358 31948.00000 0.00003
801 13.58638 32880.96325 31806.00000 0.00003
802 13.59587 33040.48210 31509.00000 0.00003
803 13.60535 33212.85864 31925.00000 0.00003
804 13.61484 33380.66346 31990.00000 0.00003
805 13.62433 33506.43556 31854.00000 0.00003
806 13.63382 33532.98278 32049.00000 0.00003
807 13.64331 33411.91152 31802.00000 0.00003
808 13.65279 33150.08844 31538.00000 0.00003
809 13.66228 32816.95373 31645.00000 0.00003
810 13.67177 32493.20307 31699.00000 0.00003
811 13.68126 32222.80242 31375.00000 0.00003
812 13.69074 32011.60386 31539.00000 0.00003
813 13.70023 31848.62671 31513.00000 0.00003
814 13.70972 31720.87759 31517.00000 0.00003
815 13.71921 31618.12832 31469.00000 0.00003
816 13.72869 31533.19526 31508.00000 0.00003
817 13.73818 31461.16479 31336.00000 0.00003
818 13.74767 31398.65493 31330.00000 0.00003
819 13.75716 31343.30126 31109.00000 0.00003
820 13.76665 31293.42358 31201.00000 0.00003
821 13.77613 31247.80813 31002.00000 0.00003
822 13.78562 31205.56305 31197.00000 0.00003
823 13.79511 31166.02189 31188.00000 0.00003
824 13.80460 31128.67859 31266.00000 0.00003
825 13.81408 31093.14315 31431.00000 0.00003
826 13.82357 31059.11097 31100.00000 0.00003
827 13.83306 31026.34116 31103.00000 0.00003
828 13.84255 30994.64108 31066.00000 0.00003
829 13.85204 30963.85509 31356.00000 0.00003
830 13.86152 30933.85624 31154.00000 0.00003
831 13.87101 30904.54011 30785.00000 0.00003
832 13.88050 30875.82011 30873.00000 0.00003
833 13.88999 30847.62389 30596.00000 0.00003
834 13.89947 30819.89063 31094.00000 0.00003
835 13.90896 30792.56883 31063.00000 0.00003
836 13.91845 30765.61466 30782.00000 0.00003
837 13.92794 30738.99060 30909.00000 0.00003
838 13.93742 30712.66436 30921.00000 0.00003
839 13.94691 30686.60802 30696.00000 0.00003
840 13.95640 30660.79735 30812.00000 0.00003
841 13.96589 30635.21119 30743.00000 0.00003
842 13.97538 30609.83102 30723.00000 0.00003
843 13.98486 30584.64058 30921.00000 0.00003
844 13.99435 30559.62550 30482.00000 0.00003
845 14.00384 30534.77306 30818.00000 0.00003
846 14.01333 30510.07199 30419.00000 0.00003
847 14.02281 30485.51222 30339.00000 0.00003
848 14.03230 30461.08476 30429.00000 0.00003
849 14.04179 30436.78158 30590.00000 0.00003
850 14.05128 30412.59545 30609.00000 0.00003
851 14.06076 30388.51984 30561.00000 0.00003
852 14.07025 30364.54888 30615.00000 0.00003
853 14.07974 30340.67726 30008.00000 0.00003
854 14.08923 30316.90015 30417.00000 0.00003
855 14.09872 30293.21317 30433.00000 0.00003
856 14.10820 30269.61231 30164.00000 0.00003
857 14.11769 30246.09395 30523.00000 0.00003
858 14.12718 30222.65475 30430.00000 0.00003
859 14.13667 30199.29165 30327.00000 0.00003
860 14.14615 30176.00185 30343.00000 0.00003
861 14.15564 30152.78278 30334.00000 0.00003
862 14.16513 30129.63208 30477.00000 0.00003
863 14.17462 30106.54754 30136.00000 0.00003
864 14.18411 30083.52715 29984.00000 0.00003
865 14.19359 30060.56905 29988.00000 0.00003
866 14.20308 30037.67150 30075.00000 0.00003
867 14.21257 30014.83288 30109.00000 0.00003
868 14.22206 29992.05172 30357.00000 0.00003
869 14.23154 29969.32661 29878.00000 0.00003
870 14.24103 29946.65626 29919.00000 0.00003
871 14.25052 29924.03946 29988.00000 0.00003
872 14.26001 29901.47509 29589.00000 0.00003
873 14.26949 29878.96208 29738.00000 0.00003
874 14.27898 29856.49945 29893.00000 0.00003
875 14.28847 29834.08627 29818.00000 0.00003
876 14.29796 29811.72166 29925.00000 0.00003
877 14.30745 29789.40481 30091.00000 0.00003
878 14.31693 29767.13494 29569.00000 0.00003
879 14.32642 29744.91133 29962.00000 0.00003
880 14.33591 29722.73329 29503.00000 0.00003
881 14.34540 29700.60018 29769.00000 0.00003
882 14.35488 29678.51138 30046.00000 0.00003
883 14.36437 29656.46631 29645.00000 0.00003
884 14.37386 29634.46443 29283.00000 0.00003
885 14.38335 29612.50522 29835.00000 0.00003
886 14.39283 29590.58817 29645.00000 0.00003
887 14.40232 29568.71283 29632.00000 0.00003
888 14.41181 29546.87874 29457.00000 0.00003
889 14.42130 29525.08548 29550.00000 0.00003
890 14.43079 29503.33264 30020.00000 0.00003
891 14.44027 29481.61984 29379.00000 0.00003
892 14.44976 29459.94671 29654.00000 0.00003
893 14.45925 29438.31290 29597.00000 0.00003
894 14.46874 29416.71806 29579.00000 0.00003
895 14.47822 29395.16187 29380.00000 0.00003
896 14.48771 29373.64403 29570.00000 0.00003
897 14.49720 29352.16424 29267.00000 0.00003
898 14.50669 29330.72220 29604.00000 0.00003
899 14.51617 29309.31765 29412.00000 0.00003
900 14.52566 29287.95033 29388.00000 0.00003
901 14.53515 29266.61997 29508.00000 0.00003
902 14.54464 29245.32633 29415.00000 0.00003
903 14.55413 29224.06918 29225.00000 0.00003
904 14.56361 29202.84829 29390.00000 0.00003
905 14.57310 29181.66343 29247.00000 0.00003
906 14.58259 29160.51440 29488.00000 0.00003
907 14.59208 29139.40099 29339.00000 0.00003
908 14.60156 29118.32299 29034.00000 0.00003
909 14.61105 29097.28022 28996.00000 0.00003
910 14.62054 29076.27249 29050.00000 0.00003
911 14.63003 29055.29961 29093.00000 0.00003
912 14.63952 29034.36140 29086.00000 0.00003
913 14.64900 29013.45770 29244.00000 0.00003
914 14.65849 28992.58834 28866.00000 0.00003
915 14.66798 28971.75316 28911.00000 0.00003
916 14.67747 28950.95198 29104.00000 0.00003
917 14.68695 28930.18467 28858.00000 0.00003
918 14.69644 28909.45107 28856.00000 0.00003
919 14.70593 28888.75103 28921.00000 0.00003
920 14.71542 28868.08441 29140.00000 0.00003
921 14.72490 28847.45106 29229.00000 0.00003
922 14.73439 28826.85085 28990.00000 0.00003
923 14.74388 28806.28364 28708.00000 0.00003
924 14.75337 28785.74931 29142.00000 0.00003
925 14.76286 28765.24772 28952.00000 0.00003
926 14.77234 28744.77874 28562.00000 0.00004
927 14.78183 28724.34224 28494.00000 0.00004
928 14.79132 28703.93812 28774.00000 0.00003
929 14.80081 28683.56624 28601.00000 0.00003
930 14.81029 28663.22650 28808.00000 0.00003
931 14.81978 28642.91876 28498.00000 0.00004
932 14.82927 28622.64292 28833.00000 0.00003
933 14.83876 28602.39886 28496.00000 0.00004
934 14.84824 28582.18648 28735.00000 0.00003
935 14.85773 28562.00567 28329.00000 0.00004
936 14.86722 28541.85631 28627.00000 0.00003
937 14.87671 28521.73830 28275.00000 0.00004
938 14.88620 28501.65154 28645.00000 0.00003
939 14.89568 28481.59592 28638.00000 0.00003
940 14.90517 28461.57134 28485.00000 0.00004
941 14.91466 28441.57770 28703.00000 0.00003
942 14.92415 28421.61490 28444.00000 0.00004
943 14.93363 28401.68283 28522.00000 0.00004
944 14.94312 28381.78142 28394.00000 0.00004
945 14.95261 28361.91054 28412.00000 0.00004
946 14.96210 28342.07012 28404.00000 0.00004
947 14.97159 28322.26005 28319.00000 0.00004
948 14.98107 28302.48025 28384.00000 0.00004
949 14.99056 28282.73062 28571.00000 0.00004
950 15.00005 28263.01106 28152.00000 0.00004
951 15.00954 28243.32149 28470.00000 0.00004
952 15.01902 28223.66181 28307.00000 0.00004
953 15.02851 28204.03194 28165.00000 0.00004
954 15.03800 28184.43178 28289.00000 0.00004
955 15.04749 28164.86126 28379.00000 0.00004
956 15.05697 28145.32027 28182.00000 0.00004
957 15.06646 28125.80873 28024.00000 0.00004
958 15.07595 28106.32657 28100.00000 0.00004
959 15.08544 28086.87368 28081.00000 0.00004
960 15.09493 28067.44998 28168.00000 0.00004
961 15.10441 28048.05540 28153.00000 0.00004
962 15.11390 28028.68984 28139.00000 0.00004
963 15.12339 28009.35322 27950.00000 0.00004
964 15.13288 27990.04546 27790.00000 0.00004
965 15.14236 27970.76648 27821.00000 0.00004
966 15.15185 27951.51618 28033.00000 0.00004
967 15.16134 27932.29449 28084.00000 0.00004
968 15.17083 27913.10134 28139.00000 0.00004
969 15.18031 27893.93662 27958.00000 0.00004
970 15.18980 27874.80027 28033.00000 0.00004
971 15.19929 27855.69221 27686.00000 0.00004
972 15.20878 27836.61235 27430.00000 0.00004
973 15.21827 27817.56061 27770.00000 0.00004
974 15.22775 27798.53691 27645.00000 0.00004
975 15.23724 27779.54118 28327.00000 0.00004
976 15.24673 27760.57333 27461.00000 0.00004
977 15.25622 27741.63328 27813.00000 0.00004
978 15.26570 27722.72096 27766.00000 0.00004
979 15.27519 27703.83629 27734.00000 0.00004
980 15.28468 27684.97918 27415.00000 0.00004
981 15.29417 27666.14957 27849.00000 0.00004
982 15.30366 27647.34737 27592.00000 0.00004
983 15.31314 27628.57250 27671.00000 0.00004
984 15.32263 27609.82485 27429.00000 0.00004
985 15.33212 27591.10434 27259.00000 0.00004
986 15.34161 27572.41084 27364.00000 0.00004
987 15.35109 27553.74426 27596.00000 0.00004
988 15.36058 27535.10445 27503.00000 0.00004
989 15.37007 27516.49131 27619.00000 0.00004
990 15.37956 27497.90469 27627.00000 0.00004
991 15.38904 27479.34446 27444.00000 0.00004
992 15.39853 27460.81045 27888.00000 0.00004
993 15.40802 27442.30250 27621.00000 0.00004
994 15.41751 27423.82043 27512.00000 0.00004
995 15.42700 27405.36403 27096.00000 0.00004
996 15.43648 27386.93307 27379.00000 0.00004
997 15.44597 27368.52732 27509.00000 0.00004
998 15.45546 27350.14648 27565.00000 0.00004
999 15.46495 27331.79023 27572.00000 0.00004
1000 15.47443 27313.45822 26980.00000 0.00004
1001 15.48392 27295.15000 27147.00000 0.00004
1002 15.49341 27276.86509 27421.00000 0.00004
1003 15.50290 27258.60290 27311.00000 0.00004
1004 15.51238 27240.36272 27437.00000 0.00004
1005 15.52187 27222.14368 27524.00000 0.00004
1006 15.53136 27203.94473 27370.00000 0.00004
1007 15.54085 27185.76453 27043.00000 0.00004
1008 15.55034 27167.60138 27456.00000 0.00004
1009 15.55982 27149.45300 26999.00000 0.00004
1010 15.56931 27131.31652 27042.00000 0.00004
1011 15.57880 27113.18843 27019.00000 0.00004
1012 15.58829 27095.06422 27037.00000 0.00004
1013 15.59777 27076.93731 27087.00000 0.00004
1014 15.60726 27058.79713 27048.00000 0.00004
1015 15.61675 27040.62387 26972.00000 0.00004
1016 15.62624 27022.36404 27113.00000 0.00004
1017 15.63572 27003.95488 27105.00000 0.00004
1018 15.64521 26985.55355 27105.00000 0.00004
1019 15.65470 26967.43576 26920.00000 0.00004
1020 15.66419 26949.57521 27136.00000 0.00004
1021 15.67368 26931.79838 26890.00000 0.00004
1022 15.68316 26914.05031 26895.00000 0.00004
1023 15.69265 26896.32696 26658.00000 0.00004
1024 15.70214 26878.62797 26901.00000 0.00004
1025 15.71163 26860.95315 26819.00000 0.00004
1026 15.72111 26843.30240 26944.00000 0.00004
1027 15.73060 26825.67558 26797.00000 0.00004
1028 15.74009 26808.07251 26731.00000 0.00004
1029 15.74958 26790.49312 26563.00000 0.00004
1030 15.75907 26772.93733 26889.00000 0.00004
1031 15.76855 26755.40507 26530.00000 0.00004
1032 15.77804 26737.89626 26684.00000 0.00004
1033 15.78753 26720.41085 26512.00000 0.00004
1034 15.79702 26702.94877 26728.00000 0.00004
1035 15.80650 26685.50993 26964.00000 0.00004
1036 15.81599 26668.09428 26523.00000 0.00004
1037 15.82548 26650.70175 26596.00000 0.00004
1038 15.83497 26633.33226 26469.00000 0.00004
1039 15.84445 26615.98575 26346.00000 0.00004
1040 15.85394 26598.66214 26420.00000 0.00004
1041 15.86343 26581.36137 26529.00000 0.00004
1042 15.87292 26564.08337 26642.00000 0.00004
1043 15.88241 26546.82807 26717.00000 0.00004
1044 15.89189 26529.59540 26570.00000 0.00004
1045 15.90138 26512.38529 26529.00000 0.00004
1046 15.91087 26495.19767 26209.00000 0.00004
1047 15.92036 26478.03247 26222.00000 0.00004
1048 15.92984 26460.88962 26086.00000 0.00004
1049 15.93933 26443.76905 26285.00000 0.00004
1050 15.94882 26426.67070 26431.00000 0.00004
1051 15.95831 26409.59449 26123.00000 0.00004
1052 15.96779 26392.54035 26475.00000 0.00004
1053 15.97728 26375.50822 26074.00000 0.00004
1054 15.98677 26358.49803 26288.00000 0.00004
1055 15.99626 26341.50970 26406.00000 0.00004
1056 16.00575 26324.54316 26267.00000 0.00004
1057 16.01523 26307.59835 26193.00000 0.00004
1058 16.02472 26290.67520 26201.00000 0.00004
1059 16.03421 26273.77364 26123.00000 0.00004
1060 16.04370 26256.89360 26326.00000 0.00004
1061 16.05318 26240.03500 26241.00000 0.00004
1062 16.06267 26223.19779 26172.00000 0.00004
1063 16.07216 26206.38188 26251.00000 0.00004
1064 16.08165 26189.58722 25881.00000 0.00004
1065 16.09114 26172.81372 26311.00000 0.00004
1066 16.10062 26156.06133 26040.00000 0.00004
1067 16.11011 26139.32997 25930.00000 0.00004
1068 16.11960 26122.61957 26027.00000 0.00004
1069 16.12909 26105.93007 25997.00000 0.00004
1070 16.13857 26089.26139 26057.00000 0.00004
1071 16.14806 26072.61347 25986.00000 0.00004
1072 16.15755 26055.98624 26113.00000 0.00004
1073 16.16704 26039.37962 26160.00000 0.00004
1074 16.17652 26022.79354 25927.00000 0.00004
1075 16.18601 26006.22795 26016.00000 0.00004
1076 16.19550 25989.68276 25914.00000 0.00004
1077 16.20499 25973.15792 25845.00000 0.00004
1078 16.21448 25956.65334 25551.00000 0.00004
1079 16.22396 25940.16897 26071.00000 0.00004
1080 16.23345 25923.70473 26028.00000 0.00004
1081 16.24294 25907.26055 25701.00000 0.00004
1082 16.25243 25890.83637 26061.00000 0.00004
1083 16.26191 25874.43211 25906.00000 0.00004
1084 16.27140 25858.04771 25771.00000 0.00004
1085 16.28089 25841.68309 25759.00000 0.00004
1086 16.29038 25825.33819 25970.00000 0.00004
1087 16.29986 25809.01295 26015.00000 0.00004
1088 16.30935 25792.70728 26013.00000 0.00004
1089 16.31884 25776.42112 25783.00000 0.00004
1090 16.32833 25760.15441 25512.00000 0.00004
1091 16.33782 25743.90707 25502.00000 0.00004
1092 16.34730 25727.67904 25578.00000 0.00004
1093 16.35679 25711.47025 25840.00000 0.00004
1094 16.36628 25695.28062 25637.00000 0.00004
1095 16.37577 25679.11009 25438.00000 0.00004
1096 16.38525 25662.95859 25838.00000 0.00004
1097 16.39474 25646.82606 25932.00000 0.00004
1098 16.40423 25630.71242 25652.00000 0.00004
1099 16.41372 25614.61761 25750.00000 0.00004
1100 16.42321 25598.54155 25350.00000 0.00004
1101 16.43269 25582.48418 25745.00000 0.00004
1102 16.44218 25566.44543 25286.00000 0.00004
1103 16.45167 25550.42524 25384.00000 0.00004
1104 16.46116 25534.42353 25374.00000 0.00004
1105 16.47064 25518.44023 25523.00000 0.00004
1106 16.48013 25502.47528 25411.00000 0.00004
1107 16.48962 25486.52862 25421.00000 0.00004
1108 16.49911 25470.60016 25338.00000 0.00004
1109 16.50859 25454.68985 25056.00000 0.00004
1110 16.51808 25438.79762 25448.00000 0.00004
1111 16.52757 25422.92340 25555.00000 0.00004
1112 16.53706 25407.06711 25405.00000 0.00004
1113 16.54655 25391.22870 25447.00000 0.00004
1114 16.55603 25375.40810 25563.00000 0.00004
1115 16.56552 25359.60523 25131.00000 0.00004
1116 16.57501 25343.82004 25150.00000 0.00004
1117 16.58450 25328.05244 25312.00000 0.00004
1118 16.59398 25312.30239 25274.00000 0.00004
1119 16.60347 25296.56980 25388.00000 0.00004
1120 16.61296 25280.85461 25155.00000 0.00004
1121 16.62245 25265.15676 25445.00000 0.00004
1122 16.63193 25249.47618 24925.00000 0.00004
1123 16.64142 25233.81279 25221.00000 0.00004
1124 16.65091 25218.16654 24946.00000 0.00004
1125 16.66040 25202.53735 25178.00000 0.00004
1126 16.66989 25186.92517 24939.00000 0.00004
1127 16.67937 25171.32992 25000.00000 0.00004
1128 16.68886 25155.75153 25222.00000 0.00004
1129 16.69835 25140.18995 25333.00000 0.00004
1130 16.70784 25124.64509 25350.00000 0.00004
1131 16.71732 25109.11691 25378.00000 0.00004
1132 16.72681 25093.60532 25036.00000 0.00004
1133 16.73630 25078.11027 24891.00000 0.00004
1134 16.74579 25062.63169 24528.00000 0.00004
1135 16.75527 25047.16951 24795.00000 0.00004
1136 16.76476 25031.72367 25029.00000 0.00004
1137 16.77425 25016.29410 25079.00000 0.00004
1138 16.78374 25000.88073 25035.00000 0.00004
1139 16.79323 24985.48350 25126.00000 0.00004
1140 16.80271 24970.10234 25085.00000 0.00004
1141 16.81220 24954.73719 24804.00000 0.00004
1142 16.82169 24939.38799 25073.00000 0.00004
1143 16.83118 24924.05466 25032.00000 0.00004
1144 16.84066 24908.73714 24835.00000 0.00004
1145 16.85015 24893.43537 24461.00000 0.00004
1146 16.85964 24878.14928 24826.00000 0.00004
1147 16.86913 24862.87881 24566.00000 0.00004
1148 16.87862 24847.62388 24788.00000 0.00004
1149 16.88810 24832.38445 24808.00000 0.00004
1150 16.89759 24817.16044 24897.00000 0.00004
1151 16.90708 24801.95178 24827.00000 0.00004
1152 16.91657 24786.75842 24695.00000 0.00004
1153 16.92605 24771.58029 24520.00000 0.00004
1154 16.93554 24756.41732 24572.00000 0.00004
1155 16.94503 24741.26946 24578.00000 0.00004
1156 16.95452 24726.13662 24703.00000 0.00004
1157 16.96400 24711.01877 24715.00000 0.00004
1158 16.97349 24695.91582 24523.00000 0.00004
1159 16.98298 24680.82771 25090.00000 0.00004
1160 16.99247 24665.75439 24485.00000 0.00004
1161 17.00196 24650.69579 24594.00000 0.00004
1162 17.01144 24635.65184 24520.00000 0.00004
1163 17.02093 24620.62248 24852.00000 0.00004
1164 17.03042 24605.60765 24348.00000 0.00004
1165 17.03991 24590.60729 24720.00000 0.00004
1166 17.04939 24575.62133 24464.00000 0.00004
1167 17.05888 24560.64971 24501.00000 0.00004
1168 17.06837 24545.69237 24650.00000 0.00004
1169 17.07786 24530.74924 24665.00000 0.00004
1170 17.08734 24515.82026 24585.00000 0.00004
1171 17.09683 24500.90538 24648.00000 0.00004
1172 17.10632 24486.00452 24100.00000 0.00004
1173 17.11581 24471.11763 24260.00000 0.00004
1174 17.12530 24456.24464 24699.00000 0.00004
1175 17.13478 24441.38550 24193.00000 0.00004
1176 17.14427 24426.54014 24254.00000 0.00004
1177 17.15376 24411.70850 24322.00000 0.00004
1178 17.16325 24396.89051 24561.00000 0.00004
1179 17.17273 24382.08613 24617.00000 0.00004
1180 17.18222 24367.29528 24439.00000 0.00004
1181 17.19171 24352.51791 24050.00000 0.00004
1182 17.20120 24337.75395 24032.00000 0.00004
1183 17.21069 24323.00335 24157.00000 0.00004
1184 17.22017 24308.26604 24264.00000 0.00004
1185 17.22966 24293.54196 24111.00000 0.00004
1186 17.23915 24278.83106 24357.00000 0.00004
1187 17.24864 24264.13328 24411.00000 0.00004
1188 17.25812 24249.44854 24466.00000 0.00004
1189 17.26761 24234.77681 24133.00000 0.00004
1190 17.27710 24220.11801 24040.00000 0.00004
1191 17.28659 24205.47208 24005.00000 0.00004
1192 17.29607 24190.83897 24068.00000 0.00004
1193 17.30556 24176.21862 24110.00000 0.00004
1194 17.31505 24161.61097 24056.00000 0.00004
1195 17.32454 24147.01596 24227.00000 0.00004
1196 17.33403 24132.43354 23995.00000 0.00004
1197 17.34351 24117.86363 24016.00000 0.00004
1198 17.35300 24103.30620 24073.00000 0.00004
1199 17.36249 24088.76117 24121.00000 0.00004
1200 17.37198 24074.22849 23829.00000 0.00004
1201 17.38146 24059.70811 24129.00000 0.00004
1202 17.39095 24045.19996 23820.00000 0.00004
1203 17.40044 24030.70400 24142.00000 0.00004
1204 17.40993 24016.22015 24158.00000 0.00004
1205 17.41941 24001.74837 24013.00000 0.00004
1206 17.42890 23987.28860 23916.00000 0.00004
1207 17.43839 23972.84078 24031.00000 0.00004
1208 17.44788 23958.40486 24168.00000 0.00004
1209 17.45737 23943.98077 23870.00000 0.00004
1210 17.46685 23929.56848 23708.00000 0.00004
1211 17.47634 23915.16791 24010.00000 0.00004
1212 17.48583 23900.77902 23824.00000 0.00004
1213 17.49532 23886.40174 24105.00000 0.00004
1214 17.50480 23872.03603 23725.00000 0.00004
1215 17.51429 23857.68183 23717.00000 0.00004
1216 17.52378 23843.33909 23910.00000 0.00004
1217 17.53327 23829.00774 23742.00000 0.00004
1218 17.54276 23814.68775 23856.00000 0.00004
1219 17.55224 23800.37905 23967.00000 0.00004
1220 17.56173 23786.08158 23803.00000 0.00004
1221 17.57122 23771.79531 23552.00000 0.00004
1222 17.58071 23757.52017 23396.00000 0.00004
1223 17.59019 23743.25611 23978.00000 0.00004
1224 17.59968 23729.00308 23451.00000 0.00004
1225 17.60917 23714.76102 23763.00000 0.00004
1226 17.61866 23700.52989 23627.00000 0.00004
1227 17.62814 23686.30963 23689.00000 0.00004
1228 17.63763 23672.10020 23695.00000 0.00004
1229 17.64712 23657.90153 23516.00000 0.00004
1230 17.65661 23643.71359 23535.00000 0.00004
1231 17.66610 23629.53631 23521.00000 0.00004
1232 17.67558 23615.36965 23463.00000 0.00004
1233 17.68507 23601.21356 23486.00000 0.00004
1234 17.69456 23587.06799 23316.00000 0.00004
1235 17.70405 23572.93289 23518.00000 0.00004
1236 17.71353 23558.80821 23473.00000 0.00004
1237 17.72302 23544.69390 23492.00000 0.00004
1238 17.73251 23530.58991 23579.00000 0.00004
1239 17.74200 23516.49619 23550.00000 0.00004
1240 17.75148 23502.41270 23465.00000 0.00004
1241 17.76097 23488.33939 23301.00000 0.00004
1242 17.77046 23474.27621 23745.00000 0.00004
1243 17.77995 23460.22312 23441.00000 0.00004
1244 17.78944 23446.18006 23226.00000 0.00004
1245 17.79892 23432.14699 23185.00000 0.00004
1246 17.80841 23418.12387 23622.00000 0.00004
1247 17.81790 23404.11064 23403.00000 0.00004
1248 17.82739 23390.10727 23551.00000 0.00004
1249 17.83687 23376.11371 23282.00000 0.00004
1250 17.84636 23362.12991 23347.00000 0.00004
1251 17.85585 23348.15583 23681.00000 0.00004
1252 17.86534 23334.19143 23294.00000 0.00004
1253 17.87482 23320.23665 23306.00000 0.00004
1254 17.88431 23306.29147 23167.00000 0.00004
1255 17.89380 23292.35583 23386.00000 0.00004
1256 17.90329 23278.42969 23298.00000 0.00004
1257 17.91278 23264.51302 23537.00000 0.00004
1258 17.92226 23250.60576 23355.00000 0.00004
1259 17.93175 23236.70788 23162.00000 0.00004
1260 17.94124 23222.81934 23084.00000 0.00004
1261 17.95073 23208.94009 23219.00000 0.00004
1262 17.96021 23195.07010 23120.00000 0.00004
1263 17.96970 23181.20933 22927.00000 0.00004
1264 17.97919 23167.35773 23007.00000 0.00004
1265 17.98868 23153.51527 23253.00000 0.00004
1266 17.99817 23139.68191 23307.00000 0.00004
1267 18.00765 23125.85761 23100.00000 0.00004
1268 18.01714 23112.04233 22894.00000 0.00004
1269 18.02663 23098.23604 23077.00000 0.00004
1270 18.03612 23084.43870 23225.00000 0.00004
1271 18.04560 23070.65027 23237.00000 0.00004
1272 18.05509 23056.87072 23142.00000 0.00004
1273 18.06458 23043.10001 23142.00000 0.00004
1274 18.07407 23029.33811 23288.00000 0.00004
1275 18.08355 23015.58498 22851.00000 0.00004
1276 18.09304 23001.84059 23184.00000 0.00004
1277 18.10253 22988.10491 22923.00000 0.00004
1278 18.11202 22974.37789 23371.00000 0.00004
1279 18.12151 22960.65952 22963.00000 0.00004
1280 18.13099 22946.94975 23122.00000 0.00004
1281 18.14048 22933.24856 22986.00000 0.00004
1282 18.14997 22919.55592 22963.00000 0.00004
1283 18.15946 22905.87179 22616.00000 0.00004
1284 18.16894 22892.19614 23007.00000 0.00004
1285 18.17843 22878.52895 22937.00000 0.00004
1286 18.18792 22864.87019 22734.00000 0.00004
1287 18.19741 22851.21982 22970.00000 0.00004
1288 18.20689 22837.57783 23152.00000 0.00004
1289 18.21638 22823.94418 22983.00000 0.00004
1290 18.22587 22810.31884 23021.00000 0.00004
1291 18.23536 22796.70180 23202.00000 0.00004
1292 18.24485 22783.09302 22751.00000 0.00004
1293 18.25433 22769.49248 22615.00000 0.00004
1294 18.26382 22755.90015 22909.00000 0.00004
1295 18.27331 22742.31602 22767.00000 0.00004
1296 18.28280 22728.74006 22795.00000 0.00004
1297 18.29228 22715.17224 22873.00000 0.00004
1298 18.30177 22701.61254 22978.00000 0.00004
1299 18.31126 22688.06095 22952.00000 0.00004
1300 18.32075 22674.51744 22795.00000 0.00004
1301 18.33024 22660.98200 22549.00000 0.00004
1302 18.33972 22647.45459 22810.00000 0.00004
1303 18.34921 22633.93521 22804.00000 0.00004
1304 18.35870 22620.42383 22781.00000 0.00004
1305 18.36819 22606.92044 22752.00000 0.00004
1306 18.37767 22593.42502 22678.00000 0.00004
1307 18.38716 22579.93755 23007.00000 0.00004
1308 18.39665 22566.45803 22519.00000 0.00004
1309 18.40614 22552.98642 22619.00000 0.00004
1310 18.41562 22539.52273 22695.00000 0.00004
1311 18.42511 22526.06693 22441.00000 0.00004
1312 18.43460 22512.61901 22480.00000 0.00004
1313 18.44409 22499.17897 22468.00000 0.00004
1314 18.45358 22485.74678 22460.00000 0.00004
1315 18.46306 22472.32244 22535.00000 0.00004
1316 18.47255 22458.90594 22806.00000 0.00004
1317 18.48204 22445.49727 22492.00000 0.00004
1318 18.49153 22432.09641 22505.00000 0.00004
1319 18.50101 22418.70337 22663.00000 0.00004
1320 18.51050 22405.31813 22418.00000 0.00004
1321 18.51999 22391.94069 22554.00000 0.00004
1322 18.52948 22378.57104 22617.00000 0.00004
1323 18.53896 22365.20918 22215.00000 0.00005
1324 18.54845 22351.85510 22612.00000 0.00004
1325 18.55794 22338.50880 22357.00000 0.00004
1326 18.56743 22325.17027 22322.00000 0.00004
1327 18.57692 22311.83952 22548.00000 0.00004
1328 18.58640 22298.51654 22425.00000 0.00004
1329 18.59589 22285.20132 22268.00000 0.00004
1330 18.60538 22271.89388 22141.00000 0.00005
1331 18.61487 22258.59421 22186.00000 0.00005
1332 18.62435 22245.30232 22520.00000 0.00004
1333 18.63384 22232.01820 22332.00000 0.00004
1334 18.64333 22218.74186 22336.00000 0.00004
1335 18.65282 22205.47330 22183.00000 0.00005
1336 18.66231 22192.21253 22231.00000 0.00004
1337 18.67179 22178.95955 22501.00000 0.00004
1338 18.68128 22165.71437 22372.00000 0.00004
1339 18.69077 22152.47699 22271.00000 0.00004
1340 18.70026 22139.24743 22200.00000 0.00005
1341 18.70974 22126.02569 21947.00000 0.00005
1342 18.71923 22112.81178 22453.00000 0.00004
1343 18.72872 22099.60571 22151.00000 0.00005
1344 18.73821 22086.40749 22185.00000 0.00005
1345 18.74769 22073.21713 21963.00000 0.00005
1346 18.75718 22060.03465 22298.00000 0.00004
1347 18.76667 22046.86006 22117.00000 0.00005
1348 18.77616 22033.69337 22031.00000 0.00005
1349 18.78565 22020.53460 21844.00000 0.00005
1350 18.79513 22007.38375 22319.00000 0.00004
1351 18.80462 21994.24086 22195.00000 0.00005
1352 18.81411 21981.10593 22004.00000 0.00005
1353 18.82360 21967.97899 22244.00000 0.00004
1354 18.83308 21954.86004 22192.00000 0.00005
1355 18.84257 21941.74912 22149.00000 0.00005
1356 18.85206 21928.64623 22096.00000 0.00005
1357 18.86155 21915.55141 22033.00000 0.00005
1358 18.87103 21902.46466 22165.00000 0.00005
1359 18.88052 21889.38603 22003.00000 0.00005
1360 18.89001 21876.31551 21948.00000 0.00005
1361 18.89950 21863.25315 22022.00000 0.00005
1362 18.90899 21850.19896 21985.00000 0.00005
1363 18.91847 21837.15298 21955.00000 0.00005
1364 18.92796 21824.11521 21881.00000 0.00005
1365 18.93745 21811.08570 21795.00000 0.00005
1366 18.94694 21798.06447 22063.00000 0.00005
1367 18.95642 21785.05154 22031.00000 0.00005
1368 18.96591 21772.04695 21995.00000 0.00005
1369 18.97540 21759.05073 21856.00000 0.00005
1370 18.98489 21746.06291 21827.00000 0.00005
1371 18.99437 21733.08355 21996.00000 0.00005
1372 19.00386 21720.11282 21830.00000 0.00005
1373 19.01335 21707.15095 21793.00000 0.00005
1374 19.02284 21694.19826 21879.00000 0.00005
1375 19.03233 21681.25517 21984.00000 0.00005
1376 19.04181 21668.32220 22003.00000 0.00005
1377 19.05130 21655.39998 21725.00000 0.00005
1378 19.06079 21642.48935 21843.00000 0.00005
1379 19.07028 21629.59133 21652.00000 0.00005
1380 19.07976 21616.70723 21781.00000 0.00005
1381 19.08925 21603.83874 21577.00000 0.00005
1382 19.09874 21590.98802 22093.00000 0.00005
1383 19.10823 21578.15788 21833.00000 0.00005
1384 19.11772 21565.35205 21532.00000 0.00005
1385 19.12720 21552.57560 21608.00000 0.00005
1386 19.13669 21539.83552 21929.00000 0.00005
1387 19.14618 21527.14159 21811.00000 0.00005
1388 19.15567 21514.50790 21465.00000 0.00005
1389 19.16515 21501.95518 21582.00000 0.00005
1390 19.17464 21489.51458 21713.00000 0.00005
1391 19.18413 21477.23907 21531.00000 0.00005
1392 19.19362 21465.25561 21794.00000 0.00005
1393 19.20310 21453.76558 21535.00000 0.00005
1394 19.21259 21442.59022 21832.00000 0.00005
1395 19.22208 21431.01315 21387.00000 0.00005
1396 19.23157 21418.73070 21564.00000 0.00005
1397 19.24106 21406.12840 21826.00000 0.00005
1398 19.25054 21393.49957 21668.00000 0.00005
1399 19.26003 21380.87923 21420.00000 0.00005
1400 19.26952 21368.26962 21703.00000 0.00005
1401 19.27901 21355.67126 21550.00000 0.00005
1402 19.28849 21343.08439 21527.00000 0.00005
1403 19.29798 21330.50929 21602.00000 0.00005
1404 19.30747 21317.94631 21540.00000 0.00005
1405 19.31696 21305.39571 21390.00000 0.00005
1406 19.32644 21292.85764 21434.00000 0.00005
1407 19.33593 21280.33222 21545.00000 0.00005
1408 19.34542 21267.81959 21467.00000 0.00005
1409 19.35491 21255.31988 21377.00000 0.00005
1410 19.36440 21242.83322 21287.00000 0.00005
1411 19.37388 21230.35976 21479.00000 0.00005
1412 19.38337 21217.89965 21199.00000 0.00005
1413 19.39286 21205.45304 21365.00000 0.00005
1414 19.40235 21193.02007 21465.00000 0.00005
1415 19.41183 21180.60091 21580.00000 0.00005
1416 19.42132 21168.19573 21353.00000 0.00005
1417 19.43081 21155.80468 21397.00000 0.00005
1418 19.44030 21143.42795 21458.00000 0.00005
1419 19.44979 21131.06571 21130.00000 0.00005
1420 19.45927 21118.71814 21337.00000 0.00005
1421 19.46876 21106.38543 21223.00000 0.00005
1422 19.47825 21094.06779 21336.00000 0.00005
1423 19.48774 21081.76541 21077.00000 0.00005
1424 19.49722 21069.47850 20981.00000 0.00005
1425 19.50671 21057.20728 21102.00000 0.00005
1426 19.51620 21044.95198 21200.00000 0.00005
1427 19.52569 21032.71282 21355.00000 0.00005
1428 19.53517 21020.49004 21076.00000 0.00005
1429 19.54466 21008.28390 20995.00000 0.00005
1430 19.55415 20996.09466 21383.00000 0.00005
1431 19.56364 20983.92258 20981.00000 0.00005
1432 19.57313 20971.76795 21035.00000 0.00005
1433 19.58261 20959.63105 21244.00000 0.00005
1434 19.59210 20947.51218 20988.00000 0.00005
1435 19.60159 20935.41168 21243.00000 0.00005
1436 19.61108 20923.32985 21142.00000 0.00005
1437 19.62056 20911.26706 21255.00000 0.00005
1438 19.63005 20899.22365 21337.00000 0.00005
1439 19.63954 20887.20001 21197.00000 0.00005
1440 19.64903 20875.19652 20677.00000 0.00005
1441 19.65851 20863.21360 20896.00000 0.00005
1442 19.66800 20851.25169 21007.00000 0.00005
1443 19.67749 20839.31122 20777.00000 0.00005
1444 19.68698 20827.39269 21113.00000 0.00005
1445 19.69647 20815.49658 20902.00000 0.00005
1446 19.70595 20803.62343 20780.00000 0.00005
1447 19.71544 20791.77378 20980.00000 0.00005
1448 19.72493 20779.94823 21149.00000 0.00005
1449 19.73442 20768.14739 21062.00000 0.00005
1450 19.74390 20756.37191 20818.00000 0.00005
1451 19.75339 20744.62247 20799.00000 0.00005
1452 19.76288 20732.89981 20967.00000 0.00005
1453 19.77237 20721.20469 20969.00000 0.00005
1454 19.78186 20709.53793 20762.00000 0.00005
1455 19.79134 20697.90040 21112.00000 0.00005
1456 19.80083 20686.29302 20776.00000 0.00005
1457 19.81032 20674.71677 21101.00000 0.00005
1458 19.81981 20663.17269 20602.00000 0.00005
1459 19.82929 20651.66189 20862.00000 0.00005
1460 19.83878 20640.18555 20933.00000 0.00005
1461 19.84827 20628.74494 20850.00000 0.00005
1462 19.85776 20617.34142 20700.00000 0.00005
1463 19.86724 20605.97642 20851.00000 0.00005
1464 19.87673 20594.65151 20794.00000 0.00005
1465 19.88622 20583.36834 20874.00000 0.00005
1466 19.89571 20572.12871 20908.00000 0.00005
1467 19.90520 20560.93453 20601.00000 0.00005
1468 19.91468 20549.78787 20846.00000 0.00005
1469 19.92417 20538.69097 20586.00000 0.00005
1470 19.93366 20527.64623 20644.00000 0.00005
1471 19.94315 20516.65625 20624.00000 0.00005
1472 19.95263 20505.72386 20636.00000 0.00005
1473 19.96212 20494.85209 20536.00000 0.00005
1474 19.97161 20484.04428 20745.00000 0.00005
1475 19.98110 20473.30402 20801.00000 0.00005
1476 19.99058 20462.63522 20651.00000 0.00005
1477 20.00007 20452.04218 20679.00000 0.00005
1478 20.00956 20441.52956 20853.00000 0.00005
1479 20.01905 20431.10247 20807.00000 0.00005
1480 20.02854 20420.76651 20791.00000 0.00005
1481 20.03802 20410.52783 20304.00000 0.00005
1482 20.04751 20400.39321 20904.00000 0.00005
1483 20.05700 20390.37011 20587.00000 0.00005
1484 20.06649 20380.46675 20670.00000 0.00005
1485 20.07597 20370.69228 20445.00000 0.00005
1486 20.08546 20361.05680 20837.00000 0.00005
1487 20.09495 20351.57159 20381.00000 0.00005
1488 20.10444 20342.24919 20295.00000 0.00005
1489 20.11392 20333.10363 20398.00000 0.00005
1490 20.12341 20324.15067 20498.00000 0.00005
1491 20.13290 20315.40797 20466.00000 0.00005
1492 20.14239 20306.89551 20646.00000 0.00005
1493 20.15188 20298.63586 20583.00000 0.00005
1494 20.16136 20290.65466 20576.00000 0.00005
1495 20.17085 20282.98116 20385.00000 0.00005
1496 20.18034 20275.64881 20368.00000 0.00005
1497 20.18983 20268.69609 20499.00000 0.00005
1498 20.19931 20262.16743 20543.00000 0.00005
1499 20.20880 20256.11446 20437.00000 0.00005
1500 20.21829 20250.59746 20330.00000 0.00005
1501 20.22778 20245.68730 20357.00000 0.00005
1502 20.23727 20241.46792 20111.00000 0.00005
1503 20.24675 20238.03944 20260.00000 0.00005
1504 20.25624 20235.52235 20512.00000 0.00005
1505 20.26573 20234.06304 20336.00000 0.00005
1506 20.27522 20233.84138 20381.00000 0.00005
1507 20.28470 20235.08092 20235.00000 0.00005
1508 20.29419 20238.06289 20174.00000 0.00005
1509 20.30368 20243.14426 19945.00000 0.00005
1510 20.31317 20250.77910 20228.00000 0.00005
1511 20.32265 20261.53912 20354.00000 0.00005
1512 20.33214 20276.12914 20413.00000 0.00005
1513 20.34163 20295.39783 20288.00000 0.00005
1514 20.35112 20320.35123 20381.00000 0.00005
1515 20.36061 20352.17779 20400.00000 0.00005
1516 20.37009 20392.28863 20316.00000 0.00005
1517 20.37958 20442.37268 20273.00000 0.00005
1518 20.38907 20504.46666 20519.00000 0.00005
1519 20.39856 20581.04482 20271.00000 0.00005
1520 20.40804 20675.15064 20656.00000 0.00005
1521 20.41753 20790.51119 20346.00000 0.00005
1522 20.42702 20931.42029 20589.00000 0.00005
1523 20.43651 21102.91804 20700.00000 0.00005
1524 20.44599 21311.45790 20818.00000 0.00005
1525 20.45548 21564.96167 20643.00000 0.00005
1526 20.46497 21872.33552 21073.00000 0.00005
1527 20.47446 22242.88875 21112.00000 0.00005
1528 20.48395 22684.78079 21315.00000 0.00005
1529 20.49343 23201.13066 21608.00000 0.00005
1530 20.50292 23781.53419 22344.00000 0.00004
1531 20.51241 24385.82635 22648.00000 0.00004
1532 20.52190 24921.68218 22591.00000 0.00004
1533 20.53138 25238.24907 22889.00000 0.00004
1534 20.54087 25180.18941 22578.00000 0.00004
1535 20.55036 24701.67394 22400.00000 0.00004
1536 20.55985 23930.37761 21649.00000 0.00005
1537 20.56934 23085.93163 21103.00000 0.00005
1538 20.57882 22337.63444 21047.00000 0.00005
1539 20.58831 21747.10773 20605.00000 0.00005
1540 20.59780 21303.65516 20234.00000 0.00005
1541 20.60729 20973.65836 20300.00000 0.00005
1542 20.61677 20725.34960 20064.00000 0.00005
1543 20.62626 20534.91703 20123.00000 0.00005
1544 20.63575 20385.75971 19959.00000 0.00005
1545 20.64524 20266.47508 19949.00000 0.00005
1546 20.65472 20169.17616 19996.00000 0.00005
1547 20.66421 20088.33533 19940.00000 0.00005
1548 20.67370 20020.02192 19882.00000 0.00005
1549 20.68319 19961.39692 19810.00000 0.00005
1550 20.69268 19910.37639 20041.00000 0.00005
1551 20.70216 19865.40595 19735.00000 0.00005
1552 20.71165 19825.30855 19821.00000 0.00005
1553 20.72114 19789.18017 19748.00000 0.00005
1554 20.73063 19756.31748 19700.00000 0.00005
1555 20.74011 19726.16670 19611.00000 0.00005
1556 20.74960 19698.28704 19603.00000 0.00005
1557 20.75909 19672.32408 19459.00000 0.00005
1558 20.76858 19647.99024 19855.00000 0.00005
1559 20.77806 19625.05017 19697.00000 0.00005
1560 20.78755 19603.30973 19600.00000 0.00005
1561 20.79704 19582.60761 19422.00000 0.00005
1562 20.80653 19562.80890 19566.00000 0.00005
1563 20.81602 19543.79999 19510.00000 0.00005
1564 20.82550 19525.48471 19862.00000 0.00005
1565 20.83499 19507.78118 19660.00000 0.00005
1566 20.84448 19490.61934 19459.00000 0.00005
1567 20.85397 19473.93891 19711.00000 0.00005
1568 20.86345 19457.68788 19347.00000 0.00005
1569 20.87294 19441.82110 19691.00000 0.00005
1570 20.88243 19426.29926 19605.00000 0.00005
1571 20.89192 19411.08803 19490.00000 0.00005
1572 20.90141 19396.15728 19540.00000 0.00005
1573 20.91089 19381.48051 19364.00000 0.00005
1574 20.92038 19367.03434 19682.00000 0.00005
1575 20.92987 19352.79806 19381.00000 0.00005
1576 20.93936 19338.75334 19557.00000 0.00005
1577 20.94884 19324.88386 19663.00000 0.00005
1578 20.95833 19311.17507 19219.00000 0.00005
1579 20.96782 19297.61399 19435.00000 0.00005
1580 20.97731 19284.18904 19470.00000 0.00005
1581 20.98679 19270.88983 19412.00000 0.00005
1582 20.99628 19257.70707 19260.00000 0.00005
1583 21.00577 19244.63241 19484.00000 0.00005
1584 21.01526 19231.65838 19103.00000 0.00005
1585 21.02475 19218.77831 19446.00000 0.00005
1586 21.03423 19205.98618 19004.00000 0.00005
1587 21.04372 19193.27666 19638.00000 0.00005
1588 21.05321 19180.64497 19183.00000 0.00005
1589 21.06270 19168.08688 19165.00000 0.00005
1590 21.07218 19155.59865 19183.00000 0.00005
1591 21.08167 19143.17701 19287.00000 0.00005
1592 21.09116 19130.81910 19369.00000 0.00005
1593 21.10065 19118.52250 19414.00000 0.00005
1594 21.11013 19106.28517 18977.00000 0.00005
1595 21.11962 19094.10544 19273.00000 0.00005
1596 21.12911 19081.98201 19083.00000 0.00005
1597 21.13860 19069.91397 19244.00000 0.00005
1598 21.14809 19057.90073 19319.00000 0.00005
1599 21.15757 19045.94210 19074.00000 0.00005
1600 21.16706 19034.03825 18966.00000 0.00005
1601 21.17655 19022.18972 19110.00000 0.00005
1602 21.18604 19010.39747 19037.00000 0.00005
1603 21.19552 18998.66288 19265.00000 0.00005
1604 21.20501 18986.98779 19184.00000 0.00005
1605 21.21450 18975.37450 18878.00000 0.00005
1606 21.22399 18963.82586 19062.00000 0.00005
1607 21.23347 18952.34531 18882.00000 0.00005
1608 21.24296 18940.93691 18948.00000 0.00005
1609 21.25245 18929.60545 18924.00000 0.00005
1610 21.26194 18918.35652 18967.00000 0.00005
1611 21.27143 18907.19663 18870.00000 0.00005
1612 21.28091 18896.13331 19150.00000 0.00005
1613 21.29040 18885.17532 18853.00000 0.00005
1614 21.29989 18874.33274 18717.00000 0.00005
1615 21.30938 18863.61729 18978.00000 0.00005
1616 21.31886 18853.04253 18741.00000 0.00005
1617 21.32835 18842.62422 18866.00000 0.00005
1618 21.33784 18832.38072 18697.00000 0.00005
1619 21.34733 18822.33348 18832.00000 0.00005
1620 21.35682 18812.50768 18922.00000 0.00005
1621 21.36630 18802.93300 18821.00000 0.00005
1622 21.37579 18793.64465 18917.00000 0.00005
1623 21.38528 18784.68462 18883.00000 0.00005
1624 21.39477 18776.10341 18862.00000 0.00005
1625 21.40425 18767.96222 18641.00000 0.00005
1626 21.41374 18760.33592 18518.00000 0.00005
1627 21.42323 18753.31714 18769.00000 0.00005
1628 21.43272 18747.02171 18957.00000 0.00005
1629 21.44220 18741.59628 19091.00000 0.00005
1630 21.45169 18737.22823 18878.00000 0.00005
1631 21.46118 18734.15758 18858.00000 0.00005
1632 21.47067 18732.68921 18903.00000 0.00005
1633 21.48016 18733.20272 18716.00000 0.00005
1634 21.48964 18736.15996 18661.00000 0.00005
1635 21.49913 18742.11406 18566.00000 0.00005
1636 21.50862 18751.72460 18771.00000 0.00005
1637 21.51811 18765.78173 18960.00000 0.00005
1638 21.52759 18785.23884 18697.00000 0.00005
1639 21.53708 18811.25399 18961.00000 0.00005
1640 21.54657 18845.24095 18909.00000 0.00005
1641 21.55606 18888.93153 18933.00000 0.00005
1642 21.56554 18944.44972 18961.00000 0.00005
1643 21.57503 19014.39405 19059.00000 0.00005
1644 21.58452 19101.91572 19094.00000 0.00005
1645 21.59401 19210.76143 19080.00000 0.00005
1646 21.60350 19345.21427 19477.00000 0.00005
1647 21.61298 19509.78921 19398.00000 0.00005
1648 21.62247 19708.36940 19666.00000 0.00005
1649 21.63196 19942.13605 19997.00000 0.00005
1650 21.64145 20205.10756 20451.00000 0.00005
1651 21.65093 20475.87181 20600.00000 0.00005
1652 21.66042 20707.10928 20849.00000 0.00005
1653 21.66991 20825.43736 21276.00000 0.00005
1654 21.67940 20762.60249 21307.00000 0.00005
1655 21.68889 20510.16304 20845.00000 0.00005
1656 21.69837 20139.09212 20721.00000 0.00005
1657 21.70786 19750.95999 19870.00000 0.00005
1658 21.71735 19415.04861 19646.00000 0.00005
1659 21.72684 19151.83824 18891.00000 0.00005
1660 21.73632 18953.20545 18920.00000 0.00005
1661 21.74581 18803.46627 18715.00000 0.00005
1662 21.75530 18688.71009 18373.00000 0.00005
1663 21.76479 18598.71107 18557.00000 0.00005
1664 21.77427 18526.37623 18547.00000 0.00005
1665 21.78376 18466.83168 18342.00000 0.00005
1666 21.79325 18416.69897 18117.00000 0.00006
1667 21.80274 18373.60364 18293.00000 0.00005
1668 21.81223 18335.85048 18128.00000 0.00006
1669 21.82171 18302.20700 18144.00000 0.00006
1670 21.83120 18271.75772 18178.00000 0.00006
1671 21.84069 18243.80447 18311.00000 0.00005
1672 21.85018 18217.79044 18545.00000 0.00005
1673 21.85966 18193.20454 18152.00000 0.00006
1674 21.86915 18169.55193 18386.00000 0.00005
1675 21.87864 18146.78257 17917.00000 0.00006
1676 21.88813 18125.42086 18196.00000 0.00005
1677 21.89761 18105.60245 18070.00000 0.00006
1678 21.90710 18086.80390 18279.00000 0.00005
1679 21.91659 18068.62566 17991.00000 0.00006
1680 21.92608 18050.94867 17830.00000 0.00006
1681 21.93557 18033.70134 18283.00000 0.00005
1682 21.94505 18016.82522 18284.00000 0.00005
1683 21.95454 18000.27139 18197.00000 0.00005
1684 21.96403 17983.99841 18089.00000 0.00006
1685 21.97352 17967.97094 18082.00000 0.00006
1686 21.98300 17952.15887 18041.00000 0.00006
1687 21.99249 17936.53643 18079.00000 0.00006
1688 22.00198 17921.08142 17830.00000 0.00006
1689 22.01147 17905.77462 18103.00000 0.00006
1690 22.02096 17890.59931 17757.00000 0.00006
1691 22.03044 17875.54091 17926.00000 0.00006
1692 22.03993 17860.58668 18031.00000 0.00006
1693 22.04942 17845.72540 17926.00000 0.00006
1694 22.05891 17830.94721 17899.00000 0.00006
1695 22.06839 17816.24341 17791.00000 0.00006
1696 22.07788 17801.60627 17882.00000 0.00006
1697 22.08737 17787.02896 17654.00000 0.00006
1698 22.09686 17772.50538 17875.00000 0.00006
1699 22.10634 17758.03012 17777.00000 0.00006
1700 22.11583 17743.59833 17902.00000 0.00006
1701 22.12532 17729.20566 17609.00000 0.00006
1702 22.13481 17714.84825 17598.00000 0.00006
1703 22.14430 17700.52261 17595.00000 0.00006
1704 22.15378 17686.22560 17760.00000 0.00006
1705 22.16327 17671.95441 17893.00000 0.00006
1706 22.17276 17657.70650 17923.00000 0.00006
1707 22.18225 17643.47959 17762.00000 0.00006
1708 22.19173 17629.27162 17831.00000 0.00006
1709 22.20122 17615.08073 17453.00000 0.00006
1710 22.21071 17600.90523 17825.00000 0.00006
1711 22.22020 17586.74361 17700.00000 0.00006
1712 22.22968 17572.59451 17781.00000 0.00006
1713 22.23917 17558.45668 17628.00000 0.00006
1714 22.24866 17544.32901 17787.00000 0.00006
1715 22.25815 17530.21050 17418.00000 0.00006
1716 22.26764 17516.10023 17554.00000 0.00006
1717 22.27712 17501.99738 17445.00000 0.00006
1718 22.28661 17487.90123 17580.00000 0.00006
1719 22.29610 17473.81111 17348.00000 0.00006
1720 22.30559 17459.72644 17427.00000 0.00006
1721 22.31507 17445.64667 17557.00000 0.00006
1722 22.32456 17431.57135 17326.00000 0.00006
1723 22.33405 17417.50006 17765.00000 0.00006
1724 22.34354 17403.43242 17613.00000 0.00006
1725 22.35302 17389.36810 17580.00000 0.00006
1726 22.36251 17375.30684 17462.00000 0.00006
1727 22.37200 17361.24837 17592.00000 0.00006
1728 22.38149 17347.19249 17397.00000 0.00006
1729 22.39098 17333.13902 17417.00000 0.00006
1730 22.40046 17319.08781 17632.00000 0.00006
1731 22.40995 17305.03874 17179.00000 0.00006
1732 22.41944 17290.99171 17524.00000 0.00006
1733 22.42893 17276.94664 17597.00000 0.00006
1734 22.43841 17262.90349 17456.00000 0.00006
1735 22.44790 17248.86222 17381.00000 0.00006
1736 22.45739 17234.82282 17467.00000 0.00006
1737 22.46688 17220.78529 17170.00000 0.00006
1738 22.47637 17206.74966 17102.00000 0.00006
1739 22.48585 17192.71595 17362.00000 0.00006
1740 22.49534 17178.68422 17278.00000 0.00006
1741 22.50483 17164.65453 17294.00000 0.00006
1742 22.51432 17150.62694 17344.00000 0.00006
1743 22.52380 17136.60154 17459.00000 0.00006
1744 22.53329 17122.57843 17491.00000 0.00006
1745 22.54278 17108.55770 17299.00000 0.00006
1746 22.55227 17094.53948 17033.00000 0.00006
1747 22.56175 17080.52386 17395.00000 0.00006
1748 22.57124 17066.51099 17106.00000 0.00006
1749 22.58073 17052.50099 17273.00000 0.00006
1750 22.59022 17038.49400 17220.00000 0.00006
1751 22.59971 17024.49017 17002.00000 0.00006
1752 22.60919 17010.48964 17216.00000 0.00006
1753 22.61868 16996.49257 17068.00000 0.00006
1754 22.62817 16982.49911 17135.00000 0.00006
1755 22.63766 16968.50943 17162.00000 0.00006
1756 22.64714 16954.52370 16879.00000 0.00006
1757 22.65663 16940.54208 17157.00000 0.00006
1758 22.66612 16926.56473 17158.00000 0.00006
1759 22.67561 16912.59184 17064.00000 0.00006
1760 22.68509 16898.62359 17151.00000 0.00006
1761 22.69458 16884.66014 16949.00000 0.00006
1762 22.70407 16870.70167 16991.00000 0.00006
1763 22.71356 16856.74837 17015.00000 0.00006
1764 22.72305 16842.80041 16892.00000 0.00006
1765 22.73253 16828.85797 16671.00000 0.00006
1766 22.74202 16814.92116 16923.00000 0.00006
1767 22.75151 16800.99006 16626.00000 0.00006
1768 22.76100 16787.06471 16948.00000 0.00006
1769 22.77048 16773.14511 16949.00000 0.00006
1770 22.77997 16759.23119 16912.00000 0.00006
1771 22.78946 16745.32282 16749.00000 0.00006
1772 22.79895 16731.41980 16868.00000 0.00006
1773 22.80844 16717.52177 16873.00000 0.00006
1774 22.81792 16703.62827 16846.00000 0.00006
1775 22.82741 16689.73861 16825.00000 0.00006
1776 22.83690 16675.85181 16796.00000 0.00006
1777 22.84639 16661.96653 16601.00000 0.00006
1778 22.85587 16648.08082 16739.00000 0.00006
1779 22.86536 16634.19188 16746.00000 0.00006
1780 22.87485 16620.29573 16766.00000 0.00006
1781 22.88434 16606.38636 16691.00000 0.00006
1782 22.89382 16592.45460 16809.00000 0.00006
1783 22.90331 16578.48623 16829.00000 0.00006
1784 22.91280 16564.45621 16535.00000 0.00006
1785 22.92229 16550.30045 16466.00000 0.00006
1786 22.93178 16535.92746 16540.00000 0.00006
1787 22.94126 16521.47956 16737.00000 0.00006
1788 22.95075 16507.30997 16772.00000 0.00006
1789 22.96024 16493.47156 16435.00000 0.00006
1790 22.96973 16479.75444 16392.00000 0.00006
1791 22.97921 16466.05547 16594.00000 0.00006
1792 22.98870 16452.36680 16514.00000 0.00006
1793 22.99819 16438.68815 16520.00000 0.00006
1794 23.00768 16425.01951 16230.00000 0.00006
1795 23.01716 16411.36101 16589.00000 0.00006
1796 23.02665 16397.71272 16492.00000 0.00006
1797 23.03614 16384.07468 16311.00000 0.00006
1798 23.04563 16370.44699 16180.00000 0.00006
1799 23.05512 16356.82980 16517.00000 0.00006
1800 23.06460 16343.22327 16658.00000 0.00006
1801 23.07409 16329.62753 16441.00000 0.00006
1802 23.08358 16316.04274 16714.00000 0.00006
1803 23.09307 16302.46902 16484.00000 0.00006
1804 23.10255 16288.90651 16380.00000 0.00006
1805 23.11204 16275.35536 16251.00000 0.00006
1806 23.12153 16261.81567 16376.00000 0.00006
1807 23.13102 16248.28759 16605.00000 0.00006
1808 23.14051 16234.77123 16323.00000 0.00006
1809 23.14999 16221.26671 16534.00000 0.00006
1810 23.15948 16207.77416 16483.00000 0.00006
1811 23.16897 16194.29367 16307.00000 0.00006
1812 23.17846 16180.82537 16171.00000 0.00006
1813 23.18794 16167.36935 16123.00000 0.00006
1814 23.19743 16153.92573 16458.00000 0.00006
1815 23.20692 16140.49460 16170.00000 0.00006
1816 23.21641 16127.07606 16367.00000 0.00006
1817 23.22589 16113.67021 16501.00000 0.00006
1818 23.23538 16100.27713 16179.00000 0.00006
1819 23.24487 16086.89692 16334.00000 0.00006
1820 23.25436 16073.52966 16111.00000 0.00006
1821 23.26385 16060.17543 16110.00000 0.00006
1822 23.27333 16046.83432 16381.00000 0.00006
1823 23.28282 16033.50639 16350.00000 0.00006
1824 23.29231 16020.19173 16190.00000 0.00006
1825 23.30180 16006.89039 16005.00000 0.00006
1826 23.31128 15993.60246 16154.00000 0.00006
1827 23.32077 15980.32799 16099.00000 0.00006
1828 23.33026 15967.06705 16292.00000 0.00006
1829 23.33975 15953.81970 16232.00000 0.00006
1830 23.34923 15940.58599 16277.00000 0.00006
1831 23.35872 15927.36598 16200.00000 0.00006
1832 23.36821 15914.15972 16245.00000 0.00006
1833 23.37770 15900.96725 15952.00000 0.00006
1834 23.38719 15887.78862 15981.00000 0.00006
1835 23.39667 15874.62389 15989.00000 0.00006
1836 23.40616 15861.47307 16073.00000 0.00006
1837 23.41565 15848.33623 15951.00000 0.00006
1838 23.42514 15835.21338 15792.00000 0.00006
1839 23.43462 15822.10457 15995.00000 0.00006
1840 23.44411 15809.00982 15889.00000 0.00006
1841 23.45360 15795.92917 15812.00000 0.00006
1842 23.46309 15782.86264 16062.00000 0.00006
1843 23.47257 15769.81026 15795.00000 0.00006
1844 23.48206 15756.77205 15768.00000 0.00006
1845 23.49155 15743.74807 15687.00000 0.00006
1846 23.50104 15730.73852 15873.00000 0.00006
1847 23.51053 15717.74409 15792.00000 0.00006
1848 23.52001 15704.76610 15876.00000 0.00006
1849 23.52950 15691.80658 15907.00000 0.00006
1850 23.53899 15678.86826 15798.00000 0.00006
1851 23.54848 15665.95483 15829.00000 0.00006
1852 23.55796 15653.07121 15735.00000 0.00006
1853 23.56745 15640.22402 15598.00000 0.00006
1854 23.57694 15627.42216 15944.00000 0.00006
1855 23.58643 15614.67778 15541.00000 0.00006
1856 23.59592 15602.00777 15919.00000 0.00006
1857 23.60540 15589.43603 15733.00000 0.00006
1858 23.61489 15576.99644 15489.00000 0.00006
1859 23.62438 15564.73855 15452.00000 0.00006
1860 23.63387 15552.73965 15661.00000 0.00006
1861 23.64335 15541.12423 15577.00000 0.00006
1862 23.65284 15530.10420 15717.00000 0.00006
1863 23.66233 15520.15510 15707.00000 0.00006
1864 23.67182 15512.12013 15815.00000 0.00006
1865 23.68130 15505.70008 15478.00000 0.00006
1866 23.69079 15498.09048 15618.00000 0.00006
1867 23.70028 15487.50738 15636.00000 0.00006
1868 23.70977 15475.44490 15302.00000 0.00007
1869 23.71926 15463.28787 15546.00000 0.00006
1870 23.72874 15451.14964 15378.00000 0.00007
1871 23.73823 15439.03580 15497.00000 0.00006
1872 23.74772 15426.94852 15468.00000 0.00006
1873 23.75721 15414.88885 15588.00000 0.00006
1874 23.76669 15402.85785 15280.00000 0.00007
1875 23.77618 15390.85712 15504.00000 0.00006
1876 23.78567 15378.88794 15534.00000 0.00006
1877 23.79516 15366.95104 15544.00000 0.00006
1878 23.80464 15355.04712 15370.00000 0.00007
1879 23.81413 15343.17693 15534.00000 0.00006
1880 23.82362 15331.34126 15473.00000 0.00006
1881 23.83311 15319.54094 15383.00000 0.00007
1882 23.84260 15307.77683 15331.00000 0.00007
1883 23.85208 15296.04986 15362.00000 0.00007
1884 23.86157 15284.36100 15367.00000 0.00007
1885 23.87106 15272.71128 15314.00000 0.00007
1886 23.88055 15261.10177 15429.00000 0.00006
1887 23.89003 15249.53361 15425.00000 0.00006
1888 23.89952 15238.00803 15430.00000 0.00006
1889 23.90901 15226.52630 15528.00000 0.00006
1890 23.91850 15215.08977 15355.00000 0.00007
1891 23.92799 15203.69988 15270.00000 0.00007
1892 23.93747 15192.35815 15322.00000 0.00007
1893 23.94696 15181.06621 15193.00000 0.00007
1894 23.95645 15169.82575 15165.00000 0.00007
1895 23.96594 15158.63860 15429.00000 0.00006
1896 23.97542 15147.50671 15381.00000 0.00007
1897 23.98491 15136.43212 15157.00000 0.00007
1898 23.99440 15125.41702 15055.00000 0.00007
1899 24.00389 15114.46376 15168.00000 0.00007
1900 24.01337 15103.57483 15154.00000 0.00007
1901 24.02286 15092.75286 15064.00000 0.00007
1902 24.03235 15082.00071 14962.00000 0.00007
1903 24.04184 15071.32140 15168.00000 0.00007
1904 24.05133 15060.71816 15229.00000 0.00007
1905 24.06081 15050.19447 15304.00000 0.00007
1906 24.07030 15039.75404 14935.00000 0.00007
1907 24.07979 15029.40085 14880.00000 0.00007
1908 24.08928 15019.13918 14874.00000 0.00007
1909 24.09876 15008.97362 15290.00000 0.00007
1910 24.10825 14998.90910 14833.00000 0.00007
1911 24.11774 14988.95095 15280.00000 0.00007
1912 24.12723 14979.10489 15098.00000 0.00007
1913 24.13671 14969.37710 14870.00000 0.00007
1914 24.14620 14959.77426 14927.00000 0.00007
1915 24.15569 14950.30358 14975.00000 0.00007
1916 24.16518 14940.97288 15004.00000 0.00007
1917 24.17467 14931.79063 15136.00000 0.00007
1918 24.18415 14922.76601 15340.00000 0.00007
1919 24.19364 14913.90902 15134.00000 0.00007
1920 24.20313 14905.23053 14978.00000 0.00007
1921 24.21262 14896.74238 14972.00000 0.00007
1922 24.22210 14888.45750 14812.00000 0.00007
1923 24.23159 14880.39005 14970.00000 0.00007
1924 24.24108 14872.55548 14810.00000 0.00007
1925 24.25057 14864.97078 14901.00000 0.00007
1926 24.26006 14857.65461 14761.00000 0.00007
1927 24.26954 14850.62749 15080.00000 0.00007
1928 24.27903 14843.91206 14892.00000 0.00007
1929 24.28852 14837.53335 14604.00000 0.00007
1930 24.29801 14831.51903 14916.00000 0.00007
1931 24.30749 14825.89986 14735.00000 0.00007
1932 24.31698 14820.71001 14873.00000 0.00007
1933 24.32647 14815.98757 14913.00000 0.00007
1934 24.33596 14811.77513 14696.00000 0.00007
1935 24.34544 14808.12037 14821.00000 0.00007
1936 24.35493 14805.07690 14715.00000 0.00007
1937 24.36442 14802.70508 14493.00000 0.00007
1938 24.37391 14801.07314 14708.00000 0.00007
1939 24.38340 14800.25843 14850.00000 0.00007
1940 24.39288 14800.34893 14793.00000 0.00007
1941 24.40237 14801.44511 14671.00000 0.00007
1942 24.41186 14803.66206 14671.00000 0.00007
1943 24.42135 14807.13225 14726.00000 0.00007
1944 24.43083 14812.00876 14610.00000 0.00007
1945 24.44032 14818.46933 14619.00000 0.00007
1946 24.44981 14826.72137 14693.00000 0.00007
1947 24.45930 14837.00821 15050.00000 0.00007
1948 24.46878 14849.61706 14612.00000 0.00007
1949 24.47827 14864.88905 14675.00000 0.00007
1950 24.48776 14883.23220 14638.00000 0.00007
1951 24.49725 14905.13838 14631.00000 0.00007
1952 24.50674 14931.20557 14868.00000 0.00007
1953 24.51622 14962.16763 14567.00000 0.00007
1954 24.52571 14998.93461 14743.00000 0.00007
1955 24.53520 15042.64795 14900.00000 0.00007
1956 24.54469 15094.75674 14943.00000 0.00007
1957 24.55417 15157.12266 14917.00000 0.00007
1958 24.56366 15232.16024 15022.00000 0.00007
1959 24.57315 15323.01141 15138.00000 0.00007
1960 24.58264 15433.73739 14949.00000 0.00007
1961 24.59212 15569.50187 15278.00000 0.00007
1962 24.60161 15736.74163 15554.00000 0.00006
1963 24.61110 15943.36677 15386.00000 0.00006
1964 24.62059 16199.05508 15832.00000 0.00006
1965 24.63008 16515.68039 15914.00000 0.00006
1966 24.63956 16907.88399 16527.00000 0.00006
1967 24.64905 17393.78716 17073.00000 0.00006
1968 24.65854 17995.82955 17651.00000 0.00006
1969 24.66803 18741.66416 18094.00000 0.00006
1970 24.67751 19664.91318 19089.00000 0.00005
1971 24.68700 20805.31713 19929.00000 0.00005
1972 24.69649 22207.18598 21231.00000 0.00005
1973 24.70598 23913.63634 22380.00000 0.00004
1974 24.71547 25951.28928 23890.00000 0.00004
1975 24.72495 28295.81771 25696.00000 0.00004
1976 24.73444 30806.48743 27360.00000 0.00004
1977 24.74393 33135.84413 29157.00000 0.00003
1978 24.75342 34693.73483 30349.00000 0.00003
1979 24.76290 34831.78012 30460.00000 0.00003
1980 24.77239 33279.86672 29791.00000 0.00003
1981 24.78188 30453.89934 27805.00000 0.00004
1982 24.79137 27207.93937 25116.00000 0.00004
1983 24.80085 24264.39323 22905.00000 0.00004
1984 24.81034 21923.92146 20608.00000 0.00005
1985 24.81983 20172.80607 18643.00000 0.00005
1986 24.82932 18884.74236 17474.00000 0.00006
1987 24.83881 17931.95916 16543.00000 0.00006
1988 24.84829 17216.41203 15860.00000 0.00006
1989 24.85778 16669.17722 15576.00000 0.00006
1990 24.86727 16242.87611 15325.00000 0.00007
1991 24.87676 15904.83702 14902.00000 0.00007
1992 24.88624 15632.27622 14943.00000 0.00007
1993 24.89573 15409.09324 14890.00000 0.00007
1994 24.90522 15223.74246 14496.00000 0.00007
1995 24.91471 15067.81406 14513.00000 0.00007
1996 24.92419 14935.08528 14357.00000 0.00007
1997 24.93368 14820.88157 14635.00000 0.00007
1998 24.94317 14721.64127 14308.00000 0.00007
1999 24.95266 14634.61484 14281.00000 0.00007
2000 24.96215 14557.65386 14385.00000 0.00007
2001 24.97163 14489.06083 14190.00000 0.00007
2002 24.98112 14427.48070 14300.00000 0.00007
2003 24.99061 14371.82153 14401.00000 0.00007
2004 25.00010 14321.19567 14331.00000 0.00007
2005 25.00958 14274.87571 14326.00000 0.00007
2006 25.01907 14232.26103 14156.00000 0.00007
2007 25.02856 14192.85228 14087.00000 0.00007
2008 25.03805 14156.23157 13907.00000 0.00007
2009 25.04754 14122.04705 14126.00000 0.00007
2010 25.05702 14090.00080 13958.00000 0.00007
2011 25.06651 14059.83923 13911.00000 0.00007
2012 25.07600 14031.34539 14161.00000 0.00007
2013 25.08549 14004.33278 13833.00000 0.00007
2014 25.09497 13978.64042 13856.00000 0.00007
2015 25.10446 13954.12873 13815.00000 0.00007
2016 25.11395 13930.67622 13811.00000 0.00007
2017 25.12344 13908.17675 13970.00000 0.00007
2018 25.13292 13886.53727 13794.00000 0.00007
2019 25.14241 13865.67592 13826.00000 0.00007
2020 25.15190 13845.52045 13897.00000 0.00007
2021 25.16139 13826.00690 13849.00000 0.00007
2022 25.17088 13807.07852 13899.00000 0.00007
2023 25.18036 13788.68475 13729.00000 0.00007
2024 25.18985 13770.78047 13797.00000 0.00007
2025 25.19934 13753.32533 13788.00000 0.00007
2026 25.20883 13736.28310 13816.00000 0.00007
2027 25.21831 13719.62123 13793.00000 0.00007
2028 25.22780 13703.31038 13454.00000 0.00007
2029 25.23729 13687.32406 13669.00000 0.00007
2030 25.24678 13671.63831 13773.00000 0.00007
2031 25.25626 13656.23138 13554.00000 0.00007
2032 25.26575 13641.08355 13653.00000 0.00007
2033 25.27524 13626.17685 13636.00000 0.00007
2034 25.28473 13611.49490 13822.00000 0.00007
2035 25.29422 13597.02277 13668.00000 0.00007
2036 25.30370 13582.74677 13109.00000 0.00008
2037 25.31319 13568.65438 13634.00000 0.00007
2038 25.32268 13554.73411 13405.00000 0.00007
2039 25.33217 13540.97541 13639.00000 0.00007
2040 25.34165 13527.36856 13544.00000 0.00007
2041 25.35114 13513.90462 13445.00000 0.00007
2042 25.36063 13500.57534 13331.00000 0.00008
2043 25.37012 13487.37309 13490.00000 0.00007
2044 25.37961 13474.29082 13557.00000 0.00007
2045 25.38909 13461.32201 13427.00000 0.00007
2046 25.39858 13448.46060 13318.00000 0.00008
2047 25.40807 13435.70098 13372.00000 0.00007
2048 25.41756 13423.03793 13334.00000 0.00007
2049 25.42704 13410.46660 13501.00000 0.00007
2050 25.43653 13397.98246 13190.00000 0.00008
2051 25.44602 13385.58133 13169.00000 0.00008
2052 25.45551 13373.25925 13303.00000 0.00008
2053 25.46499 13361.01258 13579.00000 0.00007
2054 25.47448 13348.83787 13382.00000 0.00007
2055 25.48397 13336.73193 13432.00000 0.00007
2056 25.49346 13324.69176 13413.00000 0.00007
2057 25.50295 13312.71455 13388.00000 0.00007
2058 25.51243 13300.79765 13196.00000 0.00008
2059 25.52192 13288.93859 13113.00000 0.00008
2060 25.53141 13277.13505 13457.00000 0.00007
2061 25.54090 13265.38484 13149.00000 0.00008
2062 25.55038 13253.68591 13362.00000 0.00007
2063 25.55987 13242.03633 13372.00000 0.00007
2064 25.56936 13230.43427 13240.00000 0.00008
2065 25.57885 13218.87801 13300.00000 0.00008
2066 25.58833 13207.36593 13396.00000 0.00007
2067 25.59782 13195.89650 13532.00000 0.00007
2068 25.60731 13184.46829 13112.00000 0.00008
2069 25.61680 13173.07991 13416.00000 0.00007
2070 25.62629 13161.73009 13437.00000 0.00007
2071 25.63577 13150.41759 13100.00000 0.00008
2072 25.64526 13139.14126 13410.00000 0.00007
2073 25.65475 13127.89999 13039.00000 0.00008
2074 25.66424 13116.69272 13237.00000 0.00008
2075 25.67372 13105.51827 13074.00000 0.00008
2076 25.68321 13094.37507 13286.00000 0.00008
2077 25.69270 13083.26096 13033.00000 0.00008
2078 25.70219 13072.17320 13338.00000 0.00007
2079 25.71167 13061.10844 13167.00000 0.00008
2080 25.72116 13050.06255 13124.00000 0.00008
2081 25.73065 13039.03033 13097.00000 0.00008
2082 25.74014 13028.00509 13299.00000 0.00008
2083 25.74963 13016.97819 12982.00000 0.00008
2084 25.75911 13005.93808 13117.00000 0.00008
2085 25.76860 12994.86898 13019.00000 0.00008
2086 25.77809 12983.74885 13041.00000 0.00008
2087 25.78758 12972.54662 12916.00000 0.00008
2088 25.79706 12961.21694 13237.00000 0.00008
2089 25.80655 12949.68891 12844.00000 0.00008
2090 25.81604 12937.84780 13112.00000 0.00008
2091 25.82553 12925.49714 12884.00000 0.00008
2092 25.83502 12912.18850 13136.00000 0.00008
2093 25.84450 12897.12812 13139.00000 0.00008
2094 25.85399 12880.67330 12823.00000 0.00008
2095 25.86348 12865.63204 12975.00000 0.00008
2096 25.87297 12853.71251 13196.00000 0.00008
2097 25.88245 12843.34119 13092.00000 0.00008
2098 25.89194 12833.10501 12802.00000 0.00008
2099 25.90143 12822.88880 12940.00000 0.00008
2100 25.91092 12812.68721 12895.00000 0.00008
2101 25.92040 12802.49851 12764.00000 0.00008
2102 25.92989 12792.32210 12810.00000 0.00008
2103 25.93938 12782.15745 12635.00000 0.00008
2104 25.94887 12772.00354 12781.00000 0.00008
2105 25.95836 12761.85972 12893.00000 0.00008
2106 25.96784 12751.72595 12737.00000 0.00008
2107 25.97733 12741.60224 12676.00000 0.00008
2108 25.98682 12731.48858 12915.00000 0.00008
2109 25.99631 12721.38499 12850.00000 0.00008
2110 26.00579 12711.29147 12845.00000 0.00008
2111 26.01528 12701.20803 12706.00000 0.00008
2112 26.02477 12691.13468 12602.00000 0.00008
2113 26.03426 12681.07141 12850.00000 0.00008
2114 26.04374 12671.01824 12616.00000 0.00008
2115 26.05323 12660.97516 12682.00000 0.00008
2116 26.06272 12650.94220 12591.00000 0.00008
2117 26.07221 12640.91934 12620.00000 0.00008
2118 26.08170 12630.90660 12494.00000 0.00008
2119 26.09118 12620.90398 12703.00000 0.00008
2120 26.10067 12610.91148 12663.00000 0.00008
2121 26.11016 12600.92912 12469.00000 0.00008
2122 26.11965 12590.95689 12752.00000 0.00008
2123 26.12913 12580.99480 12652.00000 0.00008
2124 26.13862 12571.04286 12527.00000 0.00008
2125 26.14811 12561.10106 12573.00000 0.00008
2126 26.15760 12551.16942 12594.00000 0.00008
2127 26.16709 12541.24794 12584.00000 0.00008
2128 26.17657 12531.33662 12801.00000 0.00008
2129 26.18606 12521.43547 12610.00000 0.00008
2130 26.19555 12511.54449 12806.00000 0.00008
2131 26.20504 12501.66369 12544.00000 0.00008
2132 26.21452 12491.79306 12513.00000 0.00008
2133 26.22401 12481.93262 12626.00000 0.00008
2134 26.23350 12472.08236 12666.00000 0.00008
2135 26.24299 12462.24229 12488.00000 0.00008
2136 26.25247 12452.41241 12617.00000 0.00008
2137 26.26196 12442.59273 12399.00000 0.00008
2138 26.27145 12432.78325 12535.00000 0.00008
2139 26.28094 12422.98398 12609.00000 0.00008
2140 26.29043 12413.19490 12546.00000 0.00008
2141 26.29991 12403.41604 12398.00000 0.00008
2142 26.30940 12393.64739 12387.00000 0.00008
2143 26.31889 12383.88895 12619.00000 0.00008
2144 26.32838 12374.14073 12636.00000 0.00008
2145 26.33786 12364.40273 12457.00000 0.00008
2146 26.34735 12354.67494 12554.00000 0.00008
2147 26.35684 12344.95739 12419.00000 0.00008
2148 26.36633 12335.25005 12590.00000 0.00008
2149 26.37581 12325.55295 12351.00000 0.00008
2150 26.38530 12315.86608 12258.00000 0.00008
2151 26.39479 12306.18948 12182.00000 0.00008
2152 26.40428 12296.52327 12326.00000 0.00008
2153 26.41377 12286.86773 12292.00000 0.00008
2154 26.42325 12277.22331 12137.00000 0.00008
2155 26.43274 12267.59066 12419.00000 0.00008
2156 26.44223 12257.97066 11877.00000 0.00008
2157 26.45172 12248.36457 12319.00000 0.00008
2158 26.46120 12238.77410 12222.00000 0.00008
2159 26.47069 12229.20171 12393.00000 0.00008
2160 26.48018 12219.65089 12213.00000 0.00008
2161 26.48967 12210.12671 12013.00000 0.00008
2162 26.49916 12200.63649 12186.00000 0.00008
2163 26.50864 12191.19167 12202.00000 0.00008
2164 26.51813 12181.81119 12113.00000 0.00008
2165 26.52762 12172.52773 12199.00000 0.00008
2166 26.53711 12163.40794 12112.00000 0.00008
2167 26.54659 12154.59540 12226.00000 0.00008
2168 26.55608 12146.16801 12145.00000 0.00008
2169 26.56557 12137.68889 12138.00000 0.00008
2170 26.57506 12128.66997 12247.00000 0.00008
2171 26.58454 12119.32577 12297.00000 0.00008
2172 26.59403 12109.96708 12301.00000 0.00008
2173 26.60352 12100.61999 12158.00000 0.00008
2174 26.61301 12091.28570 12287.00000 0.00008
2175 26.62250 12081.96469 12333.00000 0.00008
2176 26.63198 12072.65721 12143.00000 0.00008
2177 26.64147 12063.36348 12091.00000 0.00008
2178 26.65096 12054.08383 12243.00000 0.00008
2179 26.66045 12044.81861 12075.00000 0.00008
2180 26.66993 12035.56801 12139.00000 0.00008
2181 26.67942 12026.33223 12307.00000 0.00008
2182 26.68891 12017.11151 12485.00000 0.00008
2183 26.69840 12007.90606 12310.00000 0.00008
2184 26.70788 11998.71614 12154.00000 0.00008
2185 26.71737 11989.54200 12207.00000 0.00008
2186 26.72686 11980.38392 12220.00000 0.00008
2187 26.73635 11971.24219 11990.00000 0.00008
2188 26.74584 11962.11713 11968.00000 0.00008
2189 26.75532 11953.00906 12118.00000 0.00008
2190 26.76481 11943.91835 11951.00000 0.00008
2191 26.77430 11934.84538 11756.00000 0.00009
2192 26.78379 11925.79054 12039.00000 0.00008
2193 26.79327 11916.75427 11962.00000 0.00008
2194 26.80276 11907.73704 11946.00000 0.00008
2195 26.81225 11898.73933 11834.00000 0.00008
2196 26.82174 11889.76167 12004.00000 0.00008
2197 26.83122 11880.80465 11989.00000 0.00008
2198 26.84071 11871.86886 12002.00000 0.00008
2199 26.85020 11862.95496 12075.00000 0.00008
2200 26.85969 11854.06366 12045.00000 0.00008
2201 26.86918 11845.19572 11887.00000 0.00008
2202 26.87866 11836.35195 11773.00000 0.00008
2203 26.88815 11827.53325 11819.00000 0.00008
2204 26.89764 11818.74056 11859.00000 0.00008
2205 26.90713 11809.97492 11967.00000 0.00008
2206 26.91661 11801.23745 11799.00000 0.00008
2207 26.92610 11792.52937 11964.00000 0.00008
2208 26.93559 11783.85199 11785.00000 0.00008
2209 26.94508 11775.20674 11865.00000 0.00008
2210 26.95457 11766.59519 11890.00000 0.00008
2211 26.96405 11758.01904 11865.00000 0.00008
2212 26.97354 11749.48014 11872.00000 0.00008
2213 26.98303 11740.98053 11805.00000 0.00008
2214 26.99252 11732.52245 11723.00000 0.00009
2215 27.00200 11724.10832 11815.00000 0.00008
2216 27.01149 11715.74084 11758.00000 0.00009
2217 27.02098 11707.42297 11644.00000 0.00009
2218 27.03047 11699.15798 11708.00000 0.00009
2219 27.03995 11690.94946 11600.00000 0.00009
2220 27.04944 11682.80142 11905.00000 0.00008
2221 27.05893 11674.71830 11860.00000 0.00008
2222 27.06842 11666.70503 11569.00000 0.00009
2223 27.07791 11658.76712 11641.00000 0.00009
2224 27.08739 11650.91072 11700.00000 0.00009
2225 27.09688 11643.14273 11654.00000 0.00009
2226 27.10637 11635.47088 11780.00000 0.00008
2227 27.11586 11627.90392 11525.00000 0.00009
2228 27.12534 11620.45170 11670.00000 0.00009
2229 27.13483 11613.12540 11671.00000 0.00009
2230 27.14432 11605.93774 11612.00000 0.00009
2231 27.15381 11598.90321 11556.00000 0.00009
2232 27.16329 11592.03844 11390.00000 0.00009
2233 27.17278 11585.36251 11679.00000 0.00009
2234 27.18227 11578.89748 11541.00000 0.00009
2235 27.19176 11572.66889 11465.00000 0.00009
2236 27.20125 11566.70652 11735.00000 0.00009
2237 27.21073 11561.04522 11744.00000 0.00009
2238 27.22022 11555.72599 11685.00000 0.00009
2239 27.22971 11550.79737 11695.00000 0.00009
2240 27.23920 11546.31718 11810.00000 0.00008
2241 27.24868 11542.35476 11784.00000 0.00008
2242 27.25817 11538.99387 11704.00000 0.00009
2243 27.26766 11536.33654 11639.00000 0.00009
2244 27.27715 11534.50811 11708.00000 0.00009
2245 27.28664 11533.66416 11776.00000 0.00008
2246 27.29612 11533.99977 11809.00000 0.00008
2247 27.30561 11535.76249 11824.00000 0.00008
2248 27.31510 11539.27030 11955.00000 0.00008
2249 27.32459 11544.93662 11733.00000 0.00009
2250 27.33407 11553.30457 11844.00000 0.00008
2251 27.34356 11565.09116 11669.00000 0.00009
2252 27.35305 11581.23933 11776.00000 0.00008
2253 27.36254 11602.97245 11728.00000 0.00009
2254 27.37202 11631.84903 11657.00000 0.00009
2255 27.38151 11669.82536 11778.00000 0.00008
2256 27.39100 11719.34100 11922.00000 0.00008
2257 27.40049 11783.43769 11709.00000 0.00009
2258 27.40998 11865.91265 11799.00000 0.00008
2259 27.41946 11971.49725 11908.00000 0.00008
2260 27.42895 12106.03457 12040.00000 0.00008
2261 27.43844 12276.59089 12449.00000 0.00008
2262 27.44793 12491.34573 12635.00000 0.00008
2263 27.45741 12758.88812 12892.00000 0.00008
2264 27.46690 13086.08701 13112.00000 0.00008
2265 27.47639 13472.95706 13718.00000 0.00007
2266 27.48588 13902.34158 13894.00000 0.00007
2267 27.49536 14324.12406 13985.00000 0.00007
2268 27.50485 14643.73158 14178.00000 0.00007
2269 27.51434 14742.09262 14058.00000 0.00007
2270 27.52383 14545.80445 13918.00000 0.00007
2271 27.53332 14098.12129 13358.00000 0.00007
2272 27.54280 13540.13390 12899.00000 0.00008
2273 27.55229 13011.33738 12617.00000 0.00008
2274 27.56178 12580.69066 12222.00000 0.00008
2275 27.57127 12254.66415 12020.00000 0.00008
2276 27.58075 12013.54306 11814.00000 0.00008
2277 27.59024 11834.60291 11783.00000 0.00008
2278 27.59973 11699.71118 11492.00000 0.00009
2279 27.60922 11595.94930 11626.00000 0.00009
2280 27.61871 11514.41632 11463.00000 0.00009
2281 27.62819 11448.98983 11373.00000 0.00009
2282 27.63768 11395.41980 11521.00000 0.00009
2283 27.64717 11350.71999 11413.00000 0.00009
2284 27.65666 11312.76290 11504.00000 0.00009
2285 27.66614 11280.00978 11319.00000 0.00009
2286 27.67563 11251.33023 11381.00000 0.00009
2287 27.68512 11225.88117 11192.00000 0.00009
2288 27.69461 11203.02473 11229.00000 0.00009
2289 27.70409 11182.27184 11216.00000 0.00009
2290 27.71358 11163.24283 11264.00000 0.00009
2291 27.72307 11145.63960 11136.00000 0.00009
2292 27.73256 11129.22562 11279.00000 0.00009
2293 27.74205 11113.81138 11098.00000 0.00009
2294 27.75153 11099.24368 11125.00000 0.00009
2295 27.76102 11085.39763 10979.00000 0.00009
2296 27.77051 11072.17065 11128.00000 0.00009
2297 27.78000 11059.47785 11049.00000 0.00009
2298 27.78948 11047.24853 11032.00000 0.00009
2299 27.79897 11035.42343 11059.00000 0.00009
2300 27.80846 11023.95258 11015.00000 0.00009
2301 27.81795 11012.79365 11054.00000 0.00009
2302 27.82743 11001.91054 11109.00000 0.00009
2303 27.83692 10991.27235 11196.00000 0.00009
2304 27.84641 10980.85250 11219.00000 0.00009
2305 27.85590 10970.62803 10953.00000 0.00009
2306 27.86539 10960.57904 10998.00000 0.00009
2307 27.87487 10950.68817 10701.00000 0.00009
2308 27.88436 10940.94027 10989.00000 0.00009
2309 27.89385 10931.32205 10956.00000 0.00009
2310 27.90334 10921.82182 11101.00000 0.00009
2311 27.91282 10912.42926 10966.00000 0.00009
2312 27.92231 10903.13522 11030.00000 0.00009
2313 27.93180 10893.93159 10850.00000 0.00009
2314 27.94129 10884.81115 10910.00000 0.00009
2315 27.95077 10875.76745 11055.00000 0.00009
2316 27.96026 10866.79472 10781.00000 0.00009
2317 27.96975 10857.88778 10897.00000 0.00009
2318 27.97924 10849.04198 10945.00000 0.00009
2319 27.98873 10840.25312 11041.00000 0.00009
2320 27.99821 10831.51742 10884.00000 0.00009
2321 28.00770 10822.83144 10783.00000 0.00009
2322 28.01719 10814.19209 10758.00000 0.00009
2323 28.02668 10805.59653 10813.00000 0.00009
2324 28.03616 10797.04221 10838.00000 0.00009
2325 28.04565 10788.52677 10733.00000 0.00009
2326 28.05514 10780.04808 10685.00000 0.00009
2327 28.06463 10771.60417 10810.00000 0.00009
2328 28.07412 10763.19327 10607.00000 0.00009
2329 28.08360 10754.81371 10858.00000 0.00009
2330 28.09309 10746.46400 10728.00000 0.00009
2331 28.10258 10738.14273 10822.00000 0.00009
2332 28.11207 10729.84862 10715.00000 0.00009
2333 28.12155 10721.58049 10801.00000 0.00009
2334 28.13104 10713.33724 10727.00000 0.00009
2335 28.14053 10705.11787 10839.00000 0.00009
2336 28.15002 10696.92142 10739.00000 0.00009
2337 28.15950 10688.74704 10700.00000 0.00009
2338 28.16899 10680.59391 10733.00000 0.00009
2339 28.17848 10672.46130 10729.00000 0.00009
2340 28.18797 10664.34860 10629.00000 0.00009
2341 28.19746 10656.25554 10704.00000 0.00009
2342 28.20694 10648.18252 10868.00000 0.00009
2343 28.21643 10640.13080 10615.00000 0.00009
2344 28.22592 10632.10264 10913.00000 0.00009
2345 28.23541 10624.10151 10826.00000 0.00009
2346 28.24489 10616.13263 10772.00000 0.00009
2347 28.25438 10608.20362 10706.00000 0.00009
2348 28.26387 10600.32579 10742.00000 0.00009
2349 28.27336 10592.51584 10574.00000 0.00009
2350 28.28284 10584.79844 10764.00000 0.00009
2351 28.29233 10577.21181 10991.00000 0.00009
2352 28.30182 10569.81917 10640.00000 0.00009
2353 28.31131 10562.73103 10680.00000 0.00009
2354 28.32080 10556.16902 10723.00000 0.00009
2355 28.33028 10550.59858 10748.00000 0.00009
2356 28.33977 10546.42195 10752.00000 0.00009
2357 28.34926 10542.69957 10966.00000 0.00009
2358 28.35875 10537.58788 10867.00000 0.00009
2359 28.36823 10530.82955 10869.00000 0.00009
2360 28.37772 10523.49363 10723.00000 0.00009
2361 28.38721 10516.13136 10543.00000 0.00009
2362 28.39670 10508.78481 10455.00000 0.00010
2363 28.40619 10501.45386 10586.00000 0.00009
2364 28.41567 10494.13544 10625.00000 0.00009
2365 28.42516 10486.82396 10569.00000 0.00009
2366 28.43465 10479.51037 10375.00000 0.00010
2367 28.44414 10472.17892 10461.00000 0.00010
2368 28.45362 10464.80087 10279.00000 0.00010
2369 28.46311 10457.31527 10538.00000 0.00009
2370 28.47260 10449.58851 10286.00000 0.00010
2371 28.48209 10441.55710 10516.00000 0.00010
2372 28.49157 10433.66485 10382.00000 0.00010
2373 28.50106 10426.38792 10595.00000 0.00009
2374 28.51055 10419.49471 10450.00000 0.00010
2375 28.52004 10412.66855 10276.00000 0.00010
2376 28.52953 10405.88457 10236.00000 0.00010
2377 28.53901 10399.14352 10444.00000 0.00010
2378 28.54850 10392.44702 10443.00000 0.00010
2379 28.55799 10385.79707 10337.00000 0.00010
2380 28.56748 10379.19590 10231.00000 0.00010
2381 28.57696 10372.64582 10259.00000 0.00010
2382 28.58645 10366.14932 10310.00000 0.00010
2383 28.59594 10359.70926 10296.00000 0.00010
2384 28.60543 10353.32873 10321.00000 0.00010
2385 28.61491 10347.01109 10365.00000 0.00010
2386 28.62440 10340.75995 10426.00000 0.00010
2387 28.63389 10334.57923 10341.00000 0.00010
2388 28.64338 10328.47319 10181.00000 0.00010
2389 28.65287 10322.44646 10353.00000 0.00010
2390 28.66235 10316.50406 10262.00000 0.00010
2391 28.67184 10310.65146 10551.00000 0.00009
2392 28.68133 10304.89465 10261.00000 0.00010
2393 28.69082 10299.24014 10198.00000 0.00010
2394 28.70030 10293.69507 10319.00000 0.00010
2395 28.70979 10288.26725 10187.00000 0.00010
2396 28.71928 10282.96528 10316.00000 0.00010
2397 28.72877 10277.79859 10335.00000 0.00010
2398 28.73826 10272.77756 10269.00000 0.00010
2399 28.74774 10267.91366 10309.00000 0.00010
2400 28.75723 10263.21957 10323.00000 0.00010
2401 28.76672 10258.70932 10367.00000 0.00010
2402 28.77621 10254.39849 10300.00000 0.00010
2403 28.78569 10250.30441 10031.00000 0.00010
2404 28.79518 10246.44642 10065.00000 0.00010
2405 28.80467 10242.84609 10170.00000 0.00010
2406 28.81416 10239.52763 10208.00000 0.00010
2407 28.82364 10236.51820 10231.00000 0.00010
2408 28.83313 10233.84841 10313.00000 0.00010
2409 28.84262 10231.55283 10329.00000 0.00010
2410 28.85211 10229.67062 10273.00000 0.00010
2411 28.86160 10228.24628 10023.00000 0.00010
2412 28.87108 10227.33056 10155.00000 0.00010
2413 28.88057 10226.98152 10078.00000 0.00010
2414 28.89006 10227.26587 10141.00000 0.00010
2415 28.89955 10228.26050 10149.00000 0.00010
2416 28.90903 10230.05448 10093.00000 0.00010
2417 28.91852 10232.75137 10194.00000 0.00010
2418 28.92801 10236.47222 10170.00000 0.00010
2419 28.93750 10241.35921 10293.00000 0.00010
2420 28.94698 10247.58028 10355.00000 0.00010
2421 28.95647 10255.33491 10393.00000 0.00010
2422 28.96596 10264.86165 10251.00000 0.00010
2423 28.97545 10276.44764 10291.00000 0.00010
2424 28.98494 10290.44118 10373.00000 0.00010
2425 28.99442 10307.26821 10244.00000 0.00010
2426 29.00391 10327.45426 10344.00000 0.00010
2427 29.01340 10351.65418 10484.00000 0.00010
2428 29.02289 10380.69270 10379.00000 0.00010
2429 29.03237 10415.62060 10363.00000 0.00010
2430 29.04186 10457.79319 10311.00000 0.00010
2431 29.05135 10508.98030 10652.00000 0.00009
2432 29.06084 10571.51849 10664.00000 0.00009
2433 29.07032 10648.51341 10521.00000 0.00010
2434 29.07981 10744.08998 10683.00000 0.00009
2435 29.08930 10863.67455 11136.00000 0.00009
2436 29.09879 11014.29387 11033.00000 0.00009
2437 29.10828 11204.90712 11237.00000 0.00009
2438 29.11776 11446.82366 11641.00000 0.00009
2439 29.12725 11754.25953 12198.00000 0.00008
2440 29.13674 12145.03918 12528.00000 0.00008
2441 29.14623 12641.37137 13344.00000 0.00007
2442 29.15571 13270.49342 14243.00000 0.00007
2443 29.16520 14064.68397 15244.00000 0.00007
2444 29.17469 15059.44751 16276.00000 0.00006
2445 29.18418 16287.18398 17567.00000 0.00006
2446 29.19367 17760.86427 18921.00000 0.00005
2447 29.20315 19439.38469 20450.00000 0.00005
2448 29.21264 21172.45101 22102.00000 0.00005
2449 29.22213 22650.18608 23358.00000 0.00004
2450 29.23162 23436.67137 24656.00000 0.00004
2451 29.24110 23170.74207 24907.00000 0.00004
2452 29.25059 21841.05523 23851.00000 0.00004
2453 29.26008 19848.33354 21260.00000 0.00005
2454 29.26957 17743.08700 18972.00000 0.00005
2455 29.27905 15910.36771 16343.00000 0.00006
2456 29.28854 14478.61366 14632.00000 0.00007
2457 29.29803 13414.48513 13128.00000 0.00008
2458 29.30752 12634.00069 12164.00000 0.00008
2459 29.31701 12058.05501 11592.00000 0.00009
2460 29.32649 11626.80096 11012.00000 0.00009
2461 29.33598 11298.19867 11003.00000 0.00009
2462 29.34547 11043.28759 10757.00000 0.00009
2463 29.35496 10842.06843 10298.00000 0.00010
2464 29.36444 10680.59226 10341.00000 0.00010
2465 29.37393 10549.00691 10184.00000 0.00010
2466 29.38342 10440.25403 10121.00000 0.00010
2467 29.39291 10349.19947 10165.00000 0.00010
2468 29.40239 10272.05132 10076.00000 0.00010
2469 29.41188 10205.96754 9930.00000 0.00010
2470 29.42137 10148.78834 9926.00000 0.00010
2471 29.43086 10098.85123 9989.00000 0.00010
2472 29.44035 10054.86123 10049.00000 0.00010
2473 29.44983 10015.79852 9837.00000 0.00010
2474 29.45932 9980.85186 9879.00000 0.00010
2475 29.46881 9949.36991 9769.00000 0.00010
2476 29.47830 9920.82521 9807.00000 0.00010
2477 29.48778 9894.78725 9948.00000 0.00010
2478 29.49727 9870.90206 9615.00000 0.00010
2479 29.50676 9848.87666 9709.00000 0.00010
2480 29.51625 9828.46706 9706.00000 0.00010
2481 29.52574 9809.46890 9701.00000 0.00010
2482 29.53522 9791.71014 9755.00000 0.00010
2483 29.54471 9775.04529 9909.00000 0.00010
2484 29.55420 9759.35079 9523.00000 0.00011
2485 29.56369 9744.52132 9830.00000 0.00010
2486 29.57317 9730.46686 9506.00000 0.00011
2487 29.58266 9717.11029 9463.00000 0.00011
2488 29.59215 9704.38541 9567.00000 0.00010
2489 29.60164 9692.23540 9539.00000 0.00010
2490 29.61112 9680.61147 9678.00000 0.00010
2491 29.62061 9669.47186 9645.00000 0.00010
2492 29.63010 9658.78093 9608.00000 0.00010
2493 29.63959 9648.50848 9799.00000 0.00010
2494 29.64908 9638.62918 9578.00000 0.00010
2495 29.65856 9629.12213 9753.00000 0.00010
2496 29.66805 9619.97053 9549.00000 0.00010
2497 29.67754 9611.16141 9572.00000 0.00010
2498 29.68703 9602.68552 9447.00000 0.00011
2499 29.69651 9594.53719 9639.00000 0.00010
2500 29.70600 9586.71440 9604.00000 0.00010
2501 29.71549 9579.21887 9519.00000 0.00011
2502 29.72498 9572.05624 9589.00000 0.00010
2503 29.73446 9565.23643 9540.00000 0.00010
2504 29.74395 9558.77404 9532.00000 0.00010
2505 29.75344 9552.68894 9589.00000 0.00010
2506 29.76293 9547.00714 9654.00000 0.00010
2507 29.77242 9541.76173 9615.00000 0.00010
2508 29.78190 9536.99428 9542.00000 0.00010
2509 29.79139 9532.75660 9563.00000 0.00010
2510 29.80088 9529.11298 9558.00000 0.00010
2511 29.81037 9526.14323 9297.00000 0.00011
2512 29.81985 9523.94660 9436.00000 0.00011
2513 29.82934 9522.64710 9326.00000 0.00011
2514 29.83883 9522.40065 9302.00000 0.00011
2515 29.84832 9523.40481 9409.00000 0.00011
2516 29.85781 9525.91231 9378.00000 0.00011
2517 29.86729 9530.24989 9374.00000 0.00011
2518 29.87678 9536.84483 9486.00000 0.00011
2519 29.88627 9546.26235 9407.00000 0.00011
2520 29.89576 9559.25676 9461.00000 0.00011
2521 29.90524 9576.83805 9364.00000 0.00011
2522 29.91473 9600.35057 9318.00000 0.00011
2523 29.92422 9631.55774 9438.00000 0.00011
2524 29.93371 9672.73213 9626.00000 0.00010
2525 29.94319 9726.76302 9705.00000 0.00010
2526 29.95268 9797.29916 9898.00000 0.00010
2527 29.96217 9888.93282 9682.00000 0.00010
2528 29.97166 10007.40939 10039.00000 0.00010
2529 29.98115 10159.81285 9941.00000 0.00010
2530 29.99063 10354.60819 10257.00000 0.00010
2531 30.00012 10601.24922 10259.00000 0.00010
2532 30.00961 10908.66217 10846.00000 0.00009
2533 30.01910 11281.18669 11079.00000 0.00009
2534 30.02858 11709.69191 11473.00000 0.00009
2535 30.03807 12156.19486 11989.00000 0.00008
2536 30.04756 12537.68680 12330.00000 0.00008
2537 30.05705 12733.18106 12358.00000 0.00008
2538 30.06653 12642.85128 12455.00000 0.00008
2539 30.07602 12270.79621 12314.00000 0.00008
2540 30.08551 11736.90450 11380.00000 0.00009
2541 30.09500 11190.89929 10888.00000 0.00009
2542 30.10449 10726.08574 10486.00000 0.00010
2543 30.11397 10366.51653 9973.00000 0.00010
2544 30.12346 10098.56537 9811.00000 0.00010
2545 30.13295 9899.30487 9653.00000 0.00010
2546 30.14244 9749.80621 9528.00000 0.00010
2547 30.15192 9637.17076 9523.00000 0.00011
2548 30.16141 9551.32736 9353.00000 0.00011
2549 30.17090 9484.10034 9391.00000 0.00011
2550 30.18039 9430.04921 9381.00000 0.00011
2551 30.18987 9385.72729 9293.00000 0.00011
2552 30.19936 9348.72707 9287.00000 0.00011
2553 30.20885 9317.32302 9300.00000 0.00011
2554 30.21834 9290.25895 9130.00000 0.00011
2555 30.22783 9266.60592 9239.00000 0.00011
2556 30.23731 9245.66687 9304.00000 0.00011
2557 30.24680 9226.91191 9286.00000 0.00011
2558 30.25629 9209.93311 9103.00000 0.00011
2559 30.26578 9194.41259 9024.00000 0.00011
2560 30.27526 9180.09989 8978.00000 0.00011
2561 30.28475 9166.79571 9007.00000 0.00011
2562 30.29424 9154.33995 9055.00000 0.00011
2563 30.30373 9142.60291 8949.00000 0.00011
2564 30.31322 9131.47866 9033.00000 0.00011
2565 30.32270 9120.88003 9160.00000 0.00011
2566 30.33219 9110.73483 9100.00000 0.00011
2567 30.34168 9100.98283 9132.00000 0.00011
2568 30.35117 9091.57352 8992.00000 0.00011
2569 30.36065 9082.46427 8937.00000 0.00011
2570 30.37014 9073.61893 9133.00000 0.00011
2571 30.37963 9065.00667 8971.00000 0.00011
2572 30.38912 9056.60110 8943.00000 0.00011
2573 30.39860 9048.37951 8922.00000 0.00011
2574 30.40809 9040.32226 9065.00000 0.00011
2575 30.41758 9032.41234 9076.00000 0.00011
2576 30.42707 9024.63494 9038.00000 0.00011
2577 30.43656 9016.97709 9026.00000 0.00011
2578 30.44604 9009.42744 9073.00000 0.00011
2579 30.45553 9001.97601 8944.00000 0.00011
2580 30.46502 8994.61397 9055.00000 0.00011
2581 30.47451 8987.33354 8990.00000 0.00011
2582 30.48399 8980.12779 9136.00000 0.00011
2583 30.49348 8972.99057 8926.00000 0.00011
2584 30.50297 8965.91637 8950.00000 0.00011
2585 30.51246 8958.90028 8978.00000 0.00011
2586 30.52194 8951.93790 9055.00000 0.00011
2587 30.53143 8945.02528 8963.00000 0.00011
2588 30.54092 8938.15885 9277.00000 0.00011
2589 30.55041 8931.33539 9016.00000 0.00011
2590 30.55990 8924.55200 9130.00000 0.00011
2591 30.56938 8917.80605 8960.00000 0.00011
2592 30.57887 8911.09515 9194.00000 0.00011
2593 30.58836 8904.41713 9166.00000 0.00011
2594 30.59785 8897.77001 8905.00000 0.00011
2595 30.60733 8891.15198 9023.00000 0.00011
2596 30.61682 8884.56141 8944.00000 0.00011
2597 30.62631 8877.99678 8902.00000 0.00011
2598 30.63580 8871.45671 8911.00000 0.00011
2599 30.64529 8864.93994 8915.00000 0.00011
2600 30.65477 8858.44529 8878.00000 0.00011
2601 30.66426 8851.97170 8997.00000 0.00011
2602 30.67375 8845.51818 8991.00000 0.00011
2603 30.68324 8839.08382 8929.00000 0.00011
2604 30.69272 8832.66777 8953.00000 0.00011
2605 30.70221 8826.26926 8811.00000 0.00011
2606 30.71170 8819.88757 8869.00000 0.00011
2607 30.72119 8813.52203 8855.00000 0.00011
2608 30.73067 8807.17202 8979.00000 0.00011
2609 30.74016 8800.83696 8887.00000 0.00011
2610 30.74965 8794.51632 8742.00000 0.00011
2611 30.75914 8788.20960 8888.00000 0.00011
2612 30.76863 8781.91633 8667.00000 0.00012
2613 30.77811 8775.63608 8678.00000 0.00012
2614 30.78760 8769.36839 8884.00000 0.00011
2615 30.79709 8763.11271 8773.00000 0.00011
2616 30.80658 8756.86829 8639.00000 0.00012
2617 30.81606 8750.63419 8852.00000 0.00011
2618 30.82555 8744.40922 8606.00000 0.00012
2619 30.83504 8738.19185 8648.00000 0.00012
2620 30.84453 8731.98004 8847.00000 0.00011
2621 30.85401 8725.77097 8525.00000 0.00012
2622 30.86350 8719.56060 8733.00000 0.00011
2623 30.87299 8713.34325 8518.00000 0.00012
2624 30.88248 8707.11029 8687.00000 0.00012
2625 30.89197 8700.84745 8917.00000 0.00011
2626 30.90145 8694.52977 8711.00000 0.00011
2627 30.91094 8688.11042 8696.00000 0.00011
2628 30.92043 8681.46759 8868.00000 0.00011
2629 30.92992 8674.43521 8786.00000 0.00011
2630 30.93940 8667.34110 8854.00000 0.00011
2631 30.94889 8660.78607 8671.00000 0.00012
2632 30.95838 8654.68584 8594.00000 0.00012
2633 30.96787 8648.68080 8631.00000 0.00012
2634 30.97736 8642.68816 8760.00000 0.00011
2635 30.98684 8636.70219 8873.00000 0.00011
2636 30.99633 8630.72234 8650.00000 0.00012
2637 31.00582 8624.74844 8659.00000 0.00012
2638 31.01531 8618.78043 8700.00000 0.00011
2639 31.02479 8612.81816 8662.00000 0.00012
2640 31.03428 8606.86144 8517.00000 0.00012
2641 31.04377 8600.91025 8820.00000 0.00011
2642 31.05326 8594.96459 8480.00000 0.00012
2643 31.06274 8589.02444 8773.00000 0.00011
2644 31.07223 8583.08982 8681.00000 0.00012
2645 31.08172 8577.16073 8540.00000 0.00012
2646 31.09121 8571.23718 8595.00000 0.00012
2647 31.10070 8565.31915 8673.00000 0.00012
2648 31.11018 8559.40666 8490.00000 0.00012
2649 31.11967 8553.49972 8522.00000 0.00012
2650 31.12916 8547.59831 8455.00000 0.00012
2651 31.13865 8541.70245 8289.00000 0.00012
2652 31.14813 8535.81213 8537.00000 0.00012
2653 31.15762 8529.92736 8364.00000 0.00012
2654 31.16711 8524.04815 8480.00000 0.00012
2655 31.17660 8518.17449 8253.00000 0.00012
2656 31.18608 8512.30638 8612.00000 0.00012
2657 31.19557 8506.44384 8508.00000 0.00012
2658 31.20506 8500.58686 8565.00000 0.00012
2659 31.21455 8494.73545 8362.00000 0.00012
2660 31.22404 8488.88960 8415.00000 0.00012
2661 31.23352 8483.04933 8672.00000 0.00012
2662 31.24301 8477.21463 8355.00000 0.00012
2663 31.25250 8471.38551 8378.00000 0.00012
2664 31.26199 8465.56197 8376.00000 0.00012
2665 31.27147 8459.74401 8473.00000 0.00012
2666 31.28096 8453.93164 8409.00000 0.00012
2667 31.29045 8448.12486 8555.00000 0.00012
2668 31.29994 8442.32367 8468.00000 0.00012
2669 31.30942 8436.52808 8450.00000 0.00012
2670 31.31891 8430.73809 8515.00000 0.00012
2671 31.32840 8424.95369 8535.00000 0.00012
2672 31.33789 8419.17491 8493.00000 0.00012
2673 31.34738 8413.40173 8278.00000 0.00012
2674 31.35686 8407.63417 8371.00000 0.00012
2675 31.36635 8401.87222 8399.00000 0.00012
2676 31.37584 8396.11588 8330.00000 0.00012
2677 31.38533 8390.36517 8353.00000 0.00012
2678 31.39481 8384.62009 8319.00000 0.00012
2679 31.40430 8378.88063 8478.00000 0.00012
2680 31.41379 8373.14680 8331.00000 0.00012
2681 31.42328 8367.41861 8311.00000 0.00012
2682 31.43277 8361.69605 8466.00000 0.00012
2683 31.44225 8355.97914 8240.00000 0.00012
2684 31.45174 8350.26787 8474.00000 0.00012
2685 31.46123 8344.56225 8319.00000 0.00012
2686 31.47072 8338.86228 8333.00000 0.00012
2687 31.48020 8333.16798 8589.00000 0.00012
2688 31.48969 8327.47937 8438.00000 0.00012
2689 31.49918 8321.79651 8516.00000 0.00012
2690 31.50867 8316.11947 8414.00000 0.00012
2691 31.51815 8310.44836 8377.00000 0.00012
2692 31.52764 8304.78334 8342.00000 0.00012
2693 31.53713 8299.12465 8355.00000 0.00012
2694 31.54662 8293.47264 8325.00000 0.00012
2695 31.55611 8287.82786 8485.00000 0.00012
2696 31.56559 8282.19119 8399.00000 0.00012
2697 31.57508 8276.56420 8396.00000 0.00012
2698 31.58457 8270.94987 8391.00000 0.00012
2699 31.59406 8265.35550 8347.00000 0.00012
2700 31.60354 8259.79263 8195.00000 0.00012
2701 31.61303 8254.24976 8231.00000 0.00012
2702 31.62252 8248.69069 8347.00000 0.00012
2703 31.63201 8243.10705 7957.00000 0.00013
2704 31.64149 8237.51835 8284.00000 0.00012
2705 31.65098 8231.93479 8456.00000 0.00012
2706 31.66047 8226.35721 8247.00000 0.00012
2707 31.66996 8220.78568 8369.00000 0.00012
2708 31.67945 8215.22023 8317.00000 0.00012
2709 31.68893 8209.66088 8254.00000 0.00012
2710 31.69842 8204.10768 8194.00000 0.00012
2711 31.70791 8198.56066 8168.00000 0.00012
2712 31.71740 8193.01986 8387.00000 0.00012
2713 31.72688 8187.48532 8083.00000 0.00012
2714 31.73637 8181.95705 8229.00000 0.00012
2715 31.74586 8176.43511 7983.00000 0.00013
2716 31.75535 8170.91953 8294.00000 0.00012
2717 31.76484 8165.41036 8045.00000 0.00012
2718 31.77432 8159.90763 8171.00000 0.00012
2719 31.78381 8154.41141 8139.00000 0.00012
2720 31.79330 8148.92173 8191.00000 0.00012
2721 31.80279 8143.43866 7960.00000 0.00013
2722 31.81227 8137.96226 8122.00000 0.00012
2723 31.82176 8132.49260 8186.00000 0.00012
2724 31.83125 8127.02975 8147.00000 0.00012
2725 31.84074 8121.57378 8090.00000 0.00012
2726 31.85022 8116.12478 8122.00000 0.00012
2727 31.85971 8110.68285 8052.00000 0.00012
2728 31.86920 8105.24808 8076.00000 0.00012
2729 31.87869 8099.82060 7938.00000 0.00013
2730 31.88818 8094.40051 8184.00000 0.00012
2731 31.89766 8088.98795 8027.00000 0.00012
2732 31.90715 8083.58307 8123.00000 0.00012
2733 31.91664 8078.18604 8130.00000 0.00012
2734 31.92613 8072.79702 7982.00000 0.00013
2735 31.93561 8067.41623 8027.00000 0.00012
2736 31.94510 8062.04387 8004.00000 0.00012
2737 31.95459 8056.68020 8120.00000 0.00012
2738 31.96408 8051.32548 8040.00000 0.00012
2739 31.97356 8045.98002 8044.00000 0.00012
2740 31.98305 8040.64417 8041.00000 0.00012
2741 31.99254 8035.31830 7949.00000 0.00013
2742 32.00203 8030.00284 8020.00000 0.00012
2743 32.01152 8024.69829 8052.00000 0.00012
2744 32.02100 8019.40520 7981.00000 0.00013
2745 32.03049 8014.12420 7968.00000 0.00013
2746 32.03998 8008.85600 7962.00000 0.00013
2747 32.04947 8003.60142 8054.00000 0.00012
2748 32.05895 7998.36141 8076.00000 0.00012
2749 32.06844 7993.13706 8042.00000 0.00012
2750 32.07793 7987.92961 8008.00000 0.00012
2751 32.08742 7982.74055 8005.00000 0.00012
2752 32.09691 7977.57157 8019.00000 0.00012
2753 32.10639 7972.42468 8054.00000 0.00012
2754 32.11588 7967.30226 7966.00000 0.00013
2755 32.12537 7962.20712 7994.00000 0.00013
2756 32.13486 7957.14261 7951.00000 0.00013
2757 32.14434 7952.11278 7924.00000 0.00013
2758 32.15383 7947.12251 7901.00000 0.00013
2759 32.16332 7942.17776 7893.00000 0.00013
2760 32.17281 7937.28584 7991.00000 0.00013
2761 32.18229 7932.45584 8063.00000 0.00012
2762 32.19178 7927.69914 7991.00000 0.00013
2763 32.20127 7923.03011 7902.00000 0.00013
2764 32.21076 7918.46719 7901.00000 0.00013
2765 32.22025 7914.03424 7868.00000 0.00013
2766 32.22973 7909.76258 7983.00000 0.00013
2767 32.23922 7905.69383 7752.00000 0.00013
2768 32.24871 7901.88388 7716.00000 0.00013
2769 32.25820 7898.40820 7906.00000 0.00013
2770 32.26768 7895.36855 8009.00000 0.00012
2771 32.27717 7892.90062 7960.00000 0.00013
2772 32.28666 7891.18239 7925.00000 0.00013
2773 32.29615 7890.44370 7865.00000 0.00013
2774 32.30563 7890.97781 7979.00000 0.00013
2775 32.31512 7893.15536 7867.00000 0.00013
2776 32.32461 7897.43845 7884.00000 0.00013
2777 32.33410 7904.38825 7938.00000 0.00013
2778 32.34359 7914.64898 7819.00000 0.00013
2779 32.35307 7928.86781 7855.00000 0.00013
2780 32.36256 7947.46541 7793.00000 0.00013
2781 32.37205 7970.11590 8059.00000 0.00012
2782 32.38154 7994.81558 7950.00000 0.00013
2783 32.39102 8016.80951 7934.00000 0.00013
2784 32.40051 8028.67063 8002.00000 0.00012
2785 32.41000 8023.34499 8026.00000 0.00012
2786 32.41949 7999.25694 7893.00000 0.00013
2787 32.42897 7962.36496 7920.00000 0.00013
2788 32.43846 7922.14397 7877.00000 0.00013
2789 32.44795 7885.78003 7908.00000 0.00013
2790 32.45744 7856.02347 7780.00000 0.00013
2791 32.46693 7832.58835 7746.00000 0.00013
2792 32.47641 7814.11860 7787.00000 0.00013
2793 32.48590 7799.25284 7716.00000 0.00013
2794 32.49539 7786.93739 8026.00000 0.00012
2795 32.50488 7776.42600 7936.00000 0.00013
2796 32.51436 7767.20392 7687.00000 0.00013
2797 32.52385 7758.91646 7777.00000 0.00013
2798 32.53334 7751.31725 7759.00000 0.00013
2799 32.54283 7744.23317 7761.00000 0.00013
2800 32.55232 7737.54092 7762.00000 0.00013
2801 32.56180 7731.15140 7725.00000 0.00013
2802 32.57129 7724.99921 7607.00000 0.00013
2803 32.58078 7719.03568 7824.00000 0.00013
2804 32.59027 7713.22402 7682.00000 0.00013
2805 32.59975 7707.53614 7702.00000 0.00013
2806 32.60924 7701.95026 7708.00000 0.00013
2807 32.61873 7696.44932 7632.00000 0.00013
2808 32.62822 7691.01985 7799.00000 0.00013
2809 32.63770 7685.65108 7657.00000 0.00013
2810 32.64719 7680.33432 7775.00000 0.00013
2811 32.65668 7675.06251 7725.00000 0.00013
2812 32.66617 7669.82990 7703.00000 0.00013
2813 32.67566 7664.63170 7638.00000 0.00013
2814 32.68514 7659.46397 7693.00000 0.00013
2815 32.69463 7654.32340 7553.00000 0.00013
2816 32.70412 7649.20721 7628.00000 0.00013
2817 32.71361 7644.11306 7816.00000 0.00013
2818 32.72309 7639.03896 7909.00000 0.00013
2819 32.73258 7633.98319 7577.00000 0.00013
2820 32.74207 7628.94432 7713.00000 0.00013
2821 32.75156 7623.92106 7734.00000 0.00013
2822 32.76104 7618.91235 7617.00000 0.00013
2823 32.77053 7613.91723 7593.00000 0.00013
2824 32.78002 7608.93488 7657.00000 0.00013
2825 32.78951 7603.96458 7857.00000 0.00013
2826 32.79900 7599.00570 7805.00000 0.00013
2827 32.80848 7594.05768 7822.00000 0.00013
2828 32.81797 7589.12003 7691.00000 0.00013
2829 32.82746 7584.19231 7697.00000 0.00013
2830 32.83695 7579.27414 7741.00000 0.00013
2831 32.84643 7574.36517 7706.00000 0.00013
2832 32.85592 7569.46510 7572.00000 0.00013
2833 32.86541 7564.57364 7657.00000 0.00013
2834 32.87490 7559.69055 7578.00000 0.00013
2835 32.88439 7554.81560 7448.00000 0.00013
2836 32.89387 7549.94859 7582.00000 0.00013
2837 32.90336 7545.08935 7632.00000 0.00013
2838 32.91285 7540.23770 7593.00000 0.00013
2839 32.92234 7535.39349 7643.00000 0.00013
2840 32.93182 7530.55660 7824.00000 0.00013
2841 32.94131 7525.72688 7738.00000 0.00013
2842 32.95080 7520.90423 7555.00000 0.00013
2843 32.96029 7516.08854 7688.00000 0.00013
2844 32.96977 7511.27972 7439.00000 0.00013
2845 32.97926 7506.47768 7536.00000 0.00013
2846 32.98875 7501.68234 7627.00000 0.00013
2847 32.99824 7496.89361 7616.00000 0.00013
2848 33.00773 7492.11144 7513.00000 0.00013
2849 33.01721 7487.33576 7525.00000 0.00013
2850 33.02670 7482.56650 7590.00000 0.00013
2851 33.03619 7477.80362 7515.00000 0.00013
2852 33.04568 7473.04705 7626.00000 0.00013
2853 33.05516 7468.29675 7585.00000 0.00013
2854 33.06465 7463.55268 7416.00000 0.00013
2855 33.07414 7458.81478 7657.00000 0.00013
2856 33.08363 7454.08302 7579.00000 0.00013
2857 33.09311 7449.35733 7535.00000 0.00013
2858 33.10260 7444.63762 7517.00000 0.00013
2859 33.11209 7439.92380 7539.00000 0.00013
2860 33.12158 7435.21575 7600.00000 0.00013
2861 33.13107 7430.51330 7305.00000 0.00014
2862 33.14055 7425.81619 7514.00000 0.00013
2863 33.15004 7421.12411 7431.00000 0.00013
2864 33.15953 7416.43655 7459.00000 0.00013
2865 33.16902 7411.75269 7303.00000 0.00014
2866 33.17850 7407.07112 7534.00000 0.00013
2867 33.18799 7402.38913 7369.00000 0.00014
2868 33.19748 7397.69992 7467.00000 0.00013
2869 33.20697 7392.99295 7428.00000 0.00013
2870 33.21646 7388.28074 7371.00000 0.00014
2871 33.22594 7383.59916 7367.00000 0.00014
2872 33.23543 7378.95514 7551.00000 0.00013
2873 33.24492 7374.32804 7411.00000 0.00013
2874 33.25441 7369.70735 7410.00000 0.00013
2875 33.26389 7365.09222 7398.00000 0.00014
2876 33.27338 7360.48259 7429.00000 0.00013
2877 33.28287 7355.87845 7409.00000 0.00013
2878 33.29236 7351.27979 7576.00000 0.00013
2879 33.30184 7346.68657 7276.00000 0.00014
2880 33.31133 7342.09880 7491.00000 0.00013
2881 33.32082 7337.51645 7292.00000 0.00014
2882 33.33031 7332.93951 7298.00000 0.00014
2883 33.33980 7328.36799 7237.00000 0.00014
2884 33.34928 7323.80186 7190.00000 0.00014
2885 33.35877 7319.24113 7367.00000 0.00014
2886 33.36826 7314.68578 7245.00000 0.00014
2887 33.37775 7310.13581 7469.00000 0.00013
2888 33.38723 7305.59121 7137.00000 0.00014
2889 33.39672 7301.05197 7240.00000 0.00014
2890 33.40621 7296.51809 7352.00000 0.00014
2891 33.41570 7291.98955 7271.00000 0.00014
2892 33.42518 7287.46634 7294.00000 0.00014
2893 33.43467 7282.94847 7306.00000 0.00014
2894 33.44416 7278.43592 7321.00000 0.00014
2895 33.45365 7273.92867 7317.00000 0.00014
2896 33.46314 7269.42674 7189.00000 0.00014
2897 33.47262 7264.93009 7315.00000 0.00014
2898 33.48211 7260.43874 7366.00000 0.00014
2899 33.49160 7255.95266 7064.00000 0.00014
2900 33.50109 7251.47185 7131.00000 0.00014
2901 33.51057 7246.99631 7197.00000 0.00014
2902 33.52006 7242.52601 7270.00000 0.00014
2903 33.52955 7238.06096 7346.00000 0.00014
2904 33.53904 7233.60115 7187.00000 0.00014
2905 33.54852 7229.14656 7167.00000 0.00014
2906 33.55801 7224.69718 7176.00000 0.00014
2907 33.56750 7220.25302 7104.00000 0.00014
2908 33.57699 7215.81405 7113.00000 0.00014
2909 33.58648 7211.38028 7244.00000 0.00014
2910 33.59596 7206.95168 7122.00000 0.00014
2911 33.60545 7202.52826 7269.00000 0.00014
2912 33.61494 7198.11000 7232.00000 0.00014
2913 33.62443 7193.69690 7244.00000 0.00014
2914 33.63391 7189.28893 7261.00000 0.00014
2915 33.64340 7184.88611 7141.00000 0.00014
2916 33.65289 7180.48841 7225.00000 0.00014
2917 33.66238 7176.09582 7242.00000 0.00014
2918 33.67187 7171.70834 7340.00000 0.00014
2919 33.68135 7167.32596 7184.00000 0.00014
2920 33.69084 7162.94867 7280.00000 0.00014
2921 33.70033 7158.57645 7115.00000 0.00014
2922 33.70982 7154.20931 7054.00000 0.00014
2923 33.71930 7149.84723 7053.00000 0.00014
2924 33.72879 7145.49020 7197.00000 0.00014
2925 33.73828 7141.13828 7141.00000 0.00014
2926 33.74777 7136.79155 6994.00000 0.00014
2927 33.75725 7132.45023 7244.00000 0.00014
2928 33.76674 7128.11464 7110.00000 0.00014
2929 33.77623 7123.78529 7173.00000 0.00014
2930 33.78572 7119.46299 7032.00000 0.00014
2931 33.79521 7115.14891 7134.00000 0.00014
2932 33.80469 7110.84491 7209.00000 0.00014
2933 33.81418 7106.55408 6998.00000 0.00014
2934 33.82367 7102.28196 7075.00000 0.00014
2935 33.83316 7098.03928 7139.00000 0.00014
2936 33.84264 7093.85270 7141.00000 0.00014
2937 33.85213 7089.76569 7080.00000 0.00014
2938 33.86162 7085.74174 7106.00000 0.00014
2939 33.87111 7081.65123 7237.00000 0.00014
2940 33.88059 7077.45594 7304.00000 0.00014
2941 33.89008 7073.22169 7027.00000 0.00014
2942 33.89957 7068.98820 6971.00000 0.00014
2943 33.90906 7064.76062 7046.00000 0.00014
2944 33.91855 7060.53938 7061.00000 0.00014
2945 33.92803 7056.32464 7156.00000 0.00014
2946 33.93752 7052.11650 6981.00000 0.00014
2947 33.94701 7047.91510 7096.00000 0.00014
2948 33.95650 7043.72060 6964.00000 0.00014
2949 33.96598 7039.53314 7279.00000 0.00014
2950 33.97547 7035.35288 6963.00000 0.00014
2951 33.98496 7031.17995 7041.00000 0.00014
2952 33.99445 7027.01454 7035.00000 0.00014
2953 34.00394 7022.85683 6926.00000 0.00014
2954 34.01342 7018.70700 7084.00000 0.00014
2955 34.02291 7014.56529 7085.00000 0.00014
2956 34.03240 7010.43193 7024.00000 0.00014
2957 34.04189 7006.30718 6985.00000 0.00014
2958 34.05137 7002.19133 7065.00000 0.00014
2959 34.06086 6998.08470 6927.00000 0.00014
2960 34.07035 6993.98763 7037.00000 0.00014
2961 34.07984 6989.90052 6947.00000 0.00014
2962 34.08932 6985.82378 7034.00000 0.00014
2963 34.09881 6981.75789 6986.00000 0.00014
2964 34.10830 6977.70336 6976.00000 0.00014
2965 34.11779 6973.66078 6955.00000 0.00014
2966 34.12728 6969.63078 6918.00000 0.00014
2967 34.13676 6965.61408 6960.00000 0.00014
2968 34.14625 6961.61148 6922.00000 0.00014
2969 34.15574 6957.62386 6831.00000 0.00015
2970 34.16523 6953.65224 6888.00000 0.00015
2971 34.17471 6949.69774 6969.00000 0.00014
2972 34.18420 6945.76162 6948.00000 0.00014
2973 34.19369 6941.84532 6918.00000 0.00014
2974 34.20318 6937.95045 6927.00000 0.00014
2975 34.21266 6934.07886 6879.00000 0.00015
2976 34.22215 6930.23264 6974.00000 0.00014
2977 34.23164 6926.41420 6866.00000 0.00015
2978 34.24113 6922.62628 6834.00000 0.00015
2979 34.25062 6918.87205 6819.00000 0.00015
2980 34.26010 6915.15516 6846.00000 0.00015
2981 34.26959 6911.47984 7036.00000 0.00014
2982 34.27908 6907.85104 6945.00000 0.00014
2983 34.28857 6904.27453 6829.00000 0.00015
2984 34.29805 6900.75710 6850.00000 0.00015
2985 34.30754 6897.30676 6947.00000 0.00014
2986 34.31703 6893.93304 6955.00000 0.00014
2987 34.32652 6890.64733 6883.00000 0.00015
2988 34.33601 6887.46330 6828.00000 0.00015
2989 34.34549 6884.39752 6840.00000 0.00015
2990 34.35498 6881.47018 6857.00000 0.00015
2991 34.36447 6878.70609 6814.00000 0.00015
2992 34.37396 6876.13601 6908.00000 0.00014
2993 34.38344 6873.79841 6821.00000 0.00015
2994 34.39293 6871.74188 6700.00000 0.00015
2995 34.40242 6870.02851 6802.00000 0.00015
2996 34.41191 6868.73852 6863.00000 0.00015
2997 34.42139 6867.97691 6549.00000 0.00015
2998 34.43088 6867.88285 6802.00000 0.00015
2999 34.44037 6868.64312 6977.00000 0.00014
3000 34.44986 6870.51102 6785.00000 0.00015
3001 34.45935 6873.83197 6944.00000 0.00014
3002 34.46883 6879.07588 6923.00000 0.00014
3003 34.47832 6886.87505 6967.00000 0.00014
3004 34.48781 6898.06619 6965.00000 0.00014
3005 34.49730 6913.73727 6909.00000 0.00014
3006 34.50678 6935.28108 6988.00000 0.00014
3007 34.51627 6964.45094 7262.00000 0.00014
3008 34.52576 7003.39660 7148.00000 0.00014
3009 34.53525 7054.61770 7373.00000 0.00014
3010 34.54473 7120.68402 7512.00000 0.00013
3011 34.55422 7203.40437 7588.00000 0.00013
3012 34.56371 7301.91448 7743.00000 0.00013
3013 34.57320 7409.23496 8034.00000 0.00012
3014 34.58269 7508.27422 7959.00000 0.00013
3015 34.59217 7571.91575 8081.00000 0.00012
3016 34.60166 7573.68294 7987.00000 0.00013
3017 34.61115 7506.09931 7965.00000 0.00013
3018 34.62064 7389.02254 7855.00000 0.00013
3019 34.63012 7256.48787 7551.00000 0.00013
3020 34.63961 7135.83732 7436.00000 0.00013
3021 34.64910 7038.70493 7163.00000 0.00014
3022 34.65859 6965.05642 7001.00000 0.00014
3023 34.66807 6910.24429 7049.00000 0.00014
3024 34.67756 6869.23067 6992.00000 0.00014
3025 34.68705 6838.00168 6824.00000 0.00015
3026 34.69654 6813.67963 6864.00000 0.00015
3027 34.70603 6794.27197 6850.00000 0.00015
3028 34.71551 6778.40631 6910.00000 0.00014
3029 34.72500 6765.13153 6728.00000 0.00015
3030 34.73449 6753.78150 6675.00000 0.00015
3031 34.74398 6743.88368 6738.00000 0.00015
3032 34.75346 6735.09799 6768.00000 0.00015
3033 34.76295 6727.17606 6700.00000 0.00015
3034 34.77244 6719.93376 6756.00000 0.00015
3035 34.78193 6713.23273 6674.00000 0.00015
3036 34.79142 6706.96759 6748.00000 0.00015
3037 34.80090 6701.05709 6755.00000 0.00015
3038 34.81039 6695.43788 6578.00000 0.00015
3039 34.81988 6690.06006 6674.00000 0.00015
3040 34.82937 6684.88389 6831.00000 0.00015
3041 34.83885 6679.87751 6592.00000 0.00015
3042 34.84834 6675.01508 6725.00000 0.00015
3043 34.85783 6670.27554 6601.00000 0.00015
3044 34.86732 6665.64157 6670.00000 0.00015
3045 34.87680 6661.09884 6624.00000 0.00015
3046 34.88629 6656.63541 6584.00000 0.00015
3047 34.89578 6652.24129 6579.00000 0.00015
3048 34.90527 6647.90803 6525.00000 0.00015
3049 34.91476 6643.62851 6750.00000 0.00015
3050 34.92424 6639.39664 6596.00000 0.00015
3051 34.93373 6635.20723 6656.00000 0.00015
3052 34.94322 6631.05581 6755.00000 0.00015
3053 34.95271 6626.93854 6641.00000 0.00015
3054 34.96219 6622.85206 6544.00000 0.00015
3055 34.97168 6618.79349 6483.00000 0.00015
3056 34.98117 6614.76029 6689.00000 0.00015
3057 34.99066 6610.75024 6671.00000 0.00015
3058 35.00014 6606.76140 6567.00000 0.00015
3059 35.00963 6602.79205 6636.00000 0.00015
3060 35.01912 6598.84067 6784.00000 0.00015
3061 35.02861 6594.90591 6583.00000 0.00015
3062 35.03810 6590.98658 6555.00000 0.00015
3063 35.04758 6587.08162 6477.00000 0.00015
3064 35.05707 6583.19007 6476.00000 0.00015
3065 35.06656 6579.31108 6512.00000 0.00015
3066 35.07605 6575.44389 6512.00000 0.00015
3067 35.08553 6571.58779 6564.00000 0.00015
3068 35.09502 6567.74218 6386.00000 0.00016
3069 35.10451 6563.90649 6398.00000 0.00016
3070 35.11400 6560.08022 6452.00000 0.00015
3071 35.12349 6556.26289 6463.00000 0.00015
3072 35.13297 6552.45409 6507.00000 0.00015
3073 35.14246 6548.65343 6513.00000 0.00015
3074 35.15195 6544.86058 6653.00000 0.00015
3075 35.16144 6541.07520 6539.00000 0.00015
3076 35.17092 6537.29702 6540.00000 0.00015
3077 35.18041 6533.52577 6546.00000 0.00015
3078 35.18990 6529.76125 6570.00000 0.00015
3079 35.19939 6526.00347 6503.00000 0.00015
3080 35.20887 6522.25278 6424.00000 0.00016
3081 35.21836 6518.51006 6595.00000 0.00015
3082 35.22785 6514.77684 6359.00000 0.00016
3083 35.23734 6511.05555 6470.00000 0.00015
3084 35.24683 6507.35001 6342.00000 0.00016
3085 35.25631 6503.66614 6450.00000 0.00016
3086 35.26580 6500.01380 6372.00000 0.00016
3087 35.27529 6496.41054 6370.00000 0.00016
3088 35.28478 6492.89001 6568.00000 0.00015
3089 35.29426 6489.53003 6430.00000 0.00016
3090 35.30375 6486.49328 6392.00000 0.00016
3091 35.31324 6483.83831 6380.00000 0.00016
3092 35.32273 6481.10157 6445.00000 0.00016
3093 35.33221 6477.79823 6450.00000 0.00016
3094 35.34170 6474.10329 6390.00000 0.00016
3095 35.35119 6470.34797 6426.00000 0.00016
3096 35.36068 6466.68636 6543.00000 0.00015
3097 35.37017 6463.15248 6404.00000 0.00016
3098 35.37965 6459.67666 6552.00000 0.00015
3099 35.38914 6456.21835 6176.00000 0.00016
3100 35.39863 6452.77291 6368.00000 0.00016
3101 35.40812 6449.34081 6412.00000 0.00016
3102 35.41760 6445.92283 6552.00000 0.00015
3103 35.42709 6442.51972 6314.00000 0.00016
3104 35.43658 6439.13230 6262.00000 0.00016
3105 35.44607 6435.76143 6534.00000 0.00015
3106 35.45556 6432.40809 6555.00000 0.00015
3107 35.46504 6429.07338 6375.00000 0.00016
3108 35.47453 6425.75849 6260.00000 0.00016
3109 35.48402 6422.46475 6453.00000 0.00015
3110 35.49351 6419.19361 6304.00000 0.00016
3111 35.50299 6415.94666 6277.00000 0.00016
3112 35.51248 6412.72569 6358.00000 0.00016
3113 35.52197 6409.53263 6226.00000 0.00016
3114 35.53146 6406.36966 6301.00000 0.00016
3115 35.54094 6403.23918 6311.00000 0.00016
3116 35.55043 6400.14386 6400.00000 0.00016
3117 35.55992 6397.08669 6377.00000 0.00016
3118 35.56941 6394.07101 6406.00000 0.00016
3119 35.57890 6391.10053 6381.00000 0.00016
3120 35.58838 6388.17946 6372.00000 0.00016
3121 35.59787 6385.31251 6379.00000 0.00016
3122 35.60736 6382.50499 6422.00000 0.00016
3123 35.61685 6379.76294 6262.00000 0.00016
3124 35.62633 6377.09318 6278.00000 0.00016
3125 35.63582 6374.50349 6360.00000 0.00016
3126 35.64531 6372.00275 6428.00000 0.00016
3127 35.65480 6369.60114 6387.00000 0.00016
3128 35.66428 6367.31035 6445.00000 0.00016
3129 35.67377 6365.14389 6354.00000 0.00016
3130 35.68326 6363.11741 6341.00000 0.00016
3131 35.69275 6361.24909 6383.00000 0.00016
3132 35.70224 6359.56022 6370.00000 0.00016
3133 35.71172 6358.07575 6282.00000 0.00016
3134 35.72121 6356.82514 6313.00000 0.00016
3135 35.73070 6355.84336 6295.00000 0.00016
3136 35.74019 6355.17207 6337.00000 0.00016
3137 35.74967 6354.86131 6548.00000 0.00015
3138 35.75916 6354.97152 6422.00000 0.00016
3139 35.76865 6355.57621 6281.00000 0.00016
3140 35.77814 6356.76549 6270.00000 0.00016
3141 35.78762 6358.65068 6373.00000 0.00016
3142 35.79711 6361.37059 6285.00000 0.00016
3143 35.80660 6365.09991 6344.00000 0.00016
3144 35.81609 6370.06081 6412.00000 0.00016
3145 35.82558 6376.53900 6399.00000 0.00016
3146 35.83506 6384.90640 6324.00000 0.00016
3147 35.84455 6395.65325 6391.00000 0.00016
3148 35.85404 6409.43426 6532.00000 0.00015
3149 35.86353 6427.13454 6383.00000 0.00016
3150 35.87301 6449.96258 6588.00000 0.00015
3151 35.88250 6479.57607 6584.00000 0.00015
3152 35.89199 6518.24145 6688.00000 0.00015
3153 35.90148 6569.02063 6678.00000 0.00015
3154 35.91097 6635.97705 6629.00000 0.00015
3155 35.92045 6724.40024 6953.00000 0.00014
3156 35.92994 6841.04477 7068.00000 0.00014
3157 35.93943 6994.33441 7365.00000 0.00014
3158 35.94892 7194.35312 7811.00000 0.00013
3159 35.95840 7452.15716 7955.00000 0.00013
3160 35.96789 7777.36978 8312.00000 0.00012
3161 35.97738 8172.15843 8767.00000 0.00011
3162 35.98687 8619.32163 9233.00000 0.00011
3163 35.99635 9065.39521 9471.00000 0.00011
3164 36.00584 9411.30946 9885.00000 0.00010
3165 36.01533 9537.38049 9928.00000 0.00010
3166 36.02482 9373.22875 9847.00000 0.00010
3167 36.03431 8960.47835 9670.00000 0.00010
3168 36.04379 8431.96314 9282.00000 0.00011
3169 36.05328 7921.84244 8710.00000 0.00011
3170 36.06277 7501.54146 8236.00000 0.00012
3171 36.07226 7182.69395 7730.00000 0.00013
3172 36.08174 6948.77513 7384.00000 0.00014
3173 36.09123 6778.00917 7049.00000 0.00014
3174 36.10072 6652.15145 6848.00000 0.00015
3175 36.11021 6557.90647 6780.00000 0.00015
3176 36.11969 6486.03724 6519.00000 0.00015
3177 36.12918 6430.19274 6539.00000 0.00015
3178 36.13867 6385.98775 6438.00000 0.00016
3179 36.14816 6350.36596 6183.00000 0.00016
3180 36.15765 6321.17156 6319.00000 0.00016
3181 36.16713 6296.86277 6351.00000 0.00016
3182 36.17662 6276.32066 6238.00000 0.00016
3183 36.18611 6258.72117 6186.00000 0.00016
3184 36.19560 6243.44870 6172.00000 0.00016
3185 36.20508 6230.03722 6182.00000 0.00016
3186 36.21457 6218.12948 6260.00000 0.00016
3187 36.22406 6207.44843 6218.00000 0.00016
3188 36.23355 6197.77689 6170.00000 0.00016
3189 36.24304 6188.94288 6151.00000 0.00016
3190 36.25252 6180.80899 6241.00000 0.00016
3191 36.26201 6173.26442 6195.00000 0.00016
3192 36.27150 6166.21918 6111.00000 0.00016
3193 36.28099 6159.59956 6167.00000 0.00016
3194 36.29047 6153.34482 6165.00000 0.00016
3195 36.29996 6147.40455 6134.00000 0.00016
3196 36.30945 6141.73667 6155.00000 0.00016
3197 36.31894 6136.30584 6063.00000 0.00016
3198 36.32842 6131.08224 6069.00000 0.00016
3199 36.33791 6126.04054 6175.00000 0.00016
3200 36.34740 6121.15917 6107.00000 0.00016
3201 36.35689 6116.41965 6051.00000 0.00017
3202 36.36638 6111.80607 6034.00000 0.00017
3203 36.37586 6107.30471 5962.00000 0.00017
3204 36.38535 6102.90367 5952.00000 0.00017
3205 36.39484 6098.59259 5994.00000 0.00017
3206 36.40433 6094.36242 6073.00000 0.00016
3207 36.41381 6090.20525 6058.00000 0.00017
3208 36.42330 6086.11410 6042.00000 0.00017
3209 36.43279 6082.08285 5992.00000 0.00017
3210 36.44228 6078.10607 6008.00000 0.00017
3211 36.45176 6074.17894 5999.00000 0.00017
3212 36.46125 6070.29720 6023.00000 0.00017
3213 36.47074 6066.45704 5928.00000 0.00017
3214 36.48023 6062.65505 6043.00000 0.00017
3215 36.48972 6058.88819 6101.00000 0.00016
3216 36.49920 6055.15372 6053.00000 0.00017
3217 36.50869 6051.44920 5999.00000 0.00017
3218 36.51818 6047.77240 6057.00000 0.00017
3219 36.52767 6044.12134 5912.00000 0.00017
3220 36.53715 6040.49419 6046.00000 0.00017
3221 36.54664 6036.88932 5978.00000 0.00017
3222 36.55613 6033.30525 5822.00000 0.00017
3223 36.56562 6029.74062 6036.00000 0.00017
3224 36.57511 6026.19420 6002.00000 0.00017
3225 36.58459 6022.66486 5885.00000 0.00017
3226 36.59408 6019.15157 5884.00000 0.00017
3227 36.60357 6015.65334 5930.00000 0.00017
3228 36.61306 6012.16909 5955.00000 0.00017
3229 36.62254 6008.69750 5951.00000 0.00017
3230 36.63203 6005.23685 5857.00000 0.00017
3231 36.64152 6001.78489 5877.00000 0.00017
3232 36.65101 5998.33862 5899.00000 0.00017
3233 36.66049 5994.89380 5819.00000 0.00017
3234 36.66998 5991.44438 6071.00000 0.00016
3235 36.67947 5987.98074 5889.00000 0.00017
3236 36.68896 5984.48626 5936.00000 0.00017
3237 36.69845 5980.92949 5945.00000 0.00017
3238 36.70793 5977.23781 5813.00000 0.00017
3239 36.71742 5973.26010 5929.00000 0.00017
3240 36.72691 5968.95400 5898.00000 0.00017
3241 36.73640 5964.78165 5897.00000 0.00017
3242 36.74588 5961.18277 5920.00000 0.00017
3243 36.75537 5957.91549 5866.00000 0.00017
3244 36.76486 5954.67844 5780.00000 0.00017
3245 36.77435 5951.44586 5945.00000 0.00017
3246 36.78383 5948.21666 5833.00000 0.00017
3247 36.79332 5944.99047 5811.00000 0.00017
3248 36.80281 5941.76719 5908.00000 0.00017
3249 36.81230 5938.54673 5923.00000 0.00017
3250 36.82179 5935.32892 5825.00000 0.00017
3251 36.83127 5932.11361 5797.00000 0.00017
3252 36.84076 5928.90078 5756.00000 0.00017
3253 36.85025 5925.69044 5811.00000 0.00017
3254 36.85974 5922.48258 5934.00000 0.00017
3255 36.86922 5919.27721 5734.00000 0.00017
3256 36.87871 5916.07432 5822.00000 0.00017
3257 36.88820 5912.87391 5740.00000 0.00017
3258 36.89769 5909.67598 5839.00000 0.00017
3259 36.90717 5906.48052 5734.00000 0.00017
3260 36.91666 5903.28754 5970.00000 0.00017
3261 36.92615 5900.09704 5670.00000 0.00018
3262 36.93564 5896.90902 5716.00000 0.00017
3263 36.94513 5893.72347 5843.00000 0.00017
3264 36.95461 5890.54039 5924.00000 0.00017
3265 36.96410 5887.35979 5904.00000 0.00017
3266 36.97359 5884.18165 5795.00000 0.00017
3267 36.98308 5881.00599 5885.00000 0.00017
3268 36.99256 5877.83280 5955.00000 0.00017
3269 37.00205 5874.66208 5792.00000 0.00017
3270 37.01154 5871.49383 5745.00000 0.00017
3271 37.02103 5868.32805 5850.00000 0.00017
3272 37.03052 5865.16473 5797.00000 0.00017
3273 37.04000 5862.00388 5718.00000 0.00017
3274 37.04949 5858.84550 5715.00000 0.00017
3275 37.05898 5855.68959 5717.00000 0.00017
3276 37.06847 5852.53614 5746.00000 0.00017
3277 37.07795 5849.38516 5933.00000 0.00017
3278 37.08744 5846.23665 5578.00000 0.00018
3279 37.09693 5843.09060 5762.00000 0.00017
3280 37.10642 5839.94701 5771.00000 0.00017
3281 37.11590 5836.80590 5849.00000 0.00017
3282 37.12539 5833.66724 5629.00000 0.00018
3283 37.13488 5830.53105 5660.00000 0.00018
3284 37.14437 5827.39733 5859.00000 0.00017
3285 37.15386 5824.26607 5641.00000 0.00018
3286 37.16334 5821.13727 5714.00000 0.00018
3287 37.17283 5818.01094 5845.00000 0.00017
3288 37.18232 5814.88708 5757.00000 0.00017
3289 37.19181 5811.76568 5799.00000 0.00017
3290 37.20129 5808.64674 5700.00000 0.00018
3291 37.21078 5805.53027 5739.00000 0.00017
3292 37.22027 5802.41627 5761.00000 0.00017
3293 37.22976 5799.30473 5595.00000 0.00018
3294 37.23924 5796.19565 5643.00000 0.00018
3295 37.24873 5793.08905 5649.00000 0.00018
3296 37.25822 5789.98491 5845.00000 0.00017
3297 37.26771 5786.88323 5929.00000 0.00017
3298 37.27720 5783.78403 5733.00000 0.00017
3299 37.28668 5780.68729 5752.00000 0.00017
3300 37.29617 5777.59302 5751.00000 0.00017
3301 37.30566 5774.50122 5564.00000 0.00018
3302 37.31515 5771.41189 5627.00000 0.00018
3303 37.32463 5768.32503 5716.00000 0.00017
3304 37.33412 5765.24064 5690.00000 0.00018
3305 37.34361 5762.15872 5784.00000 0.00017
3306 37.35310 5759.07928 5698.00000 0.00018
3307 37.36259 5756.00230 5648.00000 0.00018
3308 37.37207 5752.92780 5618.00000 0.00018
3309 37.38156 5749.85578 5690.00000 0.00018
3310 37.39105 5746.78623 5647.00000 0.00018
3311 37.40054 5743.71915 5807.00000 0.00017
3312 37.41002 5740.65456 5615.00000 0.00018
3313 37.41951 5737.59244 5784.00000 0.00017
3314 37.42900 5734.53280 5653.00000 0.00018
3315 37.43849 5731.47564 5623.00000 0.00018
3316 37.44797 5728.42096 5605.00000 0.00018
3317 37.45746 5725.36876 5789.00000 0.00017
3318 37.46695 5722.31904 5781.00000 0.00017
3319 37.47644 5719.27181 5678.00000 0.00018
3320 37.48593 5716.22707 5776.00000 0.00017
3321 37.49541 5713.18481 5643.00000 0.00018
3322 37.50490 5710.14503 5576.00000 0.00018
3323 37.51439 5707.10775 5812.00000 0.00017
3324 37.52388 5704.07296 5773.00000 0.00017
3325 37.53336 5701.04066 5678.00000 0.00018
3326 37.54285 5698.01085 5560.00000 0.00018
3327 37.55234 5694.98353 5625.00000 0.00018
3328 37.56183 5691.95871 5668.00000 0.00018
3329 37.57131 5688.93639 5788.00000 0.00017
3330 37.58080 5685.91656 5677.00000 0.00018
3331 37.59029 5682.89923 5753.00000 0.00017
3332 37.59978 5679.88441 5655.00000 0.00018
3333 37.60927 5676.87209 5631.00000 0.00018
3334 37.61875 5673.86227 5606.00000 0.00018
3335 37.62824 5670.85496 5705.00000 0.00018
3336 37.63773 5667.85015 5470.00000 0.00018
3337 37.64722 5664.84785 5661.00000 0.00018
3338 37.65670 5661.84807 5703.00000 0.00018
3339 37.66619 5658.85079 5455.00000 0.00018
3340 37.67568 5655.85603 5564.00000 0.00018
3341 37.68517 5652.86379 5504.00000 0.00018
3342 37.69466 5649.87406 5483.00000 0.00018
3343 37.70414 5646.88685 5620.00000 0.00018
3344 37.71363 5643.90216 5625.00000 0.00018
3345 37.72312 5640.92000 5566.00000 0.00018
3346 37.73261 5637.94036 5572.00000 0.00018
3347 37.74209 5634.96324 5522.00000 0.00018
3348 37.75158 5631.98866 5479.00000 0.00018
3349 37.76107 5629.01660 5412.00000 0.00018
3350 37.77056 5626.04708 5515.00000 0.00018
3351 37.78004 5623.08009 5597.00000 0.00018
3352 37.78953 5620.11563 5718.00000 0.00017
3353 37.79902 5617.15372 5476.00000 0.00018
3354 37.80851 5614.19434 5574.00000 0.00018
3355 37.81800 5611.23751 5501.00000 0.00018
3356 37.82748 5608.28322 5502.00000 0.00018
3357 37.83697 5605.33147 5591.00000 0.00018
3358 37.84646 5602.38228 5587.00000 0.00018
3359 37.85595 5599.43563 5568.00000 0.00018
3360 37.86543 5596.49154 5643.00000 0.00018
3361 37.87492 5593.55001 5550.00000 0.00018
3362 37.88441 5590.61103 5599.00000 0.00018
3363 37.89390 5587.67461 5534.00000 0.00018
3364 37.90338 5584.74075 5480.00000 0.00018
3365 37.91287 5581.80945 5574.00000 0.00018
3366 37.92236 5578.88072 5504.00000 0.00018
3367 37.93185 5575.95456 5345.00000 0.00019
3368 37.94134 5573.03097 5556.00000 0.00018
3369 37.95082 5570.10996 5438.00000 0.00018
3370 37.96031 5567.19152 5485.00000 0.00018
3371 37.96980 5564.27565 5491.00000 0.00018
3372 37.97929 5561.36237 5392.00000 0.00019
3373 37.98877 5558.45167 5418.00000 0.00018
3374 37.99826 5555.54355 5443.00000 0.00018
3375 38.00775 5552.63803 5417.00000 0.00018
3376 38.01724 5549.73509 5405.00000 0.00019
3377 38.02672 5546.83474 5522.00000 0.00018
3378 38.03621 5543.93699 5485.00000 0.00018
3379 38.04570 5541.04184 5395.00000 0.00019
3380 38.05519 5538.14929 5344.00000 0.00019
3381 38.06468 5535.25934 5504.00000 0.00018
3382 38.07416 5532.37200 5337.00000 0.00019
3383 38.08365 5529.48726 5314.00000 0.00019
3384 38.09314 5526.60514 5496.00000 0.00018
3385 38.10263 5523.72562 5465.00000 0.00018
3386 38.11211 5520.84873 5391.00000 0.00019
3387 38.12160 5517.97445 5482.00000 0.00018
3388 38.13109 5515.10279 5379.00000 0.00019
3389 38.14058 5512.23376 5376.00000 0.00019
3390 38.15007 5509.36735 5381.00000 0.00019
3391 38.15955 5506.50358 5371.00000 0.00019
3392 38.16904 5503.64243 5447.00000 0.00018
3393 38.17853 5500.78392 5458.00000 0.00018
3394 38.18802 5497.92805 5319.00000 0.00019
3395 38.19750 5495.07482 5513.00000 0.00018
3396 38.20699 5492.22423 5446.00000 0.00018
3397 38.21648 5489.37628 5285.00000 0.00019
3398 38.22597 5486.53099 5418.00000 0.00018
3399 38.23545 5483.68835 5464.00000 0.00018
3400 38.24494 5480.84836 5408.00000 0.00018
3401 38.25443 5478.01103 5413.00000 0.00018
3402 38.26392 5475.17636 5439.00000 0.00018
3403 38.27341 5472.34435 5389.00000 0.00019
3404 38.28289 5469.51501 5445.00000 0.00018
3405 38.29238 5466.68833 5308.00000 0.00019
3406 38.30187 5463.86433 5534.00000 0.00018
3407 38.31136 5461.04301 5302.00000 0.00019
3408 38.32084 5458.22436 5587.00000 0.00018
3409 38.33033 5455.40839 5337.00000 0.00019
3410 38.33982 5452.59511 5408.00000 0.00018
3411 38.34931 5449.78451 5378.00000 0.00019
3412 38.35879 5446.97660 5336.00000 0.00019
3413 38.36828 5444.17139 5287.00000 0.00019
3414 38.37777 5441.36887 5420.00000 0.00018
3415 38.38726 5438.56905 5448.00000 0.00018
3416 38.39675 5435.77193 5268.00000 0.00019
3417 38.40623 5432.97752 5357.00000 0.00019
3418 38.41572 5430.18581 5345.00000 0.00019
3419 38.42521 5427.39681 5358.00000 0.00019
3420 38.43470 5424.61053 5341.00000 0.00019
3421 38.44418 5421.82697 5490.00000 0.00018
3422 38.45367 5419.04613 5476.00000 0.00018
3423 38.46316 5416.26801 5394.00000 0.00019
3424 38.47265 5413.49261 5363.00000 0.00019
3425 38.48214 5410.71995 5314.00000 0.00019
3426 38.49162 5407.95001 5451.00000 0.00018
3427 38.50111 5405.18282 5391.00000 0.00019
3428 38.51060 5402.41836 5234.00000 0.00019
3429 38.52009 5399.65665 5285.00000 0.00019
3430 38.52957 5396.89768 5329.00000 0.00019
3431 38.53906 5394.14145 5333.00000 0.00019
3432 38.54855 5391.38798 5406.00000 0.00018
3433 38.55804 5388.63727 5413.00000 0.00018
3434 38.56752 5385.88931 5300.00000 0.00019
3435 38.57701 5383.14411 5421.00000 0.00018
3436 38.58650 5380.40168 5219.00000 0.00019
3437 38.59599 5377.66201 5310.00000 0.00019
3438 38.60548 5374.92512 5429.00000 0.00018
3439 38.61496 5372.19100 5211.00000 0.00019
3440 38.62445 5369.45966 5324.00000 0.00019
3441 38.63394 5366.73109 5370.00000 0.00019
3442 38.64343 5364.00531 5294.00000 0.00019
3443 38.65291 5361.28232 5310.00000 0.00019
3444 38.66240 5358.56212 5234.00000 0.00019
3445 38.67189 5355.84471 5264.00000 0.00019
3446 38.68138 5353.13009 5308.00000 0.00019
3447 38.69086 5350.41828 5123.00000 0.00020
3448 38.70035 5347.70927 5041.00000 0.00020
3449 38.70984 5345.00306 5286.00000 0.00019
3450 38.71933 5342.29967 5247.00000 0.00019
3451 38.72882 5339.59908 5134.00000 0.00019
3452 38.73830 5336.90132 5242.00000 0.00019
3453 38.74779 5334.20637 5244.00000 0.00019
3454 38.75728 5331.51424 5249.00000 0.00019
3455 38.76677 5328.82494 5219.00000 0.00019
3456 38.77625 5326.13847 5285.00000 0.00019
3457 38.78574 5323.45483 5293.00000 0.00019
3458 38.79523 5320.77403 5201.00000 0.00019
3459 38.80472 5318.09607 5292.00000 0.00019
3460 38.81421 5315.42094 5244.00000 0.00019
3461 38.82369 5312.74867 5233.00000 0.00019
3462 38.83318 5310.07924 5155.00000 0.00019
3463 38.84267 5307.41266 5167.00000 0.00019
3464 38.85216 5304.74894 5162.00000 0.00019
3465 38.86164 5302.08808 5297.00000 0.00019
3466 38.87113 5299.43008 5212.00000 0.00019
3467 38.88062 5296.77494 5084.00000 0.00020
3468 38.89011 5294.12267 5167.00000 0.00019
3469 38.89959 5291.47328 5218.00000 0.00019
3470 38.90908 5288.82675 5147.00000 0.00019
3471 38.91857 5286.18311 5213.00000 0.00019
3472 38.92806 5283.54235 5221.00000 0.00019
3473 38.93755 5280.90447 5226.00000 0.00019
3474 38.94703 5278.26948 5279.00000 0.00019
3475 38.95652 5275.63738 5244.00000 0.00019
3476 38.96601 5273.00818 5291.00000 0.00019
3477 38.97550 5270.38187 5271.00000 0.00019
3478 38.98498 5267.75847 5221.00000 0.00019
3479 38.99447 5265.13797 4969.00000 0.00020
3480 39.00396 5262.52037 5190.00000 0.00019
3481 39.01345 5259.90569 5243.00000 0.00019
3482 39.02293 5257.29392 5221.00000 0.00019
3483 39.03242 5254.68507 5118.00000 0.00020
3484 39.04191 5252.07914 5117.00000 0.00020
3485 39.05140 5249.47613 5154.00000 0.00019
3486 39.06089 5246.87605 5172.00000 0.00019
3487 39.07037 5244.27890 5252.00000 0.00019
3488 39.07986 5241.68468 5244.00000 0.00019
3489 39.08935 5239.09340 5182.00000 0.00019
3490 39.09884 5236.50506 5117.00000 0.00020
3491 39.10832 5233.91966 5211.00000 0.00019
3492 39.11781 5231.33721 5193.00000 0.00019
3493 39.12730 5228.75771 5150.00000 0.00019
3494 39.13679 5226.18116 5016.00000 0.00020
3495 39.14627 5223.60757 5238.00000 0.00019
3496 39.15576 5221.03694 5135.00000 0.00019
3497 39.16525 5218.46927 5108.00000 0.00020
3498 39.17474 5215.90456 5172.00000 0.00019
3499 39.18423 5213.34282 5173.00000 0.00019
3500 39.19371 5210.78406 5185.00000 0.00019
3501 39.20320 5208.22827 5160.00000 0.00019
3502 39.21269 5205.67546 5177.00000 0.00019
3503 39.22218 5203.12562 5122.00000 0.00020
3504 39.23166 5200.57878 5025.00000 0.00020
3505 39.24115 5198.03492 5162.00000 0.00019
3506 39.25064 5195.49405 5158.00000 0.00019
3507 39.26013 5192.95618 5099.00000 0.00020
3508 39.26962 5190.42130 5079.00000 0.00020
3509 39.27910 5187.88942 5249.00000 0.00019
3510 39.28859 5185.36055 5035.00000 0.00020
3511 39.29808 5182.83468 5023.00000 0.00020
3512 39.30757 5180.31183 5094.00000 0.00020
3513 39.31705 5177.79198 5111.00000 0.00020
3514 39.32654 5175.27515 5192.00000 0.00019
3515 39.33603 5172.76134 5049.00000 0.00020
3516 39.34552 5170.25055 5122.00000 0.00020
3517 39.35500 5167.74278 5111.00000 0.00020
3518 39.36449 5165.23805 5083.00000 0.00020
3519 39.37398 5162.73634 5041.00000 0.00020
3520 39.38347 5160.23767 5042.00000 0.00020
3521 39.39296 5157.74203 5087.00000 0.00020
3522 39.40244 5155.24943 5046.00000 0.00020
3523 39.41193 5152.75988 4960.00000 0.00020
3524 39.42142 5150.27337 4946.00000 0.00020
3525 39.43091 5147.78991 4961.00000 0.00020
3526 39.44039 5145.30951 5049.00000 0.00020
3527 39.44988 5142.83215 5168.00000 0.00019
3528 39.45937 5140.35786 5225.00000 0.00019
3529 39.46886 5137.88662 5095.00000 0.00020
3530 39.47834 5135.41845 5116.00000 0.00020
3531 39.48783 5132.95335 5124.00000 0.00020
3532 39.49732 5130.49131 5012.00000 0.00020
3533 39.50681 5128.03235 4998.00000 0.00020
3534 39.51630 5125.57646 4944.00000 0.00020
3535 39.52578 5123.12365 5044.00000 0.00020
3536 39.53527 5120.67392 5006.00000 0.00020
3537 39.54476 5118.22727 5061.00000 0.00020
3538 39.55425 5115.78371 4965.00000 0.00020
3539 39.56373 5113.34324 5108.00000 0.00020
3540 39.57322 5110.90586 5042.00000 0.00020
3541 39.58271 5108.47157 4917.00000 0.00020
3542 39.59220 5106.04039 4956.00000 0.00020
3543 39.60169 5103.61230 5086.00000 0.00020
3544 39.61117 5101.18731 4938.00000 0.00020
3545 39.62066 5098.76544 5061.00000 0.00020
3546 39.63015 5096.34667 5143.00000 0.00019
3547 39.63964 5093.93101 5026.00000 0.00020
3548 39.64912 5091.51846 5069.00000 0.00020
3549 39.65861 5089.10903 4922.00000 0.00020
3550 39.66810 5086.70272 5128.00000 0.00020
3551 39.67759 5084.29953 4983.00000 0.00020
3552 39.68707 5081.89947 4932.00000 0.00020
3553 39.69656 5079.50253 5030.00000 0.00020
3554 39.70605 5077.10873 5006.00000 0.00020
3555 39.71554 5074.71805 5001.00000 0.00020
3556 39.72503 5072.33051 4992.00000 0.00020
3557 39.73451 5069.94611 5015.00000 0.00020
3558 39.74400 5067.56485 5009.00000 0.00020
3559 39.75349 5065.18673 4907.00000 0.00020
3560 39.76298 5062.81175 4936.00000 0.00020
3561 39.77246 5060.43992 5006.00000 0.00020
3562 39.78195 5058.07125 5055.00000 0.00020
3563 39.79144 5055.70572 4946.00000 0.00020
3564 39.80093 5053.34335 4920.00000 0.00020
3565 39.81041 5050.98414 5008.00000 0.00020
3566 39.81990 5048.62808 5060.00000 0.00020
3567 39.82939 5046.27520 4961.00000 0.00020
3568 39.83888 5043.92548 5003.00000 0.00020
3569 39.84837 5041.57895 4976.00000 0.00020
3570 39.85785 5039.23562 4941.00000 0.00020
3571 39.86734 5036.89557 4983.00000 0.00020
3572 39.87683 5034.55922 4896.00000 0.00020
3573 39.88632 5032.22798 4847.00000 0.00021
3574 39.89580 5029.90504 4956.00000 0.00020
3575 39.90529 5027.59615 4920.00000 0.00020
3576 39.91478 5025.31066 5001.00000 0.00020
3577 39.92427 5023.06337 4872.00000 0.00021
3578 39.93376 5020.87946 4863.00000 0.00021
3579 39.94324 5018.80434 4966.00000 0.00020
3580 39.95273 5016.92760 4995.00000 0.00020
3581 39.96222 5015.46602 4992.00000 0.00020
3582 39.97171 5014.87571 4933.00000 0.00020
3583 39.98119 5015.31097 4935.00000 0.00020
3584 39.99068 5015.58766 4842.00000 0.00021
3585 40.00017 5014.55632 5000.00000 0.00020
3586 40.00966 5012.76537 4887.00000 0.00020
3587 40.01914 5010.93546 4933.00000 0.00020
3588 40.02863 5009.13127 4920.00000 0.00020
3589 40.03812 5007.35744 5049.00000 0.00020
3590 40.04761 5005.61708 5042.00000 0.00020
3591 40.05710 5003.91295 4968.00000 0.00020
3592 40.06658 5002.24795 4971.00000 0.00020
3593 40.07607 5000.62561 4899.00000 0.00020
3594 40.08556 4999.04968 4962.00000 0.00020
3595 40.09505 4997.52395 4872.00000 0.00021
3596 40.10453 4996.05262 4999.00000 0.00020
3597 40.11402 4994.64031 4944.00000 0.00020
3598 40.12351 4993.29220 4852.00000 0.00021
3599 40.13300 4992.01403 4874.00000 0.00021
3600 40.14248 4990.81223 5005.00000 0.00020
3601 40.15197 4989.69402 4933.00000 0.00020
3602 40.16146 4988.66749 4850.00000 0.00021
3603 40.17095 4987.74173 4933.00000 0.00020
3604 40.18044 4986.92702 4995.00000 0.00020
3605 40.18992 4986.23499 4891.00000 0.00020
3606 40.19941 4985.67882 4961.00000 0.00020
3607 40.20890 4985.27351 4907.00000 0.00020
3608 40.21839 4985.03620 4923.00000 0.00020
3609 40.22787 4984.98650 4960.00000 0.00020
3610 40.23736 4985.14696 4935.00000 0.00020
3611 40.24685 4985.54355 5050.00000 0.00020
3612 40.25634 4986.20636 4982.00000 0.00020
3613 40.26582 4987.17035 5139.00000 0.00019
3614 40.27531 4988.47631 5050.00000 0.00020
3615 40.28480 4990.17205 5070.00000 0.00020
3616 40.29429 4992.31387 4945.00000 0.00020
3617 40.30378 4994.96839 4985.00000 0.00020
3618 40.31326 4998.21487 5152.00000 0.00019
3619 40.32275 5002.14814 5020.00000 0.00020
3620 40.33224 5006.88232 5115.00000 0.00020
3621 40.34173 5012.55563 5030.00000 0.00020
3622 40.35121 5019.33665 5132.00000 0.00019
3623 40.36070 5027.43247 5135.00000 0.00019
3624 40.37019 5037.09953 5148.00000 0.00019
3625 40.37968 5048.65811 5279.00000 0.00019
3626 40.38917 5062.51187 5140.00000 0.00019
3627 40.39865 5079.17465 5130.00000 0.00019
3628 40.40814 5099.30763 5316.00000 0.00019
3629 40.41763 5123.77136 5388.00000 0.00019
3630 40.42712 5153.69971 5437.00000 0.00018
3631 40.43660 5190.60606 5496.00000 0.00018
3632 40.44609 5236.53701 5643.00000 0.00018
3633 40.45558 5294.29549 5913.00000 0.00017
3634 40.46507 5367.76177 5920.00000 0.00017
3635 40.47455 5462.34206 6277.00000 0.00016
3636 40.48404 5585.56288 6585.00000 0.00015
3637 40.49353 5747.79822 6759.00000 0.00015
3638 40.50302 5963.07871 7257.00000 0.00014
3639 40.51251 6249.90069 7849.00000 0.00013
3640 40.52199 6631.87733 8357.00000 0.00012
3641 40.53148 7137.77516 9456.00000 0.00011
3642 40.54097 7799.65719 10237.00000 0.00010
3643 40.55046 8646.18567 11185.00000 0.00009
3644 40.55994 9685.76077 12105.00000 0.00008
3645 40.56943 10873.56418 13059.00000 0.00008
3646 40.57892 12066.39766 13906.00000 0.00007
3647 40.58841 13000.88302 14546.00000 0.00007
3648 40.59789 13363.77668 14906.00000 0.00007
3649 40.60738 12973.46054 14794.00000 0.00007
3650 40.61687 11935.15817 13984.00000 0.00007
3651 40.62636 10585.94131 13230.00000 0.00008
3652 40.63585 9270.82102 11998.00000 0.00008
3653 40.64533 8180.23876 10750.00000 0.00009
3654 40.65482 7351.48117 9790.00000 0.00010
3655 40.66431 6745.61984 8999.00000 0.00011
3656 40.67380 6306.95744 8060.00000 0.00012
3657 40.68328 5987.52605 7480.00000 0.00013
3658 40.69277 5751.91340 7007.00000 0.00014
3659 40.70226 5575.38807 6546.00000 0.00015
3660 40.71175 5440.93757 6163.00000 0.00016
3661 40.72124 5336.84263 6003.00000 0.00017
3662 40.73072 5254.96765 5745.00000 0.00017
3663 40.74021 5189.60293 5684.00000 0.00018
3664 40.74970 5136.68878 5591.00000 0.00018
3665 40.75919 5093.29751 5398.00000 0.00019
3666 40.76867 5057.28717 5366.00000 0.00019
3667 40.77816 5027.06852 5327.00000 0.00019
3668 40.78765 5001.44656 5294.00000 0.00019
3669 40.79714 4979.51141 5194.00000 0.00019
3670 40.80662 4960.56210 5184.00000 0.00019
3671 40.81611 4944.05268 4975.00000 0.00020
3672 40.82560 4929.55366 5139.00000 0.00019
3673 40.83509 4916.72389 5050.00000 0.00020
3674 40.84458 4905.29009 4990.00000 0.00020
3675 40.85406 4895.03147 4930.00000 0.00020
3676 40.86355 4885.76836 4906.00000 0.00020
3677 40.87304 4877.35343 5048.00000 0.00020
3678 40.88253 4869.66513 4748.00000 0.00021
3679 40.89201 4862.60249 4937.00000 0.00020
3680 40.90150 4856.08121 4867.00000 0.00021
3681 40.91099 4850.03043 4869.00000 0.00021
3682 40.92048 4844.39036 4774.00000 0.00021
3683 40.92996 4839.11025 4979.00000 0.00020
3684 40.93945 4834.14684 4914.00000 0.00020
3685 40.94894 4829.46310 4819.00000 0.00021
3686 40.95843 4825.02717 4869.00000 0.00021
3687 40.96792 4820.81158 4856.00000 0.00021
3688 40.97740 4816.79250 4959.00000 0.00020
3689 40.98689 4812.94924 4753.00000 0.00021
3690 40.99638 4809.26371 4855.00000 0.00021
3691 41.00587 4805.72011 4994.00000 0.00020
3692 41.01535 4802.30455 4858.00000 0.00021
3693 41.02484 4799.00481 4775.00000 0.00021
3694 41.03433 4795.81008 4767.00000 0.00021
3695 41.04382 4792.71080 4907.00000 0.00020
3696 41.05330 4789.69848 4766.00000 0.00021
3697 41.06279 4786.76557 4879.00000 0.00020
3698 41.07228 4783.90532 4915.00000 0.00020
3699 41.08177 4781.11171 4600.00000 0.00022
3700 41.09126 4778.37932 4743.00000 0.00021
3701 41.10074 4775.70329 4753.00000 0.00021
3702 41.11023 4773.07918 4816.00000 0.00021
3703 41.11972 4770.50270 4773.00000 0.00021
3704 41.12921 4767.96900 4762.00000 0.00021
3705 41.13869 4765.47209 4774.00000 0.00021
3706 41.14818 4763.00442 4683.00000 0.00021
3707 41.15767 4760.55671 4763.00000 0.00021
3708 41.16716 4758.11706 4745.00000 0.00021
3709 41.17665 4755.66742 4757.00000 0.00021
3710 41.18613 4753.17572 4644.00000 0.00022
3711 41.19562 4750.57733 4727.00000 0.00021
3712 41.20511 4747.70555 4786.00000 0.00021
3713 41.21460 4744.20512 4838.00000 0.00021
3714 41.22408 4740.08387 4694.00000 0.00021
3715 41.23357 4736.79761 4757.00000 0.00021
3716 41.24306 4735.85078 4599.00000 0.00022
3717 41.25255 4736.09399 4702.00000 0.00021
3718 41.26203 4735.55933 4682.00000 0.00021
3719 41.27152 4734.21998 4835.00000 0.00021
3720 41.28101 4732.73040 4675.00000 0.00021
3721 41.29050 4731.25365 4703.00000 0.00021
3722 41.29999 4729.80282 4601.00000 0.00022
3723 41.30947 4728.38065 4614.00000 0.00022
3724 41.31896 4726.98913 4724.00000 0.00021
3725 41.32845 4725.63028 4639.00000 0.00022
3726 41.33794 4724.30696 4642.00000 0.00022
3727 41.34742 4723.02243 4666.00000 0.00021
3728 41.35691 4721.78000 4661.00000 0.00021
3729 41.36640 4720.58328 4621.00000 0.00022
3730 41.37589 4719.43628 4592.00000 0.00022
3731 41.38537 4718.34347 4535.00000 0.00022
3732 41.39486 4717.30989 4670.00000 0.00021
3733 41.40435 4716.34118 4616.00000 0.00022
3734 41.41384 4715.44367 4704.00000 0.00021
3735 41.42333 4714.62454 4706.00000 0.00021
3736 41.43281 4713.89187 4554.00000 0.00022
3737 41.44230 4713.25486 4638.00000 0.00022
3738 41.45179 4712.72396 4682.00000 0.00021
3739 41.46128 4712.31111 4756.00000 0.00021
3740 41.47076 4712.02995 4737.00000 0.00021
3741 41.48025 4711.89618 4672.00000 0.00021
3742 41.48974 4711.92788 4688.00000 0.00021
3743 41.49923 4712.14596 4595.00000 0.00022
3744 41.50872 4712.57473 4703.00000 0.00021
3745 41.51820 4713.24252 4720.00000 0.00021
3746 41.52769 4714.18252 4682.00000 0.00021
3747 41.53718 4715.43378 4787.00000 0.00021
3748 41.54667 4717.04248 4702.00000 0.00021
3749 41.55615 4719.06351 4672.00000 0.00021
3750 41.56564 4721.56243 4687.00000 0.00021
3751 41.57513 4724.61810 4708.00000 0.00021
3752 41.58462 4728.32587 4724.00000 0.00021
3753 41.59410 4732.80186 4594.00000 0.00022
3754 41.60359 4738.18848 4798.00000 0.00021
3755 41.61308 4744.66172 4664.00000 0.00021
3756 41.62257 4752.44090 4803.00000 0.00021
3757 41.63206 4761.80178 4686.00000 0.00021
3758 41.64154 4773.09441 4689.00000 0.00021
3759 41.65103 4786.76780 4823.00000 0.00021
3760 41.66052 4803.40436 4770.00000 0.00021
3761 41.67001 4823.76858 4694.00000 0.00021
3762 41.67949 4848.87665 4809.00000 0.00021
3763 41.68898 4880.09701 4774.00000 0.00021
3764 41.69847 4919.29624 4761.00000 0.00021
3765 41.70796 4969.05034 4877.00000 0.00021
3766 41.71744 5032.94609 4802.00000 0.00021
3767 41.72693 5115.99597 4952.00000 0.00020
3768 41.73642 5225.17572 5175.00000 0.00019
3769 41.74591 5370.06088 5050.00000 0.00020
3770 41.75540 5563.49597 5569.00000 0.00018
3771 41.76488 5822.17413 5918.00000 0.00017
3772 41.77437 6166.85635 6287.00000 0.00016
3773 41.78386 6621.52743 6667.00000 0.00015
3774 41.79335 7209.84493 7341.00000 0.00014
3775 41.80283 7945.79266 7866.00000 0.00013
3776 41.81232 8814.34128 8964.00000 0.00011
3777 41.82181 9740.55300 9841.00000 0.00010
3778 41.83130 10560.58312 10702.00000 0.00009
3779 41.84079 11038.67531 11347.00000 0.00009
3780 41.85027 10976.25387 11340.00000 0.00009
3781 41.85976 10360.70009 10754.00000 0.00009
3782 41.86925 9395.48521 9776.00000 0.00010
3783 41.87874 8360.42302 8780.00000 0.00011
3784 41.88822 7452.63246 7549.00000 0.00013
3785 41.89771 6741.89654 6624.00000 0.00015
3786 41.90720 6215.98888 6006.00000 0.00017
3787 41.91669 5834.79199 5522.00000 0.00018
3788 41.92617 5558.57011 5263.00000 0.00019
3789 41.93566 5356.43098 5028.00000 0.00020
3790 41.94515 5206.38099 5011.00000 0.00020
3791 41.95464 5093.22095 4774.00000 0.00021
3792 41.96413 5006.49851 4730.00000 0.00021
3793 41.97361 4938.98965 4742.00000 0.00021
3794 41.98310 4885.65501 4657.00000 0.00021
3795 41.99259 4842.93722 4750.00000 0.00021
3796 42.00208 4808.29105 4733.00000 0.00021
3797 42.01156 4779.86977 4746.00000 0.00021
3798 42.02105 4756.31490 4698.00000 0.00021
3799 42.03054 4736.61404 4639.00000 0.00022
3800 42.04003 4720.00356 4695.00000 0.00021
3801 42.04951 4705.90122 4650.00000 0.00022
3802 42.05900 4693.85885 4627.00000 0.00022
3803 42.06849 4683.52874 4587.00000 0.00022
3804 42.07798 4674.63948 4650.00000 0.00022
3805 42.08747 4666.97846 4527.00000 0.00022
3806 42.09695 4660.37897 4699.00000 0.00021
3807 42.10644 4654.71079 4529.00000 0.00022
3808 42.11593 4649.87324 4609.00000 0.00022
3809 42.12542 4645.79006 4740.00000 0.00021
3810 42.13490 4642.40575 4595.00000 0.00022
3811 42.14439 4639.68304 4543.00000 0.00022
3812 42.15388 4637.60121 4641.00000 0.00022
3813 42.16337 4636.15536 4651.00000 0.00022
3814 42.17285 4635.35632 4650.00000 0.00022
3815 42.18234 4635.23137 4750.00000 0.00021
3816 42.19183 4635.82578 4703.00000 0.00021
3817 42.20132 4637.20533 4642.00000 0.00022
3818 42.21081 4639.46000 4714.00000 0.00021
3819 42.22029 4642.70921 4664.00000 0.00021
3820 42.22978 4647.10907 4662.00000 0.00021
3821 42.23927 4652.86242 4673.00000 0.00021
3822 42.24876 4660.23275 4596.00000 0.00022
3823 42.25824 4669.56353 4683.00000 0.00021
3824 42.26773 4681.30546 4603.00000 0.00022
3825 42.27722 4696.05515 4690.00000 0.00021
3826 42.28671 4714.61056 4648.00000 0.00022
3827 42.29620 4738.05147 4633.00000 0.00022
3828 42.30568 4767.85668 4638.00000 0.00022
3829 42.31517 4806.07490 4724.00000 0.00021
3830 42.32466 4855.57012 4678.00000 0.00021
3831 42.33415 4920.36193 4808.00000 0.00021
3832 42.34363 5006.06809 4964.00000 0.00020
3833 42.35312 5120.42874 5075.00000 0.00020
3834 42.36261 5273.85770 5249.00000 0.00019
3835 42.37210 5479.92392 5498.00000 0.00018
3836 42.38158 5755.54329 5678.00000 0.00018
3837 42.39107 6120.27084 6049.00000 0.00017
3838 42.40056 6593.18679 6676.00000 0.00015
3839 42.41005 7184.42728 7270.00000 0.00014
3840 42.41954 7877.42956 7974.00000 0.00013
3841 42.42902 8601.68087 8598.00000 0.00012
3842 42.43851 9212.00180 9091.00000 0.00011
3843 42.44800 9515.41499 9298.00000 0.00011
3844 42.45749 9374.08491 9375.00000 0.00011
3845 42.46697 8816.69706 9103.00000 0.00011
3846 42.47646 8031.17098 8256.00000 0.00012
3847 42.48595 7234.99273 7319.00000 0.00014
3848 42.49544 6561.00959 6482.00000 0.00015
3849 42.50492 6043.95176 5827.00000 0.00017
3850 42.51441 5665.00627 5464.00000 0.00018
3851 42.52390 5391.08861 5138.00000 0.00019
3852 42.53339 5192.40299 4880.00000 0.00020
3853 42.54288 5046.58770 4877.00000 0.00021
3854 42.55236 4937.93836 4735.00000 0.00021
3855 42.56185 4855.64626 4657.00000 0.00021
3856 42.57134 4792.27889 4486.00000 0.00022
3857 42.58083 4742.69210 4447.00000 0.00022
3858 42.59031 4703.28955 4390.00000 0.00023
3859 42.59980 4671.52547 4632.00000 0.00022
3860 42.60929 4645.57266 4346.00000 0.00023
3861 42.61878 4624.10083 4488.00000 0.00022
3862 42.62827 4606.12772 4502.00000 0.00022
3863 42.63775 4590.91828 4492.00000 0.00022
3864 42.64724 4577.91542 4358.00000 0.00023
3865 42.65673 4566.69189 4592.00000 0.00022
3866 42.66622 4556.91637 4451.00000 0.00022
3867 42.67570 4548.32929 4464.00000 0.00022
3868 42.68519 4540.72532 4385.00000 0.00023
3869 42.69468 4533.94058 4457.00000 0.00022
3870 42.70417 4527.84319 4580.00000 0.00022
3871 42.71365 4522.32618 4405.00000 0.00023
3872 42.72314 4517.30217 4415.00000 0.00023
3873 42.73263 4512.69927 4436.00000 0.00023
3874 42.74212 4508.45799 4439.00000 0.00023
3875 42.75161 4504.52878 4537.00000 0.00022
3876 42.76109 4500.87012 4481.00000 0.00022
3877 42.77058 4497.44710 4530.00000 0.00022
3878 42.78007 4494.23014 4401.00000 0.00023
3879 42.78956 4491.19411 4513.00000 0.00022
3880 42.79904 4488.31753 4360.00000 0.00023
3881 42.80853 4485.58201 4235.00000 0.00024
3882 42.81802 4482.97168 4433.00000 0.00023
3883 42.82751 4480.47285 4469.00000 0.00022
3884 42.83699 4478.07362 4434.00000 0.00023
3885 42.84648 4475.76364 4516.00000 0.00022
3886 42.85597 4473.53387 4316.00000 0.00023
3887 42.86546 4471.37639 4454.00000 0.00022
3888 42.87495 4469.28423 4395.00000 0.00023
3889 42.88443 4467.25125 4319.00000 0.00023
3890 42.89392 4465.27204 4398.00000 0.00023
3891 42.90341 4463.34178 4472.00000 0.00022
3892 42.91290 4461.45619 4280.00000 0.00023
3893 42.92238 4459.61146 4447.00000 0.00022
3894 42.93187 4457.80419 4370.00000 0.00023
3895 42.94136 4456.03126 4488.00000 0.00022
3896 42.95085 4454.28959 4292.00000 0.00023
3897 42.96034 4452.57559 4339.00000 0.00023
3898 42.96982 4450.88465 4503.00000 0.00022
3899 42.97931 4449.21067 4434.00000 0.00023
3900 42.98880 4447.54550 4393.00000 0.00023
3901 42.99829 4445.87682 4410.00000 0.00023
3902 43.00777 4444.18372 4456.00000 0.00022
3903 43.01726 4442.42682 4391.00000 0.00023
3904 43.02675 4440.51646 4242.00000 0.00024
3905 43.03624 4438.22721 4340.00000 0.00023
3906 43.04572 4435.33838 4408.00000 0.00023
3907 43.05521 4432.48046 4403.00000 0.00023
3908 43.06470 4430.52673 4360.00000 0.00023
3909 43.07419 4429.16721 4494.00000 0.00022
3910 43.08368 4427.86150 4361.00000 0.00023
3911 43.09316 4426.56158 4344.00000 0.00023
3912 43.10265 4425.26551 4392.00000 0.00023
3913 43.11214 4423.97266 4354.00000 0.00023
3914 43.12163 4422.68281 4403.00000 0.00023
3915 43.13111 4421.39591 4357.00000 0.00023
3916 43.14060 4420.11165 4342.00000 0.00023
3917 43.15009 4418.82977 4313.00000 0.00023
3918 43.15958 4417.55024 4348.00000 0.00023
3919 43.16906 4416.27305 4330.00000 0.00023
3920 43.17855 4414.99819 4408.00000 0.00023
3921 43.18804 4413.72565 4352.00000 0.00023
3922 43.19753 4412.45544 4334.00000 0.00023
3923 43.20702 4411.18753 4487.00000 0.00022
3924 43.21650 4409.92192 4256.00000 0.00023
3925 43.22599 4408.65861 4369.00000 0.00023
3926 43.23548 4407.39758 4348.00000 0.00023
3927 43.24497 4406.13884 4246.00000 0.00024
3928 43.25445 4404.88236 4321.00000 0.00023
3929 43.26394 4403.62815 4310.00000 0.00023
3930 43.27343 4402.37619 4288.00000 0.00023
3931 43.28292 4401.12648 4294.00000 0.00023
3932 43.29240 4399.87901 4285.00000 0.00023
3933 43.30189 4398.63377 4300.00000 0.00023
3934 43.31138 4397.39076 4336.00000 0.00023
3935 43.32087 4396.14996 4384.00000 0.00023
3936 43.33036 4394.91137 4376.00000 0.00023
3937 43.33984 4393.67498 4398.00000 0.00023
3938 43.34933 4392.44078 4354.00000 0.00023
3939 43.35882 4391.20876 4240.00000 0.00024
3940 43.36831 4389.97892 4320.00000 0.00023
3941 43.37779 4388.75125 4245.00000 0.00024
3942 43.38728 4387.52574 4368.00000 0.00023
3943 43.39677 4386.30238 4277.00000 0.00023
3944 43.40626 4385.08117 4309.00000 0.00023
3945 43.41575 4383.86209 4255.00000 0.00024
3946 43.42523 4382.64513 4348.00000 0.00023
3947 43.43472 4381.43030 4432.00000 0.00023
3948 43.44421 4380.21758 4247.00000 0.00024
3949 43.45370 4379.00696 4372.00000 0.00023
3950 43.46318 4377.79843 4269.00000 0.00023
3951 43.47267 4376.59199 4216.00000 0.00024
3952 43.48216 4375.38763 4376.00000 0.00023
3953 43.49165 4374.18534 4269.00000 0.00023
3954 43.50113 4372.98510 4223.00000 0.00024
3955 43.51062 4371.78693 4304.00000 0.00023
3956 43.52011 4370.59079 4310.00000 0.00023
3957 43.52960 4369.39669 4406.00000 0.00023
3958 43.53909 4368.20462 4244.00000 0.00024
3959 43.54857 4367.01457 4279.00000 0.00023
3960 43.55806 4365.82653 4283.00000 0.00023
3961 43.56755 4364.64049 4199.00000 0.00024
3962 43.57704 4363.45647 4234.00000 0.00024
3963 43.58652 4362.27448 4170.00000 0.00024
3964 43.59601 4361.09457 4236.00000 0.00024
3965 43.60550 4359.91682 4336.00000 0.00023
3966 43.61499 4358.74139 4241.00000 0.00024
3967 43.62447 4357.56858 4325.00000 0.00023
3968 43.63396 4356.39896 4229.00000 0.00024
3969 43.64345 4355.23393 4223.00000 0.00024
3970 43.65294 4354.07688 4242.00000 0.00024
3971 43.66243 4352.93071 4306.00000 0.00023
3972 43.67191 4351.78726 4189.00000 0.00024
3973 43.68140 4350.63558 4258.00000 0.00023
3974 43.69089 4349.47911 4239.00000 0.00024
3975 43.70038 4348.32417 4206.00000 0.00024
3976 43.70986 4347.17134 4178.00000 0.00024
3977 43.71935 4346.02065 4238.00000 0.00024
3978 43.72884 4344.87212 4253.00000 0.00024
3979 43.73833 4343.72578 4293.00000 0.00023
3980 43.74782 4342.58165 4282.00000 0.00023
3981 43.75730 4341.43976 4148.00000 0.00024
3982 43.76679 4340.30016 4319.00000 0.00023
3983 43.77628 4339.16287 4138.00000 0.00024
3984 43.78577 4338.02794 4334.00000 0.00023
3985 43.79525 4336.89542 4231.00000 0.00024
3986 43.80474 4335.76537 4302.00000 0.00023
3987 43.81423 4334.63786 4272.00000 0.00023
3988 43.82372 4333.51295 4255.00000 0.00024
3989 43.83320 4332.39075 4149.00000 0.00024
3990 43.84269 4331.27135 4194.00000 0.00024
3991 43.85218 4330.15487 4105.00000 0.00024
3992 43.86167 4329.04145 4290.00000 0.00023
3993 43.87116 4327.93126 4248.00000 0.00024
3994 43.88064 4326.82447 4181.00000 0.00024
3995 43.89013 4325.72132 4251.00000 0.00024
3996 43.89962 4324.62207 4179.00000 0.00024
3997 43.90911 4323.52701 4293.00000 0.00023
3998 43.91859 4322.43653 4244.00000 0.00024
3999 43.92808 4321.35104 4200.00000 0.00024
4000 43.93757 4320.27107 4237.00000 0.00024
4001 43.94706 4319.19725 4264.00000 0.00023
4002 43.95654 4318.13033 4255.00000 0.00024
4003 43.96603 4317.07122 4240.00000 0.00024
4004 43.97552 4316.02105 4264.00000 0.00023
4005 43.98501 4314.98121 4100.00000 0.00024
4006 43.99450 4313.95340 4287.00000 0.00023
4007 44.00398 4312.93978 4134.00000 0.00024
4008 44.01347 4311.94305 4391.00000 0.00023
4009 44.02296 4310.96669 4253.00000 0.00024
4010 44.03245 4310.01513 4306.00000 0.00023
4011 44.04193 4309.09417 4320.00000 0.00023
4012 44.05142 4308.21144 4346.00000 0.00023
4013 44.06091 4307.37713 4360.00000 0.00023
4014 44.07040 4306.60497 4368.00000 0.00023
4015 44.07989 4305.91380 4130.00000 0.00024
4016 44.08937 4305.32970 4351.00000 0.00023
4017 44.09886 4304.88922 4404.00000 0.00023
4018 44.10835 4304.64384 4316.00000 0.00023
4019 44.11784 4304.66594 4317.00000 0.00023
4020 44.12732 4305.05618 4372.00000 0.00023
4021 44.13681 4305.95135 4299.00000 0.00023
4022 44.14630 4307.53132 4411.00000 0.00023
4023 44.15579 4310.02153 4454.00000 0.00022
4024 44.16527 4313.68244 4370.00000 0.00023
4025 44.17476 4318.76516 4409.00000 0.00023
4026 44.18425 4325.39393 4449.00000 0.00022
4027 44.19374 4333.32637 4465.00000 0.00022
4028 44.20323 4341.60149 4416.00000 0.00023
4029 44.21271 4348.30712 4476.00000 0.00022
4030 44.22220 4350.98748 4332.00000 0.00023
4031 44.23169 4347.96587 4435.00000 0.00023
4032 44.24118 4339.69026 4390.00000 0.00023
4033 44.25066 4328.57809 4458.00000 0.00022
4034 44.26015 4317.37176 4402.00000 0.00023
4035 44.26964 4307.73334 4381.00000 0.00023
4036 44.27913 4300.09703 4300.00000 0.00023
4037 44.28861 4294.22479 4248.00000 0.00024
4038 44.29810 4289.69647 4319.00000 0.00023
4039 44.30759 4286.13192 4223.00000 0.00024
4040 44.31708 4283.24494 4193.00000 0.00024
4041 44.32657 4280.83416 4361.00000 0.00023
4042 44.33605 4278.76091 4330.00000 0.00023
4043 44.34554 4276.92988 4278.00000 0.00023
4044 44.35503 4275.27516 4434.00000 0.00023
4045 44.36452 4273.75074 4309.00000 0.00023
4046 44.37400 4272.32410 4360.00000 0.00023
4047 44.38349 4270.97194 4330.00000 0.00023
4048 44.39298 4269.67732 4386.00000 0.00023
4049 44.40247 4268.42777 4546.00000 0.00022
4050 44.41195 4267.21397 4459.00000 0.00022
4051 44.42144 4266.02885 4391.00000 0.00023
4052 44.43093 4264.86703 4452.00000 0.00022
4053 44.44042 4263.72433 4491.00000 0.00022
4054 44.44991 4262.59748 4499.00000 0.00022
4055 44.45939 4261.48388 4436.00000 0.00023
4056 44.46888 4260.38149 4477.00000 0.00022
4057 44.47837 4259.28865 4507.00000 0.00022
4058 44.48786 4258.20402 4578.00000 0.00022
4059 44.49734 4257.12649 4637.00000 0.00022
4060 44.50683 4256.05518 4437.00000 0.00023
4061 44.51632 4254.98932 4564.00000 0.00022
4062 44.52581 4253.92831 4470.00000 0.00022
4063 44.53530 4252.87161 4553.00000 0.00022
4064 44.54478 4251.81879 4509.00000 0.00022
4065 44.55427 4250.76947 4448.00000 0.00022
4066 44.56376 4249.72334 4494.00000 0.00022
4067 44.57325 4248.68012 4498.00000 0.00022
4068 44.58273 4247.63958 4385.00000 0.00023
4069 44.59222 4246.60151 4427.00000 0.00023
4070 44.60171 4245.56574 4452.00000 0.00022
4071 44.61120 4244.53211 4358.00000 0.00023
4072 44.62068 4243.50049 4312.00000 0.00023
4073 44.63017 4242.47075 4357.00000 0.00023
4074 44.63966 4241.44280 4306.00000 0.00023
4075 44.64915 4240.41653 4379.00000 0.00023
4076 44.65864 4239.39187 4397.00000 0.00023
4077 44.66812 4238.36874 4362.00000 0.00023
4078 44.67761 4237.34706 4315.00000 0.00023
4079 44.68710 4236.32679 4379.00000 0.00023
4080 44.69659 4235.30785 4369.00000 0.00023
4081 44.70607 4234.29019 4233.00000 0.00024
4082 44.71556 4233.27374 4282.00000 0.00023
4083 44.72505 4232.25839 4287.00000 0.00023
4084 44.73454 4231.24404 4219.00000 0.00024
4085 44.74402 4230.23049 4338.00000 0.00023
4086 44.75351 4229.21748 4307.00000 0.00023
4087 44.76300 4228.20445 4268.00000 0.00023
4088 44.77249 4227.19012 4279.00000 0.00023
4089 44.78198 4226.17145 4400.00000 0.00023
4090 44.79146 4225.14614 4362.00000 0.00023
4091 44.80095 4224.12267 4258.00000 0.00023
4092 44.81044 4223.11150 4162.00000 0.00024
4093 44.81993 4222.10838 4174.00000 0.00024
4094 44.82941 4221.10664 4212.00000 0.00024
4095 44.83890 4220.10568 4216.00000 0.00024
4096 44.84839 4219.10548 4286.00000 0.00023
4097 44.85788 4218.10601 4171.00000 0.00024
4098 44.86737 4217.10725 4169.00000 0.00024
4099 44.87685 4216.10921 4204.00000 0.00024
4100 44.88634 4215.11186 4293.00000 0.00023
4101 44.89583 4214.11519 4047.00000 0.00025
4102 44.90532 4213.11920 4163.00000 0.00024
4103 44.91480 4212.12387 4148.00000 0.00024
4104 44.92429 4211.12919 4180.00000 0.00024
4105 44.93378 4210.13516 4106.00000 0.00024
4106 44.94327 4209.14175 4092.00000 0.00024
4107 44.95275 4208.14898 4137.00000 0.00024
4108 44.96224 4207.15681 4121.00000 0.00024
4109 44.97173 4206.16525 4066.00000 0.00025
4110 44.98122 4205.17428 4096.00000 0.00024
4111 44.99071 4204.18390 4080.00000 0.00025
4112 45.00019 4203.19409 4052.00000 0.00025
4113 45.00968 4202.20485 4107.00000 0.00024
4114 45.01917 4201.21616 3950.00000 0.00025
4115 45.02866 4200.22802 4013.00000 0.00025
4116 45.03814 4199.24042 4108.00000 0.00024
4117 45.04763 4198.25334 4039.00000 0.00025
4118 45.05712 4197.26677 4120.00000 0.00024
4119 45.06661 4196.28071 3976.00000 0.00025
4120 45.07609 4195.29515 4067.00000 0.00025
4121 45.08558 4194.31008 4230.00000 0.00024
4122 45.09507 4193.32549 4152.00000 0.00024
4123 45.10456 4192.34136 4131.00000 0.00024
4124 45.11405 4191.35769 4152.00000 0.00024
4125 45.12353 4190.37447 4125.00000 0.00024
4126 45.13302 4189.39169 4043.00000 0.00025
4127 45.14251 4188.40933 4198.00000 0.00024
4128 45.15200 4187.42740 4101.00000 0.00024
4129 45.16148 4186.44588 4157.00000 0.00024
4130 45.17097 4185.46476 4075.00000 0.00025
4131 45.18046 4184.48402 4132.00000 0.00024
4132 45.18995 4183.50367 4209.00000 0.00024
4133 45.19944 4182.52370 3996.00000 0.00025
4134 45.20892 4181.54408 4012.00000 0.00025
4135 45.21841 4180.56481 4085.00000 0.00024
4136 45.22790 4179.58589 4076.00000 0.00025
4137 45.23739 4178.60731 4092.00000 0.00024
4138 45.24687 4177.62904 4110.00000 0.00024
4139 45.25636 4176.65109 4158.00000 0.00024
4140 45.26585 4175.67345 4134.00000 0.00024
4141 45.27534 4174.69611 4223.00000 0.00024
4142 45.28482 4173.71906 4182.00000 0.00024
4143 45.29431 4172.74230 4092.00000 0.00024
4144 45.30380 4171.76589 4123.00000 0.00024
4145 45.31329 4170.79007 4160.00000 0.00024
4146 45.32278 4169.81561 4094.00000 0.00024
4147 45.33226 4168.84409 4026.00000 0.00025
4148 45.34175 4167.87823 4022.00000 0.00025
4149 45.35124 4166.92281 4190.00000 0.00024
4150 45.36073 4165.98677 4131.00000 0.00024
4151 45.37021 4165.08797 4084.00000 0.00024
4152 45.37970 4164.26926 4100.00000 0.00024
4153 45.38919 4163.63669 4043.00000 0.00025
4154 45.39868 4163.28967 4032.00000 0.00025
4155 45.40816 4162.98085 4077.00000 0.00025
4156 45.41765 4162.35972 4006.00000 0.00025
4157 45.42714 4161.52900 4006.00000 0.00025
4158 45.43663 4160.68811 4081.00000 0.00025
4159 45.44612 4159.85586 3986.00000 0.00025
4160 45.45560 4159.03387 4037.00000 0.00025
4161 45.46509 4158.22336 4069.00000 0.00025
4162 45.47458 4157.42555 4098.00000 0.00024
4163 45.48407 4156.64174 4050.00000 0.00025
4164 45.49355 4155.87350 4106.00000 0.00024
4165 45.50304 4155.12257 4143.00000 0.00024
4166 45.51253 4154.39084 4035.00000 0.00025
4167 45.52202 4153.68044 4103.00000 0.00024
4168 45.53150 4152.99378 4046.00000 0.00025
4169 45.54099 4152.33363 4047.00000 0.00025
4170 45.55048 4151.70317 4014.00000 0.00025
4171 45.55997 4151.10602 4061.00000 0.00025
4172 45.56946 4150.54639 4005.00000 0.00025
4173 45.57894 4150.02913 3904.00000 0.00026
4174 45.58843 4149.55990 4177.00000 0.00024
4175 45.59792 4149.14527 3884.00000 0.00026
4176 45.60741 4148.79295 4149.00000 0.00024
4177 45.61689 4148.51201 4002.00000 0.00025
4178 45.62638 4148.31315 4170.00000 0.00024
4179 45.63587 4148.20909 4117.00000 0.00024
4180 45.64536 4148.21501 4121.00000 0.00024
4181 45.65485 4148.34913 4120.00000 0.00024
4182 45.66433 4148.63345 4065.00000 0.00025
4183 45.67382 4149.09469 4159.00000 0.00024
4184 45.68331 4149.76553 4017.00000 0.00025
4185 45.69280 4150.68623 4064.00000 0.00025
4186 45.70228 4151.90676 4093.00000 0.00024
4187 45.71177 4153.48968 4165.00000 0.00024
4188 45.72126 4155.51396 4092.00000 0.00024
4189 45.73075 4158.08028 4310.00000 0.00023
4190 45.74023 4161.31832 4184.00000 0.00024
4191 45.74972 4165.39691 4175.00000 0.00024
4192 45.75921 4170.53851 4221.00000 0.00024
4193 45.76870 4177.03986 4260.00000 0.00023
4194 45.77819 4185.30202 4388.00000 0.00023
4195 45.78767 4195.87413 4385.00000 0.00023
4196 45.79716 4209.51788 4383.00000 0.00023
4197 45.80665 4227.30148 4583.00000 0.00022
4198 45.81614 4250.73436 4624.00000 0.00022
4199 45.82562 4281.95136 4716.00000 0.00021
4200 45.83511 4323.94610 4896.00000 0.00020
4201 45.84460 4380.83286 5143.00000 0.00019
4202 45.85409 4458.08524 5504.00000 0.00018
4203 45.86357 4562.63982 5655.00000 0.00018
4204 45.87306 4702.59624 5893.00000 0.00017
4205 45.88255 4885.88607 6457.00000 0.00015
4206 45.89204 5116.71184 6557.00000 0.00015
4207 45.90153 5388.26250 6855.00000 0.00015
4208 45.91101 5671.98570 7338.00000 0.00014
4209 45.92050 5910.35498 7539.00000 0.00013
4210 45.92999 6028.79674 7586.00000 0.00013
4211 45.93948 5975.29519 7684.00000 0.00013
4212 45.94896 5761.40393 7286.00000 0.00014
4213 45.95845 5458.83478 7211.00000 0.00014
4214 45.96794 5150.70734 6817.00000 0.00015
4215 45.97743 4888.56483 6284.00000 0.00016
4216 45.98692 4686.75238 6184.00000 0.00016
4217 45.99640 4538.67546 5627.00000 0.00018
4218 46.00589 4431.74633 5310.00000 0.00019
4219 46.01538 4354.37734 5031.00000 0.00020
4220 46.02487 4297.77874 4909.00000 0.00020
4221 46.03435 4255.74742 4737.00000 0.00021
4222 46.04384 4224.00879 4612.00000 0.00022
4223 46.05333 4199.62660 4409.00000 0.00023
4224 46.06282 4180.57358 4407.00000 0.00023
4225 46.07230 4165.43712 4331.00000 0.00023
4226 46.08179 4153.22125 4428.00000 0.00023
4227 46.09128 4143.21426 4202.00000 0.00024
4228 46.10077 4134.90044 4150.00000 0.00024
4229 46.11026 4127.90085 4079.00000 0.00025
4230 46.11974 4121.93333 4039.00000 0.00025
4231 46.12923 4116.78506 4080.00000 0.00025
4232 46.13872 4112.29365 4146.00000 0.00024
4233 46.14821 4108.33376 4090.00000 0.00024
4234 46.15769 4104.80766 4062.00000 0.00025
4235 46.16718 4101.63840 3972.00000 0.00025
4236 46.17667 4098.76484 4080.00000 0.00025
4237 46.18616 4096.13799 3946.00000 0.00025
4238 46.19564 4093.71830 3875.00000 0.00026
4239 46.20513 4091.47358 4107.00000 0.00024
4240 46.21462 4089.37748 4026.00000 0.00025
4241 46.22411 4087.40824 3984.00000 0.00025
4242 46.23360 4085.54785 3873.00000 0.00026
4243 46.24308 4083.78125 3980.00000 0.00025
4244 46.25257 4082.09583 4003.00000 0.00025
4245 46.26206 4080.48094 3841.00000 0.00026
4246 46.27155 4078.92757 3931.00000 0.00025
4247 46.28103 4077.42805 3914.00000 0.00026
4248 46.29052 4075.97581 3909.00000 0.00026
4249 46.30001 4074.56523 3934.00000 0.00025
4250 46.30950 4073.19145 3970.00000 0.00025
4251 46.31899 4071.85028 3912.00000 0.00026
4252 46.32847 4070.53808 3929.00000 0.00025
4253 46.33796 4069.25166 3928.00000 0.00025
4254 46.34745 4067.98825 3948.00000 0.00025
4255 46.35694 4066.74542 3900.00000 0.00026
4256 46.36642 4065.52103 3853.00000 0.00026
4257 46.37591 4064.31313 3884.00000 0.00026
4258 46.38540 4063.11983 3924.00000 0.00025
4259 46.39489 4061.93894 3818.00000 0.00026
4260 46.40437 4060.76773 3850.00000 0.00026
4261 46.41386 4059.60270 3822.00000 0.00026
4262 46.42335 4058.43875 3898.00000 0.00026
4263 46.43284 4057.26748 3907.00000 0.00026
4264 46.44233 4056.07341 3933.00000 0.00025
4265 46.45181 4054.82005 3902.00000 0.00026
4266 46.46130 4053.41634 3992.00000 0.00025
4267 46.47079 4051.78999 3907.00000 0.00026
4268 46.48028 4050.21312 3834.00000 0.00026
4269 46.48976 4049.04328 3876.00000 0.00026
4270 46.49925 4048.19959 3825.00000 0.00026
4271 46.50874 4047.60371 3930.00000 0.00025
4272 46.51823 4047.48750 3914.00000 0.00026
4273 46.52771 4047.77719 3849.00000 0.00026
4274 46.53720 4047.92685 3930.00000 0.00025
4275 46.54669 4047.64731 3871.00000 0.00026
4276 46.55618 4047.07464 3846.00000 0.00026
4277 46.56567 4046.39056 3860.00000 0.00026
4278 46.57515 4045.69843 4002.00000 0.00025
4279 46.58464 4045.02771 3899.00000 0.00026
4280 46.59413 4044.38321 3871.00000 0.00026
4281 46.60362 4043.76796 4020.00000 0.00025
4282 46.61310 4043.18533 3906.00000 0.00026
4283 46.62259 4042.63916 3932.00000 0.00025
4284 46.63208 4042.13369 3990.00000 0.00025
4285 46.64157 4041.67369 3971.00000 0.00025
4286 46.65105 4041.26451 3890.00000 0.00026
4287 46.66054 4040.91228 3924.00000 0.00025
4288 46.67003 4040.62401 3975.00000 0.00025
4289 46.67952 4040.40778 3998.00000 0.00025
4290 46.68901 4040.27291 3927.00000 0.00025
4291 46.69849 4040.23019 3960.00000 0.00025
4292 46.70798 4040.29221 3938.00000 0.00025
4293 46.71747 4040.47363 3959.00000 0.00025
4294 46.72696 4040.79166 4097.00000 0.00024
4295 46.73644 4041.26659 3940.00000 0.00025
4296 46.74593 4041.92241 4001.00000 0.00025
4297 46.75542 4042.78768 4032.00000 0.00025
4298 46.76491 4043.89654 3998.00000 0.00025
4299 46.77440 4045.29006 4023.00000 0.00025
4300 46.78388 4047.01793 3944.00000 0.00025
4301 46.79337 4049.14065 3977.00000 0.00025
4302 46.80286 4051.73239 4035.00000 0.00025
4303 46.81235 4054.88476 4146.00000 0.00024
4304 46.82183 4058.71176 4006.00000 0.00025
4305 46.83132 4063.35651 4059.00000 0.00025
4306 46.84081 4069.00023 4047.00000 0.00025
4307 46.85030 4075.87470 4019.00000 0.00025
4308 46.85978 4084.27939 4311.00000 0.00023
4309 46.86927 4094.60566 4210.00000 0.00024
4310 46.87876 4107.37098 4277.00000 0.00023
4311 46.88825 4123.26828 4290.00000 0.00023
4312 46.89774 4143.23764 4286.00000 0.00023
4313 46.90722 4168.57121 4529.00000 0.00022
4314 46.91671 4201.06754 4582.00000 0.00022
4315 46.92620 4243.25645 4739.00000 0.00021
4316 46.93569 4298.71938 4838.00000 0.00021
4317 46.94517 4372.52362 4977.00000 0.00020
4318 46.95466 4471.76489 5292.00000 0.00019
4319 46.96415 4606.16261 5710.00000 0.00018
4320 46.97364 4788.56405 5778.00000 0.00017
4321 46.98312 5035.02017 6449.00000 0.00016
4322 46.99261 5363.63456 6864.00000 0.00015
4323 47.00210 5790.47836 7498.00000 0.00013
4324 47.01159 6319.74195 7971.00000 0.00013
4325 47.02108 6925.81104 8463.00000 0.00012
4326 47.03056 7531.94552 9036.00000 0.00011
4327 47.04005 8006.39363 9015.00000 0.00011
4328 47.04954 8204.41743 9186.00000 0.00011
4329 47.05903 8049.25535 8941.00000 0.00011
4330 47.06851 7586.57848 8831.00000 0.00011
4331 47.07800 6956.21169 8609.00000 0.00012
4332 47.08749 6309.61989 8187.00000 0.00012
4333 47.09698 5746.53753 7439.00000 0.00013
4334 47.10647 5303.26523 6756.00000 0.00015
4335 47.11595 4973.18164 6281.00000 0.00016
4336 47.12544 4732.66258 5883.00000 0.00017
4337 47.13493 4558.16671 5457.00000 0.00018
4338 47.14442 4431.04395 5092.00000 0.00020
4339 47.15390 4337.34270 4914.00000 0.00020
4340 47.16339 4267.26328 4780.00000 0.00021
4341 47.17288 4214.04317 4403.00000 0.00023
4342 47.18237 4173.01346 4375.00000 0.00023
4343 47.19185 4140.92746 4259.00000 0.00023
4344 47.20134 4115.50401 4179.00000 0.00024
4345 47.21083 4095.12050 4129.00000 0.00024
4346 47.22032 4078.60748 4081.00000 0.00025
4347 47.22981 4065.11148 4028.00000 0.00025
4348 47.23929 4054.00227 4076.00000 0.00025
4349 47.24878 4044.80964 3961.00000 0.00025
4350 47.25827 4037.17986 3894.00000 0.00026
4351 47.26776 4030.84531 3971.00000 0.00025
4352 47.27724 4025.60311 3987.00000 0.00025
4353 47.28673 4021.29998 4047.00000 0.00025
4354 47.29622 4017.82143 3933.00000 0.00025
4355 47.30571 4015.08412 3793.00000 0.00026
4356 47.31519 4013.03051 3822.00000 0.00026
4357 47.32468 4011.62525 3929.00000 0.00025
4358 47.33417 4010.85293 3849.00000 0.00026
4359 47.34366 4010.71711 3745.00000 0.00027
4360 47.35315 4011.24030 3938.00000 0.00025
4361 47.36263 4012.46507 3814.00000 0.00026
4362 47.37212 4014.45633 3862.00000 0.00026
4363 47.38161 4017.30490 3847.00000 0.00026
4364 47.39110 4021.13289 3810.00000 0.00026
4365 47.40058 4026.10118 3886.00000 0.00026
4366 47.41007 4032.41990 3931.00000 0.00025
4367 47.41956 4040.36309 3812.00000 0.00026
4368 47.42905 4050.28910 3940.00000 0.00025
4369 47.43854 4062.66933 3882.00000 0.00026
4370 47.44802 4078.12913 3976.00000 0.00025
4371 47.45751 4097.50644 3901.00000 0.00026
4372 47.46700 4121.93694 3932.00000 0.00025
4373 47.47649 4152.97870 3954.00000 0.00025
4374 47.48597 4192.79556 4065.00000 0.00025
4375 47.49546 4244.42651 4055.00000 0.00025
4376 47.50495 4312.17587 4083.00000 0.00024
4377 47.51444 4402.15912 4113.00000 0.00024
4378 47.52392 4523.01671 4330.00000 0.00023
4379 47.53341 4686.74959 4546.00000 0.00022
4380 47.54290 4909.52377 4866.00000 0.00021
4381 47.55239 5212.09273 5280.00000 0.00019
4382 47.56188 5619.00760 5555.00000 0.00018
4383 47.57136 6154.86244 6070.00000 0.00016
4384 47.58085 6834.50445 6885.00000 0.00015
4385 47.59034 7641.91466 7373.00000 0.00014
4386 47.59983 8497.49978 7986.00000 0.00013
4387 47.60931 9234.51497 8567.00000 0.00012
4388 47.61880 9630.23661 8913.00000 0.00011
4389 47.62829 9519.63033 9002.00000 0.00011
4390 47.63778 8920.66480 8496.00000 0.00012
4391 47.64726 8035.49903 7937.00000 0.00013
4392 47.65675 7113.06453 7189.00000 0.00014
4393 47.66624 6316.79919 6441.00000 0.00016
4394 47.67573 5698.82010 5639.00000 0.00018
4395 47.68522 5244.17557 5033.00000 0.00020
4396 47.69470 4916.34539 4793.00000 0.00021
4397 47.70419 4680.17477 4414.00000 0.00023
4398 47.71368 4508.50747 4314.00000 0.00023
4399 47.72317 4382.03095 4132.00000 0.00024
4400 47.73265 4287.40519 4109.00000 0.00024
4401 47.74214 4215.46991 3861.00000 0.00026
4402 47.75163 4159.91115 3889.00000 0.00026
4403 47.76112 4116.34033 3883.00000 0.00026
4404 47.77060 4081.67261 3893.00000 0.00026
4405 47.78009 4053.71114 3906.00000 0.00026
4406 47.78958 4030.86970 3686.00000 0.00027
4407 47.79907 4011.98707 3840.00000 0.00026
4408 47.80856 3996.20166 3830.00000 0.00026
4409 47.81804 3982.86603 3722.00000 0.00027
4410 47.82753 3971.48777 3812.00000 0.00026
4411 47.83702 3961.68818 3790.00000 0.00026
4412 47.84651 3953.17292 3788.00000 0.00026
4413 47.85599 3945.71095 3786.00000 0.00026
4414 47.86548 3939.11930 3644.00000 0.00027
4415 47.87497 3933.25178 3692.00000 0.00027
4416 47.88446 3927.99069 3677.00000 0.00027
4417 47.89395 3923.24052 3709.00000 0.00027
4418 47.90343 3918.92327 3701.00000 0.00027
4419 47.91292 3914.97477 3702.00000 0.00027
4420 47.92241 3911.34193 3766.00000 0.00027
4421 47.93190 3907.98058 3723.00000 0.00027
4422 47.94138 3904.85373 3750.00000 0.00027
4423 47.95087 3901.93028 3757.00000 0.00027
4424 47.96036 3899.18394 3727.00000 0.00027
4425 47.96985 3896.59240 3708.00000 0.00027
4426 47.97933 3894.13660 3570.00000 0.00028
4427 47.98882 3891.80023 3686.00000 0.00027
4428 47.99831 3889.56927 3646.00000 0.00027
4429 48.00780 3887.43161 3708.00000 0.00027
4430 48.01729 3885.37677 3652.00000 0.00027
4431 48.02677 3883.39561 3721.00000 0.00027
4432 48.03626 3881.48016 3730.00000 0.00027
4433 48.04575 3879.62340 3716.00000 0.00027
4434 48.05524 3877.81880 3709.00000 0.00027
4435 48.06472 3876.05943 3656.00000 0.00027
4436 48.07421 3874.33696 3709.00000 0.00027
4437 48.08370 3872.64090 3705.00000 0.00027
4438 48.09319 3870.95640 3666.00000 0.00027
4439 48.10267 3869.25927 3646.00000 0.00027
4440 48.11216 3867.50441 3589.00000 0.00028
4441 48.12165 3865.58640 3732.00000 0.00027
4442 48.13114 3863.23389 3732.00000 0.00027
4443 48.14063 3860.17194 3537.00000 0.00028
4444 48.15011 3857.11033 3665.00000 0.00027
4445 48.15960 3855.08334 3678.00000 0.00027
4446 48.16909 3853.77931 3654.00000 0.00027
4447 48.17858 3852.56295 3569.00000 0.00028
4448 48.18806 3851.35193 3624.00000 0.00028
4449 48.19755 3850.14165 3528.00000 0.00028
4450 48.20704 3848.93128 3634.00000 0.00028
4451 48.21653 3847.72054 3712.00000 0.00027
4452 48.22602 3846.50934 3575.00000 0.00028
4453 48.23550 3845.29738 3615.00000 0.00028
4454 48.24499 3844.08431 3707.00000 0.00027
4455 48.25448 3842.87011 3578.00000 0.00028
4456 48.26397 3841.65478 3656.00000 0.00027
4457 48.27345 3840.43831 3603.00000 0.00028
4458 48.28294 3839.22071 3636.00000 0.00028
4459 48.29243 3838.00199 3668.00000 0.00027
4460 48.30192 3836.78215 3665.00000 0.00027
4461 48.31140 3835.56119 3562.00000 0.00028
4462 48.32089 3834.33912 3618.00000 0.00028
4463 48.33038 3833.11593 3659.00000 0.00027
4464 48.33987 3831.89163 3681.00000 0.00027
4465 48.34936 3830.66623 3667.00000 0.00027
4466 48.35884 3829.43973 3725.00000 0.00027
4467 48.36833 3828.21213 3619.00000 0.00028
4468 48.37782 3826.98343 3542.00000 0.00028
4469 48.38731 3825.75365 3585.00000 0.00028
4470 48.39679 3824.52277 3518.00000 0.00028
4471 48.40628 3823.29082 3567.00000 0.00028
4472 48.41577 3822.05778 3650.00000 0.00027
4473 48.42526 3820.82367 3636.00000 0.00028
4474 48.43474 3819.58849 3674.00000 0.00027
4475 48.44423 3818.35223 3600.00000 0.00028
4476 48.45372 3817.11492 3653.00000 0.00027
4477 48.46321 3815.87654 3593.00000 0.00028
4478 48.47270 3814.63711 3602.00000 0.00028
4479 48.48218 3813.39663 3689.00000 0.00027
4480 48.49167 3812.15510 3601.00000 0.00028
4481 48.50116 3810.91253 3640.00000 0.00027
4482 48.51065 3809.66892 3680.00000 0.00027
4483 48.52013 3808.42428 3617.00000 0.00028
4484 48.52962 3807.17861 3576.00000 0.00028
4485 48.53911 3805.93191 3558.00000 0.00028
4486 48.54860 3804.68420 3657.00000 0.00027
4487 48.55809 3803.43547 3575.00000 0.00028
4488 48.56757 3802.18572 3590.00000 0.00028
4489 48.57706 3800.93498 3691.00000 0.00027
4490 48.58655 3799.68323 3618.00000 0.00028
4491 48.59604 3798.43048 3612.00000 0.00028
4492 48.60552 3797.17675 3558.00000 0.00028
4493 48.61501 3795.92203 3540.00000 0.00028
4494 48.62450 3794.66634 3753.00000 0.00027
4495 48.63399 3793.40971 3692.00000 0.00027
4496 48.64347 3792.15221 3543.00000 0.00028
4497 48.65296 3790.89403 3671.00000 0.00027
4498 48.66245 3789.63572 3591.00000 0.00028
4499 48.67194 3788.37897 3666.00000 0.00027
4500 48.68143 3787.12861 3531.00000 0.00028
4501 48.69091 3785.89483 3559.00000 0.00028
4502 48.70040 3784.69713 3681.00000 0.00027
4503 48.70989 3783.57633 3663.00000 0.00027
4504 48.71938 3782.61350 3572.00000 0.00028
4505 48.72886 3781.92488 3630.00000 0.00028
4506 48.73835 3781.77888 3636.00000 0.00028
4507 48.74784 3782.79648 3619.00000 0.00028
4508 48.75733 3784.84055 3553.00000 0.00028
4509 48.76681 3786.31557 3599.00000 0.00028
4510 48.77630 3786.42024 3548.00000 0.00028
4511 48.78579 3785.93595 3624.00000 0.00028
4512 48.79528 3785.45490 3654.00000 0.00027
4513 48.80477 3785.03443 3631.00000 0.00028
4514 48.81425 3784.68406 3598.00000 0.00028
4515 48.82374 3784.41261 3616.00000 0.00028
4516 48.83323 3784.22938 3637.00000 0.00027
4517 48.84272 3784.14503 3644.00000 0.00027
4518 48.85220 3784.17205 3633.00000 0.00028
4519 48.86169 3784.32440 3596.00000 0.00028
4520 48.87118 3784.61787 3630.00000 0.00028
4521 48.88067 3785.07060 3626.00000 0.00028
4522 48.89015 3785.70365 3544.00000 0.00028
4523 48.89964 3786.54146 3562.00000 0.00028
4524 48.90913 3787.61256 3573.00000 0.00028
4525 48.91862 3788.95040 3639.00000 0.00027
4526 48.92811 3790.59434 3574.00000 0.00028
4527 48.93759 3792.59090 3614.00000 0.00028
4528 48.94708 3794.99538 3668.00000 0.00027
4529 48.95657 3797.87381 3664.00000 0.00027
4530 48.96606 3801.30547 3599.00000 0.00028
4531 48.97554 3805.38615 3584.00000 0.00028
4532 48.98503 3810.23223 3676.00000 0.00027
4533 48.99452 3815.98611 3687.00000 0.00027
4534 49.00401 3822.82321 3686.00000 0.00027
4535 49.01350 3830.96128 3738.00000 0.00027
4536 49.02298 3840.67279 3688.00000 0.00027
4537 49.03247 3852.30167 3886.00000 0.00026
4538 49.04196 3866.28603 3746.00000 0.00027
4539 49.05145 3883.18961 3770.00000 0.00027
4540 49.06093 3903.74557 3860.00000 0.00026
4541 49.07042 3928.91834 3930.00000 0.00025
4542 49.07991 3959.99198 3983.00000 0.00025
4543 49.08940 3998.69803 4086.00000 0.00024
4544 49.09888 4047.40170 4085.00000 0.00024
4545 49.10837 4109.37521 4231.00000 0.00024
4546 49.11786 4189.19825 4415.00000 0.00023
4547 49.12735 4293.33868 4537.00000 0.00022
4548 49.13684 4430.97285 4947.00000 0.00020
4549 49.14632 4615.08749 5158.00000 0.00019
4550 49.15581 4863.82983 5680.00000 0.00018
4551 49.16530 5201.89265 6232.00000 0.00016
4552 49.17479 5661.37684 7039.00000 0.00014
4553 49.18427 6280.94733 8089.00000 0.00012
4554 49.19376 7100.98283 9030.00000 0.00011
4555 49.20325 8150.85147 10132.00000 0.00010
4556 49.21274 9423.38351 11467.00000 0.00009
4557 49.22222 10834.26051 12807.00000 0.00008
4558 49.23171 12179.02343 13817.00000 0.00007
4559 49.24120 13135.26599 14421.00000 0.00007
4560 49.25069 13375.47577 14788.00000 0.00007
4561 49.26018 12768.65311 14506.00000 0.00007
4562 49.26966 11497.23587 13466.00000 0.00007
4563 49.27915 9946.77549 12025.00000 0.00008
4564 49.28864 8472.58051 10439.00000 0.00010
4565 49.29813 7260.55338 9037.00000 0.00011
4566 49.30761 6342.49525 7806.00000 0.00013
4567 49.31710 5673.87666 6913.00000 0.00014
4568 49.32659 5192.92363 6054.00000 0.00017
4569 49.33608 4846.00178 5506.00000 0.00018
4570 49.34557 4593.13406 4907.00000 0.00020
4571 49.35505 4406.23936 4685.00000 0.00021
4572 49.36454 4265.97667 4508.00000 0.00022
4573 49.37403 4159.05458 4333.00000 0.00023
4574 49.38352 4076.29022 4169.00000 0.00024
4575 49.39300 4011.28009 4063.00000 0.00025
4576 49.40249 3959.50582 4015.00000 0.00025
4577 49.41198 3917.73675 3904.00000 0.00026
4578 49.42147 3883.63098 3719.00000 0.00027
4579 49.43095 3855.46763 3962.00000 0.00025
4580 49.44044 3831.96545 3889.00000 0.00026
4581 49.44993 3812.15858 3764.00000 0.00027
4582 49.45942 3795.31037 3703.00000 0.00027
4583 49.46891 3780.85277 3742.00000 0.00027
4584 49.47839 3768.34327 3654.00000 0.00027
4585 49.48788 3757.43382 3678.00000 0.00027
4586 49.49737 3747.84822 3552.00000 0.00028
4587 49.50686 3739.36550 3676.00000 0.00027
4588 49.51634 3731.80740 3596.00000 0.00028
4589 49.52583 3725.02917 3587.00000 0.00028
4590 49.53532 3718.91236 3658.00000 0.00027
4591 49.54481 3713.35950 3583.00000 0.00028
4592 49.55429 3708.28985 3564.00000 0.00028
4593 49.56378 3703.63615 3585.00000 0.00028
4594 49.57327 3699.34208 3645.00000 0.00027
4595 49.58276 3695.36024 3605.00000 0.00028
4596 49.59225 3691.65054 3507.00000 0.00029
4597 49.60173 3688.17891 3618.00000 0.00028
4598 49.61122 3684.91629 3581.00000 0.00028
4599 49.62071 3681.83777 3545.00000 0.00028
4600 49.63020 3678.92192 3599.00000 0.00028
4601 49.63968 3676.15017 3567.00000 0.00028
4602 49.64917 3673.50635 3584.00000 0.00028
4603 49.65866 3670.97604 3575.00000 0.00028
4604 49.66815 3668.54559 3504.00000 0.00029
4605 49.67764 3666.20004 3518.00000 0.00028
4606 49.68712 3663.92119 3460.00000 0.00029
4607 49.69661 3661.68412 3582.00000 0.00028
4608 49.70610 3659.44658 3551.00000 0.00028
4609 49.71559 3657.13311 3493.00000 0.00029
4610 49.72507 3654.64357 3416.00000 0.00029
4611 49.73456 3651.74561 3558.00000 0.00028
4612 49.74405 3647.89979 3523.00000 0.00028
4613 49.75354 3643.34669 3492.00000 0.00029
4614 49.76302 3639.68948 3461.00000 0.00029
4615 49.77251 3637.61131 3530.00000 0.00028
4616 49.78200 3636.21853 3506.00000 0.00029
4617 49.79149 3634.88543 3379.00000 0.00030
4618 49.80098 3633.55763 3371.00000 0.00030
4619 49.81046 3632.23236 3390.00000 0.00029
4620 49.81995 3630.90868 3495.00000 0.00029
4621 49.82944 3629.58633 3536.00000 0.00028
4622 49.83893 3628.26499 3507.00000 0.00029
4623 49.84841 3626.94409 3547.00000 0.00028
4624 49.85790 3625.62331 3564.00000 0.00028
4625 49.86739 3624.30265 3502.00000 0.00029
4626 49.87688 3622.98211 3590.00000 0.00028
4627 49.88636 3621.66171 3500.00000 0.00029
4628 49.89585 3620.34145 3498.00000 0.00029
4629 49.90534 3619.02136 3459.00000 0.00029
4630 49.91483 3617.70143 3465.00000 0.00029
4631 49.92432 3616.38169 3448.00000 0.00029
4632 49.93380 3615.06213 3582.00000 0.00028
4633 49.94329 3613.74278 3420.00000 0.00029
4634 49.95278 3612.42365 3436.00000 0.00029
4635 49.96227 3611.10474 3341.00000 0.00030
4636 49.97175 3609.78607 3443.00000 0.00029
4637 49.98124 3608.46764 3509.00000 0.00028
4638 49.99073 3607.14948 3479.00000 0.00029
4639 50.00022 3605.83159 3383.00000 0.00030
4640 50.00970 3604.51399 3446.00000 0.00029
4641 50.01919 3603.19668 3502.00000 0.00029
4642 50.02868 3601.87968 3523.00000 0.00028
4643 50.03817 3600.56299 3394.00000 0.00029
4644 50.04766 3599.24664 3496.00000 0.00029
4645 50.05714 3597.93063 3422.00000 0.00029
4646 50.06663 3596.61497 3490.00000 0.00029
4647 50.07612 3595.29967 3456.00000 0.00029
4648 50.08561 3593.98476 3408.00000 0.00029
4649 50.09509 3592.67023 3452.00000 0.00029
4650 50.10458 3591.35610 3478.00000 0.00029
4651 50.11407 3590.04239 3413.00000 0.00029
4652 50.12356 3588.72910 3422.00000 0.00029
4653 50.13305 3587.41625 3377.00000 0.00030
4654 50.14253 3586.10384 3350.00000 0.00030
4655 50.15202 3584.79189 3470.00000 0.00029
4656 50.16151 3583.48042 3405.00000 0.00029
4657 50.17100 3582.16943 3451.00000 0.00029
4658 50.18048 3580.85894 3448.00000 0.00029
4659 50.18997 3579.54895 3374.00000 0.00030
4660 50.19946 3578.23949 3325.00000 0.00030
4661 50.20895 3576.93055 3500.00000 0.00029
4662 50.21843 3575.62217 3357.00000 0.00030
4663 50.22792 3574.31434 3447.00000 0.00029
4664 50.23741 3573.00708 3479.00000 0.00029
4665 50.24690 3571.70043 3437.00000 0.00029
4666 50.25639 3570.39439 3501.00000 0.00029
4667 50.26587 3569.08906 3383.00000 0.00030
4668 50.27536 3567.78468 3436.00000 0.00029
4669 50.28485 3566.48190 3459.00000 0.00029
4670 50.29434 3565.18228 3487.00000 0.00029
4671 50.30382 3563.88897 3491.00000 0.00029
4672 50.31331 3562.60803 3363.00000 0.00030
4673 50.32280 3561.35140 3511.00000 0.00028
4674 50.33229 3560.14573 3462.00000 0.00029
4675 50.34177 3559.07081 3384.00000 0.00030
4676 50.35126 3558.27262 3466.00000 0.00029
4677 50.36075 3557.62972 3403.00000 0.00029
4678 50.37024 3556.77455 3496.00000 0.00029
4679 50.37973 3555.67874 3485.00000 0.00029
4680 50.38921 3554.53054 3398.00000 0.00029
4681 50.39870 3553.39030 3375.00000 0.00030
4682 50.40819 3552.26402 3476.00000 0.00029
4683 50.41768 3551.15362 3271.00000 0.00031
4684 50.42716 3550.06103 3481.00000 0.00029
4685 50.43665 3548.98838 3413.00000 0.00029
4686 50.44614 3547.93802 3412.00000 0.00029
4687 50.45563 3546.91276 3379.00000 0.00030
4688 50.46512 3545.91583 3481.00000 0.00029
4689 50.47460 3544.95095 3426.00000 0.00029
4690 50.48409 3544.02238 3416.00000 0.00029
4691 50.49358 3543.13512 3414.00000 0.00029
4692 50.50307 3542.29504 3427.00000 0.00029
4693 50.51255 3541.50904 3378.00000 0.00030
4694 50.52204 3540.78530 3461.00000 0.00029
4695 50.53153 3540.13356 3453.00000 0.00029
4696 50.54102 3539.56544 3450.00000 0.00029
4697 50.55050 3539.09495 3442.00000 0.00029
4698 50.55999 3538.73903 3510.00000 0.00028
4699 50.56948 3538.51827 3419.00000 0.00029
4700 50.57897 3538.45794 3391.00000 0.00029
4701 50.58846 3538.58919 3338.00000 0.00030
4702 50.59794 3538.95076 3488.00000 0.00029
4703 50.60743 3539.59120 3475.00000 0.00029
4704 50.61692 3540.57186 3434.00000 0.00029
4705 50.62641 3541.97105 3603.00000 0.00028
4706 50.63589 3543.88962 3417.00000 0.00029
4707 50.64538 3546.45889 3464.00000 0.00029
4708 50.65487 3549.85181 3540.00000 0.00028
4709 50.66436 3554.29883 3476.00000 0.00029
4710 50.67384 3560.11087 3600.00000 0.00028
4711 50.68333 3567.71291 3553.00000 0.00028
4712 50.69282 3577.69323 3646.00000 0.00027
4713 50.70231 3590.87618 3635.00000 0.00028
4714 50.71180 3608.42897 3719.00000 0.00027
4715 50.72128 3632.01557 3866.00000 0.00026
4716 50.73077 3664.00947 3966.00000 0.00025
4717 50.74026 3707.76703 3959.00000 0.00025
4718 50.74975 3767.93419 4202.00000 0.00024
4719 50.75923 3850.69642 4332.00000 0.00023
4720 50.76872 3963.74894 4599.00000 0.00022
4721 50.77821 4115.49333 4868.00000 0.00021
4722 50.78770 4312.49425 4950.00000 0.00020
4723 50.79719 4553.76066 5312.00000 0.00019
4724 50.80667 4821.18337 5490.00000 0.00018
4725 50.81616 5070.18597 5792.00000 0.00017
4726 50.82565 5233.37276 6024.00000 0.00017
4727 50.83514 5249.81330 6081.00000 0.00016
4728 50.84462 5106.67466 5998.00000 0.00017
4729 50.85411 4852.33684 5745.00000 0.00017
4730 50.86360 4563.44982 5284.00000 0.00019
4731 50.87309 4300.39992 5222.00000 0.00019
4732 50.88257 4089.55422 4888.00000 0.00020
4733 50.89206 3931.85082 4595.00000 0.00022
4734 50.90155 3817.47034 4486.00000 0.00022
4735 50.91104 3735.09440 4171.00000 0.00024
4736 50.92053 3675.39522 3959.00000 0.00025
4737 50.93001 3631.56654 3841.00000 0.00026
4738 50.93950 3598.87341 3770.00000 0.00027
4739 50.94899 3574.06619 3748.00000 0.00027
4740 50.95848 3554.91022 3682.00000 0.00027
4741 50.96796 3539.85697 3685.00000 0.00027
4742 50.97745 3527.82295 3501.00000 0.00029
4743 50.98694 3518.04161 3537.00000 0.00028
4744 50.99643 3509.96389 3449.00000 0.00029
4745 51.00591 3503.19135 3458.00000 0.00029
4746 51.01540 3497.43102 3538.00000 0.00028
4747 51.02489 3492.46472 3494.00000 0.00029
4748 51.03438 3488.12795 3433.00000 0.00029
4749 51.04387 3484.29527 3474.00000 0.00029
4750 51.05335 3480.86995 3442.00000 0.00029
4751 51.06284 3477.77668 3399.00000 0.00029
4752 51.07233 3474.95623 3377.00000 0.00030
4753 51.08182 3472.36164 3349.00000 0.00030
4754 51.09130 3469.95534 3374.00000 0.00030
4755 51.10079 3467.70706 3346.00000 0.00030
4756 51.11028 3465.59221 3446.00000 0.00029
4757 51.11977 3463.59072 3376.00000 0.00030
4758 51.12925 3461.68605 3368.00000 0.00030
4759 51.13874 3459.86453 3438.00000 0.00029
4760 51.14823 3458.11478 3401.00000 0.00029
4761 51.15772 3456.42728 3375.00000 0.00030
4762 51.16721 3454.79402 3317.00000 0.00030
4763 51.17669 3453.20824 3385.00000 0.00030
4764 51.18618 3451.66419 3362.00000 0.00030
4765 51.19567 3450.15698 3455.00000 0.00029
4766 51.20516 3448.68241 3334.00000 0.00030
4767 51.21464 3447.23687 3309.00000 0.00030
4768 51.22413 3445.81720 3443.00000 0.00029
4769 51.23362 3444.42050 3254.00000 0.00031
4770 51.24311 3443.04388 3286.00000 0.00030
4771 51.25260 3441.68394 3267.00000 0.00031
4772 51.26208 3440.33623 3382.00000 0.00030
4773 51.27157 3438.99407 3365.00000 0.00030
4774 51.28106 3437.64606 3334.00000 0.00030
4775 51.29055 3436.26833 3417.00000 0.00029
4776 51.30003 3434.78973 3418.00000 0.00029
4777 51.30952 3433.08519 3432.00000 0.00029
4778 51.31901 3431.29753 3418.00000 0.00029
4779 51.32850 3429.78762 3380.00000 0.00030
4780 51.33798 3428.55619 3330.00000 0.00030
4781 51.34747 3427.39937 3264.00000 0.00031
4782 51.35696 3426.25862 3489.00000 0.00029
4783 51.36645 3425.13840 3351.00000 0.00030
4784 51.37594 3424.05802 3494.00000 0.00029
4785 51.38542 3423.06154 3384.00000 0.00030
4786 51.39491 3422.25798 3394.00000 0.00029
4787 51.40440 3421.83116 3430.00000 0.00029
4788 51.41389 3421.66857 3301.00000 0.00030
4789 51.42337 3421.28426 3395.00000 0.00029
4790 51.43286 3420.52575 3528.00000 0.00028
4791 51.44235 3419.63639 3367.00000 0.00030
4792 51.45184 3418.75679 3382.00000 0.00030
4793 51.46132 3417.90128 3368.00000 0.00030
4794 51.47081 3417.07323 3494.00000 0.00029
4795 51.48030 3416.27599 3303.00000 0.00030
4796 51.48979 3415.51322 3331.00000 0.00030
4797 51.49928 3414.78908 3370.00000 0.00030
4798 51.50876 3414.10841 3389.00000 0.00030
4799 51.51825 3413.47688 3457.00000 0.00029
4800 51.52774 3412.90103 3378.00000 0.00030
4801 51.53723 3412.38844 3492.00000 0.00029
4802 51.54671 3411.94801 3445.00000 0.00029
4803 51.55620 3411.59024 3395.00000 0.00029
4804 51.56569 3411.32754 3494.00000 0.00029
4805 51.57518 3411.17474 3492.00000 0.00029
4806 51.58467 3411.14956 3500.00000 0.00029
4807 51.59415 3411.27334 3469.00000 0.00029
4808 51.60364 3411.57190 3393.00000 0.00029
4809 51.61313 3412.07670 3486.00000 0.00029
4810 51.62262 3412.82634 3451.00000 0.00029
4811 51.63210 3413.86847 3407.00000 0.00029
4812 51.64159 3415.26235 3514.00000 0.00028
4813 51.65108 3417.08237 3524.00000 0.00028
4814 51.66057 3419.42258 3486.00000 0.00029
4815 51.67005 3422.40309 3515.00000 0.00028
4816 51.67954 3426.17877 3611.00000 0.00028
4817 51.68903 3430.95142 3391.00000 0.00029
4818 51.69852 3436.98696 3705.00000 0.00027
4819 51.70801 3444.64005 3671.00000 0.00027
4820 51.71749 3454.38952 3680.00000 0.00027
4821 51.72698 3466.89022 3571.00000 0.00028
4822 51.73647 3483.04917 3697.00000 0.00027
4823 51.74596 3504.13788 3804.00000 0.00026
4824 51.75544 3531.95729 3881.00000 0.00026
4825 51.76493 3569.07558 4078.00000 0.00025
4826 51.77442 3619.15825 4282.00000 0.00023
4827 51.78391 3687.39488 4431.00000 0.00023
4828 51.79339 3780.98129 4771.00000 0.00021
4829 51.80288 3909.51217 5025.00000 0.00020
4830 51.81237 4084.92194 5382.00000 0.00019
4831 51.82186 4320.19692 5712.00000 0.00018
4832 51.83135 4625.42027 6205.00000 0.00016
4833 51.84083 4999.19004 6643.00000 0.00015
4834 51.85032 5414.79133 7068.00000 0.00014
4835 51.85981 5806.98249 7364.00000 0.00014
4836 51.86930 6076.45908 7683.00000 0.00013
4837 51.87878 6129.28083 7664.00000 0.00013
4838 51.88827 5936.42829 7410.00000 0.00013
4839 51.89776 5559.74030 7313.00000 0.00014
4840 51.90725 5112.45430 6924.00000 0.00014
4841 51.91674 4693.02423 6201.00000 0.00016
4842 51.92622 4350.55846 5798.00000 0.00017
4843 51.93571 4091.97254 5134.00000 0.00019
4844 51.94520 3903.92190 4930.00000 0.00020
4845 51.95469 3768.75919 4597.00000 0.00022
4846 51.96417 3671.29927 4303.00000 0.00023
4847 51.97366 3600.25721 4128.00000 0.00024
4848 51.98315 3547.72483 3867.00000 0.00026
4849 51.99264 3508.26589 3822.00000 0.00026
4850 52.00212 3478.14606 3584.00000 0.00028
4851 52.01161 3454.78295 3640.00000 0.00027
4852 52.02110 3436.37422 3482.00000 0.00029
4853 52.03059 3421.64840 3585.00000 0.00028
4854 52.04008 3409.69768 3562.00000 0.00028
4855 52.04956 3399.86552 3591.00000 0.00028
4856 52.05905 3391.67081 3565.00000 0.00028
4857 52.06854 3384.75644 3431.00000 0.00029
4858 52.07803 3378.85406 3525.00000 0.00028
4859 52.08751 3373.75966 3380.00000 0.00030
4860 52.09700 3369.31642 3374.00000 0.00030
4861 52.10649 3365.40254 3275.00000 0.00031
4862 52.11598 3361.92255 3303.00000 0.00030
4863 52.12546 3358.80089 3291.00000 0.00030
4864 52.13495 3355.97731 3321.00000 0.00030
4865 52.14444 3353.40334 3319.00000 0.00030
4866 52.15393 3351.03973 3438.00000 0.00029
4867 52.16342 3348.85446 3199.00000 0.00031
4868 52.17290 3346.82124 3280.00000 0.00030
4869 52.18239 3344.91837 3336.00000 0.00030
4870 52.19188 3343.12781 3269.00000 0.00031
4871 52.20137 3341.43450 3231.00000 0.00031
4872 52.21085 3339.82580 3291.00000 0.00030
4873 52.22034 3338.29102 3245.00000 0.00031
4874 52.22983 3336.82113 3253.00000 0.00031
4875 52.23932 3335.40841 3249.00000 0.00031
4876 52.24880 3334.04626 3267.00000 0.00031
4877 52.25829 3332.72895 3352.00000 0.00030
4878 52.26778 3331.45133 3231.00000 0.00031
4879 52.27727 3330.20840 3195.00000 0.00031
4880 52.28676 3328.99458 3311.00000 0.00030
4881 52.29624 3327.80262 3228.00000 0.00031
4882 52.30573 3326.62181 3336.00000 0.00030
4883 52.31522 3325.43309 3266.00000 0.00031
4884 52.32471 3324.19670 3258.00000 0.00031
4885 52.33419 3322.81678 3311.00000 0.00030
4886 52.34368 3321.13904 3154.00000 0.00032
4887 52.35317 3319.30817 3276.00000 0.00031
4888 52.36266 3317.80624 3139.00000 0.00032
4889 52.37215 3316.74574 3220.00000 0.00031
4890 52.38163 3315.85107 3118.00000 0.00032
4891 52.39112 3314.97359 3202.00000 0.00031
4892 52.40061 3314.10048 3184.00000 0.00031
4893 52.41010 3313.23101 3314.00000 0.00030
4894 52.41958 3312.36491 3330.00000 0.00030
4895 52.42907 3311.50208 3229.00000 0.00031
4896 52.43856 3310.64249 3238.00000 0.00031
4897 52.44805 3309.78608 3140.00000 0.00032
4898 52.45753 3308.93272 3308.00000 0.00030
4899 52.46702 3308.08234 3271.00000 0.00031
4900 52.47651 3307.23496 3281.00000 0.00030
4901 52.48600 3306.39058 3157.00000 0.00032
4902 52.49549 3305.54919 3282.00000 0.00030
4903 52.50497 3304.71081 3201.00000 0.00031
4904 52.51446 3303.87544 3255.00000 0.00031
4905 52.52395 3303.04307 3319.00000 0.00030
4906 52.53344 3302.21371 3261.00000 0.00031
4907 52.54292 3301.38737 3198.00000 0.00031
4908 52.55241 3300.56405 3143.00000 0.00032
4909 52.56190 3299.74375 3242.00000 0.00031
4910 52.57139 3298.92648 3131.00000 0.00032
4911 52.58087 3298.11223 3365.00000 0.00030
4912 52.59036 3297.30101 3261.00000 0.00031
4913 52.59985 3296.49282 3141.00000 0.00032
4914 52.60934 3295.68766 3147.00000 0.00032
4915 52.61883 3294.88554 3182.00000 0.00031
4916 52.62831 3294.08646 3217.00000 0.00031
4917 52.63780 3293.29042 3174.00000 0.00032
4918 52.64729 3292.49742 3169.00000 0.00032
4919 52.65678 3291.70746 3161.00000 0.00032
4920 52.66626 3290.92055 3156.00000 0.00032
4921 52.67575 3290.13668 3268.00000 0.00031
4922 52.68524 3289.35587 3209.00000 0.00031
4923 52.69473 3288.57810 3148.00000 0.00032
4924 52.70422 3287.80338 3151.00000 0.00032
4925 52.71370 3287.03172 3094.00000 0.00032
4926 52.72319 3286.26311 3169.00000 0.00032
4927 52.73268 3285.49755 3173.00000 0.00032
4928 52.74217 3284.73505 3099.00000 0.00032
4929 52.75165 3283.97560 3250.00000 0.00031
4930 52.76114 3283.21921 3144.00000 0.00032
4931 52.77063 3282.46588 3194.00000 0.00031
4932 52.78012 3281.71560 3193.00000 0.00031
4933 52.78960 3280.96838 3093.00000 0.00032
4934 52.79909 3280.22422 3148.00000 0.00032
4935 52.80858 3279.48311 3171.00000 0.00032
4936 52.81807 3278.74506 3148.00000 0.00032
4937 52.82756 3278.01007 3133.00000 0.00032
4938 52.83704 3277.27814 3177.00000 0.00031
4939 52.84653 3276.54926 3141.00000 0.00032
4940 52.85602 3275.82343 3238.00000 0.00031
4941 52.86551 3275.10066 3209.00000 0.00031
4942 52.87499 3274.38095 3102.00000 0.00032
4943 52.88448 3273.66429 3129.00000 0.00032
4944 52.89397 3272.95068 3171.00000 0.00032
4945 52.90346 3272.24012 3255.00000 0.00031
4946 52.91294 3271.53261 3074.00000 0.00033
4947 52.92243 3270.82815 3155.00000 0.00032
4948 52.93192 3270.12673 3228.00000 0.00031
4949 52.94141 3269.42837 3103.00000 0.00032
4950 52.95090 3268.73304 3174.00000 0.00032
4951 52.96038 3268.04076 3147.00000 0.00032
4952 52.96987 3267.35151 3215.00000 0.00031
4953 52.97936 3266.66531 3142.00000 0.00032
4954 52.98885 3265.98213 3158.00000 0.00032
4955 52.99833 3265.30199 3194.00000 0.00031
4956 53.00782 3264.62489 3180.00000 0.00031
4957 53.01731 3263.95081 3057.00000 0.00033
4958 53.02680 3263.27975 3114.00000 0.00032
4959 53.03629 3262.61172 3204.00000 0.00031
4960 53.04577 3261.94670 3166.00000 0.00032
4961 53.05526 3261.28470 3069.00000 0.00033
4962 53.06475 3260.62572 3131.00000 0.00032
4963 53.07424 3259.96974 3237.00000 0.00031
4964 53.08372 3259.31677 3098.00000 0.00032
4965 53.09321 3258.66681 3237.00000 0.00031
4966 53.10270 3258.01984 3129.00000 0.00032
4967 53.11219 3257.37587 3167.00000 0.00032
4968 53.12167 3256.73488 3146.00000 0.00032
4969 53.13116 3256.09689 3196.00000 0.00031
4970 53.14065 3255.46188 3155.00000 0.00032
4971 53.15014 3254.82984 3191.00000 0.00031
4972 53.15963 3254.20078 3147.00000 0.00032
4973 53.16911 3253.57469 3188.00000 0.00031
4974 53.17860 3252.95156 3069.00000 0.00033
4975 53.18809 3252.33140 3174.00000 0.00032
4976 53.19758 3251.71418 3182.00000 0.00031
4977 53.20706 3251.09992 3274.00000 0.00031
4978 53.21655 3250.48860 3310.00000 0.00030
4979 53.22604 3249.88022 3281.00000 0.00030
4980 53.23553 3249.27477 3165.00000 0.00032
4981 53.24501 3248.67226 3263.00000 0.00031
4982 53.25450 3248.07266 3231.00000 0.00031
4983 53.26399 3247.47598 3231.00000 0.00031
4984 53.27348 3246.88220 3136.00000 0.00032
4985 53.28297 3246.29134 3121.00000 0.00032
4986 53.29245 3245.70337 3266.00000 0.00031
4987 53.30194 3245.11829 3213.00000 0.00031
4988 53.31143 3244.53609 3130.00000 0.00032
4989 53.32092 3243.95678 3161.00000 0.00032
4990 53.33040 3243.38034 3155.00000 0.00032
4991 53.33989 3242.80678 3121.00000 0.00032
4992 53.34938 3242.23612 3196.00000 0.00031
4993 53.35887 3241.66840 3107.00000 0.00032
4994 53.36835 3241.10379 3084.00000 0.00032
4995 53.37784 3240.54280 3260.00000 0.00031
4996 53.38733 3239.98677 3177.00000 0.00031
4997 53.39682 3239.43880 3133.00000 0.00032
4998 53.40631 3238.90509 3264.00000 0.00031
4999 53.41579 3238.39860 3182.00000 0.00031
5000 53.42528 3237.95172 3277.00000 0.00031
5001 53.43477 3237.65443 3154.00000 0.00032
5002 53.44426 3237.62063 3159.00000 0.00032
5003 53.45374 3237.66368 3034.00000 0.00033
5004 53.46323 3237.45946 3271.00000 0.00031
5005 53.47272 3237.07665 3235.00000 0.00031
5006 53.48221 3236.69111 3078.00000 0.00032
5007 53.49170 3236.32124 3189.00000 0.00031
5008 53.50118 3235.96942 3106.00000 0.00032
5009 53.51067 3235.63782 3184.00000 0.00031
5010 53.52016 3235.32883 3162.00000 0.00032
5011 53.52965 3235.04512 3249.00000 0.00031
5012 53.53913 3234.78979 3242.00000 0.00031
5013 53.54862 3234.56652 3173.00000 0.00032
5014 53.55811 3234.37965 3227.00000 0.00031
5015 53.56760 3234.23422 3078.00000 0.00032
5016 53.57708 3234.13617 3130.00000 0.00032
5017 53.58657 3234.09257 3220.00000 0.00031
5018 53.59606 3234.11190 3122.00000 0.00032
5019 53.60555 3234.20433 3251.00000 0.00031
5020 53.61504 3234.38213 3100.00000 0.00032
5021 53.62452 3234.66026 3224.00000 0.00031
5022 53.63401 3235.05700 3184.00000 0.00031
5023 53.64350 3235.59485 3180.00000 0.00031
5024 53.65299 3236.30175 3145.00000 0.00032
5025 53.66247 3237.21261 3233.00000 0.00031
5026 53.67196 3238.37143 3147.00000 0.00032
5027 53.68145 3239.83414 3160.00000 0.00032
5028 53.69094 3241.67252 3237.00000 0.00031
5029 53.70042 3243.97960 3194.00000 0.00031
5030 53.70991 3246.87726 3235.00000 0.00031
5031 53.71940 3250.52699 3255.00000 0.00031
5032 53.72889 3255.14534 3185.00000 0.00031
5033 53.73838 3261.02637 3373.00000 0.00030
5034 53.74786 3268.57441 3387.00000 0.00030
5035 53.75735 3278.35260 3402.00000 0.00029
5036 53.76684 3291.15445 3393.00000 0.00029
5037 53.77633 3308.10944 3546.00000 0.00028
5038 53.78581 3330.83543 3469.00000 0.00029
5039 53.79530 3361.65096 3509.00000 0.00028
5040 53.80479 3403.84918 3667.00000 0.00027
5041 53.81428 3462.00232 3786.00000 0.00026
5042 53.82377 3542.18466 3905.00000 0.00026
5043 53.83325 3651.83684 4004.00000 0.00025
5044 53.84274 3798.69113 4252.00000 0.00024
5045 53.85223 3987.72920 4260.00000 0.00023
5046 53.86172 4214.92840 4513.00000 0.00022
5047 53.87120 4458.04533 4658.00000 0.00021
5048 53.88069 4670.11056 4692.00000 0.00021
5049 53.89018 4788.31004 4857.00000 0.00021
5050 53.89967 4765.55152 4695.00000 0.00021
5051 53.90915 4605.02882 4701.00000 0.00021
5052 53.91864 4361.28832 4697.00000 0.00021
5053 53.92813 4103.47930 4511.00000 0.00022
5054 53.93762 3878.64866 4380.00000 0.00023
5055 53.94711 3703.14703 4214.00000 0.00024
5056 53.95659 3573.88239 4030.00000 0.00025
5057 53.96608 3480.94887 3891.00000 0.00026
5058 53.97557 3414.40002 3801.00000 0.00026
5059 53.98506 3366.41008 3670.00000 0.00027
5060 53.99454 3331.37504 3646.00000 0.00027
5061 54.00403 3305.42345 3449.00000 0.00029
5062 54.01352 3285.90296 3364.00000 0.00030
5063 54.02301 3270.98970 3333.00000 0.00030
5064 54.03249 3259.41965 3355.00000 0.00030
5065 54.04198 3250.30841 3197.00000 0.00031
5066 54.05147 3243.03030 3266.00000 0.00031
5067 54.06096 3237.13718 3284.00000 0.00030
5068 54.07045 3232.30390 3308.00000 0.00030
5069 54.07993 3228.29148 3171.00000 0.00032
5070 54.08942 3224.92203 3164.00000 0.00032
5071 54.09891 3222.06153 3199.00000 0.00031
5072 54.10840 3219.60788 3199.00000 0.00031
5073 54.11788 3217.48244 3162.00000 0.00032
5074 54.12737 3215.62405 3107.00000 0.00032
5075 54.13686 3213.98466 3214.00000 0.00031
5076 54.14635 3212.52625 3092.00000 0.00032
5077 54.15584 3211.21843 3118.00000 0.00032
5078 54.16532 3210.03675 3243.00000 0.00031
5079 54.17481 3208.96139 3035.00000 0.00033
5080 54.18430 3207.97617 3224.00000 0.00031
5081 54.19379 3207.06780 3224.00000 0.00031
5082 54.20327 3206.22530 3232.00000 0.00031
5083 54.21276 3205.43955 3144.00000 0.00032
5084 54.22225 3204.70290 3173.00000 0.00032
5085 54.23174 3204.00896 3104.00000 0.00032
5086 54.24122 3203.35231 3185.00000 0.00031
5087 54.25071 3202.72834 3145.00000 0.00032
5088 54.26020 3202.13308 3085.00000 0.00032
5089 54.26969 3201.56306 3232.00000 0.00031
5090 54.27918 3201.01495 3194.00000 0.00031
5091 54.28866 3200.48510 3105.00000 0.00032
5092 54.29815 3199.96870 3133.00000 0.00032
5093 54.30764 3199.45867 3077.00000 0.00032
5094 54.31713 3198.94253 3139.00000 0.00032
5095 54.32661 3198.39126 3030.00000 0.00033
5096 54.33610 3197.72567 3106.00000 0.00032
5097 54.34559 3196.85469 3141.00000 0.00032
5098 54.35508 3195.98212 3155.00000 0.00032
5099 54.36456 3195.41704 3093.00000 0.00032
5100 54.37405 3195.06114 3039.00000 0.00033
5101 54.38354 3194.72595 3153.00000 0.00032
5102 54.39303 3194.39328 3217.00000 0.00031
5103 54.40252 3194.06235 3077.00000 0.00032
5104 54.41200 3193.73291 3107.00000 0.00032
5105 54.42149 3193.40483 3111.00000 0.00032
5106 54.43098 3193.07806 3053.00000 0.00033
5107 54.44047 3192.75256 3031.00000 0.00033
5108 54.44995 3192.42824 3129.00000 0.00032
5109 54.45944 3192.10501 3156.00000 0.00032
5110 54.46893 3191.78283 3133.00000 0.00032
5111 54.47842 3191.46169 3206.00000 0.00031
5112 54.48790 3191.14155 3105.00000 0.00032
5113 54.49739 3190.82240 3057.00000 0.00033
5114 54.50688 3190.50421 3099.00000 0.00032
5115 54.51637 3190.18696 3072.00000 0.00033
5116 54.52586 3189.87062 3086.00000 0.00032
5117 54.53534 3189.55517 3109.00000 0.00032
5118 54.54483 3189.24059 3021.00000 0.00033
5119 54.55432 3188.92685 3059.00000 0.00033
5120 54.56381 3188.61393 3086.00000 0.00032
5121 54.57329 3188.30181 3156.00000 0.00032
5122 54.58278 3187.99045 3141.00000 0.00032
5123 54.59227 3187.67984 3142.00000 0.00032
5124 54.60176 3187.36995 3077.00000 0.00032
5125 54.61125 3187.06076 3089.00000 0.00032
5126 54.62073 3186.75224 2932.00000 0.00034
5127 54.63022 3186.44436 3123.00000 0.00032
5128 54.63971 3186.13711 3135.00000 0.00032
5129 54.64920 3185.83045 3052.00000 0.00033
5130 54.65868 3185.52437 3059.00000 0.00033
5131 54.66817 3185.21883 3167.00000 0.00032
5132 54.67766 3184.91381 3114.00000 0.00032
5133 54.68715 3184.60928 3114.00000 0.00032
5134 54.69663 3184.30522 3162.00000 0.00032
5135 54.70612 3184.00161 3148.00000 0.00032
5136 54.71561 3183.69842 3101.00000 0.00032
5137 54.72510 3183.39561 3166.00000 0.00032
5138 54.73459 3183.09317 3209.00000 0.00031
5139 54.74407 3182.79108 3063.00000 0.00033
5140 54.75356 3182.48929 3131.00000 0.00032
5141 54.76305 3182.18779 3039.00000 0.00033
5142 54.77254 3181.88656 3075.00000 0.00033
5143 54.78202 3181.58555 3026.00000 0.00033
5144 54.79151 3181.28476 3112.00000 0.00032
5145 54.80100 3180.98415 3076.00000 0.00033
5146 54.81049 3180.68369 3114.00000 0.00032
5147 54.81997 3180.38335 3079.00000 0.00032
5148 54.82946 3180.08312 3004.00000 0.00033
5149 54.83895 3179.78297 3074.00000 0.00033
5150 54.84844 3179.48285 3055.00000 0.00033
5151 54.85793 3179.18276 3000.00000 0.00033
5152 54.86741 3178.88266 3076.00000 0.00033
5153 54.87690 3178.58253 3047.00000 0.00033
5154 54.88639 3178.28234 3000.00000 0.00033
5155 54.89588 3177.98207 3103.00000 0.00032
5156 54.90536 3177.68171 3029.00000 0.00033
5157 54.91485 3177.38129 3021.00000 0.00033
5158 54.92434 3177.08089 3080.00000 0.00032
5159 54.93383 3176.78072 3019.00000 0.00033
5160 54.94332 3176.48127 3004.00000 0.00033
5161 54.95280 3176.18412 3060.00000 0.00033
5162 54.96229 3175.89253 3075.00000 0.00033
5163 54.97178 3175.60484 3165.00000 0.00032
5164 54.98127 3175.31333 3147.00000 0.00032
5165 54.99075 3175.01603 3002.00000 0.00033
5166 55.00024 3174.71669 3057.00000 0.00033
5167 55.00973 3174.41712 3137.00000 0.00032
5168 55.01922 3174.11748 3122.00000 0.00032
5169 55.02870 3173.81781 3069.00000 0.00033
5170 55.03819 3173.51813 3037.00000 0.00033
5171 55.04768 3173.21851 3044.00000 0.00033
5172 55.05717 3172.91898 3171.00000 0.00032
5173 55.06666 3172.61962 2962.00000 0.00034
5174 55.07614 3172.32051 3034.00000 0.00033
5175 55.08563 3172.02177 3129.00000 0.00032
5176 55.09512 3171.72352 3030.00000 0.00033
5177 55.10461 3171.42593 3027.00000 0.00033
5178 55.11409 3171.12920 3044.00000 0.00033
5179 55.12358 3170.83358 3137.00000 0.00032
5180 55.13307 3170.53938 2992.00000 0.00033
5181 55.14256 3170.24699 3090.00000 0.00032
5182 55.15204 3169.95688 3077.00000 0.00032
5183 55.16153 3169.66965 3061.00000 0.00033
5184 55.17102 3169.38606 3207.00000 0.00031
5185 55.18051 3169.10708 3207.00000 0.00031
5186 55.19000 3168.83392 3169.00000 0.00032
5187 55.19948 3168.56817 3165.00000 0.00032
5188 55.20897 3168.31187 3074.00000 0.00033
5189 55.21846 3168.06771 3223.00000 0.00031
5190 55.22795 3167.83925 3154.00000 0.00032
5191 55.23743 3167.63124 3050.00000 0.00033
5192 55.24692 3167.45014 3324.00000 0.00030
5193 55.25641 3167.30480 3241.00000 0.00031
5194 55.26590 3167.20752 3219.00000 0.00031
5195 55.27539 3167.17558 3301.00000 0.00030
5196 55.28487 3167.23354 3254.00000 0.00031
5197 55.29436 3167.41656 3494.00000 0.00029
5198 55.30385 3167.77519 3323.00000 0.00030
5199 55.31334 3168.38180 3485.00000 0.00029
5200 55.32282 3169.33840 3572.00000 0.00028
5201 55.33231 3170.78404 3639.00000 0.00027
5202 55.34180 3172.89660 3788.00000 0.00026
5203 55.35129 3175.87736 3992.00000 0.00025
5204 55.36077 3179.89645 4132.00000 0.00024
5205 55.37026 3184.96714 4312.00000 0.00023
5206 55.37975 3190.73364 4336.00000 0.00023
5207 55.38924 3196.25524 4518.00000 0.00022
5208 55.39873 3200.05237 4473.00000 0.00022
5209 55.40821 3200.69452 4482.00000 0.00022
5210 55.41770 3197.70809 4357.00000 0.00023
5211 55.42719 3191.97723 4301.00000 0.00023
5212 55.43668 3185.15977 4208.00000 0.00024
5213 55.44616 3178.70834 4073.00000 0.00025
5214 55.45565 3173.35898 3903.00000 0.00026
5215 55.46514 3169.22882 3797.00000 0.00026
5216 55.47463 3166.13169 3651.00000 0.00027
5217 55.48411 3163.81196 3595.00000 0.00028
5218 55.49360 3162.04662 3419.00000 0.00029
5219 55.50309 3160.66875 3358.00000 0.00030
5220 55.51258 3159.56101 3265.00000 0.00031
5221 55.52207 3158.64269 3320.00000 0.00030
5222 55.53155 3157.85843 3199.00000 0.00031
5223 55.54104 3157.17004 3184.00000 0.00031
5224 55.55053 3156.55095 3149.00000 0.00032
5225 55.56002 3155.98247 3193.00000 0.00031
5226 55.56950 3155.45135 3235.00000 0.00031
5227 55.57899 3154.94800 3141.00000 0.00032
5228 55.58848 3154.46545 3156.00000 0.00032
5229 55.59797 3153.99854 3171.00000 0.00032
5230 55.60745 3153.54341 3212.00000 0.00031
5231 55.61694 3153.09712 3186.00000 0.00031
5232 55.62643 3152.65743 3099.00000 0.00032
5233 55.63592 3152.22259 3070.00000 0.00033
5234 55.64541 3151.79125 3051.00000 0.00033
5235 55.65489 3151.36231 3084.00000 0.00032
5236 55.66438 3150.93491 3180.00000 0.00031
5237 55.67387 3150.50837 3073.00000 0.00033
5238 55.68336 3150.08211 3007.00000 0.00033
5239 55.69284 3149.65566 3124.00000 0.00032
5240 55.70233 3149.22864 3082.00000 0.00032
5241 55.71182 3148.80072 3102.00000 0.00032
5242 55.72131 3148.37165 3080.00000 0.00032
5243 55.73080 3147.94118 3103.00000 0.00032
5244 55.74028 3147.50911 3018.00000 0.00033
5245 55.74977 3147.07529 3013.00000 0.00033
5246 55.75926 3146.63955 2941.00000 0.00034
5247 55.76875 3146.20178 2955.00000 0.00034
5248 55.77823 3145.76184 3012.00000 0.00033
5249 55.78772 3145.31963 3020.00000 0.00033
5250 55.79721 3144.87499 2976.00000 0.00034
5251 55.80670 3144.42777 3012.00000 0.00033
5252 55.81618 3143.97769 3026.00000 0.00033
5253 55.82567 3143.52424 2935.00000 0.00034
5254 55.83516 3143.06597 3005.00000 0.00033
5255 55.84465 3142.60005 3067.00000 0.00033
5256 55.85414 3142.12866 2956.00000 0.00034
5257 55.86362 3141.65939 3082.00000 0.00032
5258 55.87311 3141.19349 2996.00000 0.00033
5259 55.88260 3140.72667 2918.00000 0.00034
5260 55.89209 3140.25696 2974.00000 0.00034
5261 55.90157 3139.78416 2940.00000 0.00034
5262 55.91106 3139.30824 2932.00000 0.00034
5263 55.92055 3138.82918 3073.00000 0.00033
5264 55.93004 3138.34694 2920.00000 0.00034
5265 55.93952 3137.86150 3002.00000 0.00033
5266 55.94901 3137.37283 2964.00000 0.00034
5267 55.95850 3136.88091 3032.00000 0.00033
5268 55.96799 3136.38572 3099.00000 0.00032
5269 55.97748 3135.88722 2975.00000 0.00034
5270 55.98696 3135.38540 2836.00000 0.00035
5271 55.99645 3134.88023 3006.00000 0.00033
5272 56.00594 3134.37169 2890.00000 0.00035
5273 56.01543 3133.85975 2988.00000 0.00033
5274 56.02491 3133.34439 2893.00000 0.00035
5275 56.03440 3132.82559 3101.00000 0.00032
5276 56.04389 3132.30333 3033.00000 0.00033
5277 56.05338 3131.77758 3105.00000 0.00032
5278 56.06287 3131.24832 3080.00000 0.00032
5279 56.07235 3130.71552 2927.00000 0.00034
5280 56.08184 3130.17918 3052.00000 0.00033
5281 56.09133 3129.63926 2985.00000 0.00034
5282 56.10082 3129.09574 2988.00000 0.00033
5283 56.11030 3128.54861 3049.00000 0.00033
5284 56.11979 3127.99783 2899.00000 0.00034
5285 56.12928 3127.44340 2942.00000 0.00034
5286 56.13877 3126.88529 2994.00000 0.00033
5287 56.14825 3126.32347 3003.00000 0.00033
5288 56.15774 3125.75794 2929.00000 0.00034
5289 56.16723 3125.18866 2973.00000 0.00034
5290 56.17672 3124.61563 2973.00000 0.00034
5291 56.18621 3124.03882 3037.00000 0.00033
5292 56.19569 3123.45820 2957.00000 0.00034
5293 56.20518 3122.87378 3012.00000 0.00033
5294 56.21467 3122.28551 3039.00000 0.00033
5295 56.22416 3121.69339 2978.00000 0.00034
5296 56.23364 3121.09741 2912.00000 0.00034
5297 56.24313 3120.49753 2930.00000 0.00034
5298 56.25262 3119.89374 3037.00000 0.00033
5299 56.26211 3119.28604 3026.00000 0.00033
5300 56.27159 3118.67439 2925.00000 0.00034
5301 56.28108 3118.05879 3108.00000 0.00032
5302 56.29057 3117.43921 2969.00000 0.00034
5303 56.30006 3116.81565 2986.00000 0.00033
5304 56.30955 3116.18809 2981.00000 0.00034
5305 56.31903 3115.55652 2964.00000 0.00034
5306 56.32852 3114.92096 3014.00000 0.00033
5307 56.33801 3114.28144 2986.00000 0.00033
5308 56.34750 3113.63807 2992.00000 0.00033
5309 56.35698 3112.99123 2924.00000 0.00034
5310 56.36647 3112.34209 2959.00000 0.00034
5311 56.37596 3111.69324 3023.00000 0.00033
5312 56.38545 3111.05023 2947.00000 0.00034
5313 56.39494 3110.42574 3046.00000 0.00033
5314 56.40442 3109.85851 3003.00000 0.00033
5315 56.41391 3109.43152 3074.00000 0.00033
5316 56.42340 3109.12585 3077.00000 0.00032
5317 56.43289 3108.75240 2982.00000 0.00034
5318 56.44237 3108.22844 2933.00000 0.00034
5319 56.45186 3107.64351 2950.00000 0.00034
5320 56.46135 3107.05860 3067.00000 0.00033
5321 56.47084 3106.48045 3043.00000 0.00033
5322 56.48032 3105.91084 2978.00000 0.00034
5323 56.48981 3105.35166 3028.00000 0.00033
5324 56.49930 3104.80502 2939.00000 0.00034
5325 56.50879 3104.27338 3089.00000 0.00032
5326 56.51828 3103.75965 3085.00000 0.00032
5327 56.52776 3103.26731 3096.00000 0.00032
5328 56.53725 3102.80047 3070.00000 0.00033
5329 56.54674 3102.36402 3019.00000 0.00033
5330 56.55623 3101.96385 3019.00000 0.00033
5331 56.56571 3101.60705 3103.00000 0.00032
5332 56.57520 3101.30225 3012.00000 0.00033
5333 56.58469 3101.06003 2983.00000 0.00034
5334 56.59418 3100.89338 3107.00000 0.00032
5335 56.60366 3100.81843 3097.00000 0.00032
5336 56.61315 3100.85531 3038.00000 0.00033
5337 56.62264 3101.02937 2989.00000 0.00033
5338 56.63213 3101.37280 3072.00000 0.00033
5339 56.64162 3101.92684 3097.00000 0.00032
5340 56.65110 3102.74482 2956.00000 0.00034
5341 56.66059 3103.89648 3161.00000 0.00032
5342 56.67008 3105.47393 3174.00000 0.00032
5343 56.67957 3107.60037 3135.00000 0.00032
5344 56.68905 3110.44247 3150.00000 0.00032
5345 56.69854 3114.22864 3142.00000 0.00032
5346 56.70803 3119.27584 3325.00000 0.00030
5347 56.71752 3126.02928 3131.00000 0.00032
5348 56.72700 3135.12128 3385.00000 0.00030
5349 56.73649 3147.45769 3310.00000 0.00030
5350 56.74598 3164.34206 3324.00000 0.00030
5351 56.75547 3187.64603 3640.00000 0.00027
5352 56.76496 3220.02180 3607.00000 0.00028
5353 56.77444 3265.11488 3736.00000 0.00027
5354 56.78393 3327.64733 3917.00000 0.00026
5355 56.79342 3413.07313 4123.00000 0.00024
5356 56.80291 3526.23507 4170.00000 0.00024
5357 56.81239 3668.18493 4346.00000 0.00023
5358 56.82188 3830.68680 4415.00000 0.00023
5359 56.83137 3990.30306 4600.00000 0.00022
5360 56.84086 4108.61471 4430.00000 0.00023
5361 56.85035 4146.20858 4506.00000 0.00022
5362 56.85983 4086.43021 4330.00000 0.00023
5363 56.86932 3948.54257 4348.00000 0.00023
5364 56.87881 3775.40438 4063.00000 0.00025
5365 56.88830 3607.68915 3957.00000 0.00025
5366 56.89778 3467.91902 3899.00000 0.00026
5367 56.90727 3361.15768 3812.00000 0.00026
5368 56.91676 3283.15486 3514.00000 0.00028
5369 56.92625 3227.09543 3466.00000 0.00029
5370 56.93573 3186.78801 3490.00000 0.00029
5371 56.94522 3157.51985 3288.00000 0.00030
5372 56.95471 3135.95467 3184.00000 0.00031
5373 56.96420 3119.79367 3188.00000 0.00031
5374 56.97369 3107.46112 3173.00000 0.00032
5375 56.98317 3097.87235 3138.00000 0.00032
5376 56.99266 3090.27491 3195.00000 0.00031
5377 57.00215 3084.14176 3102.00000 0.00032
5378 57.01164 3079.09960 3199.00000 0.00031
5379 57.02112 3074.88073 2976.00000 0.00034
5380 57.03061 3071.29074 3061.00000 0.00033
5381 57.04010 3068.18661 3019.00000 0.00033
5382 57.04959 3065.46184 3089.00000 0.00032
5383 57.05907 3063.03618 3095.00000 0.00032
5384 57.06856 3060.84848 3129.00000 0.00032
5385 57.07805 3058.85167 3069.00000 0.00033
5386 57.08754 3057.00914 3018.00000 0.00033
5387 57.09703 3055.29217 2987.00000 0.00033
5388 57.10651 3053.67805 2945.00000 0.00034
5389 57.11600 3052.14864 3153.00000 0.00032
5390 57.12549 3050.68937 3049.00000 0.00033
5391 57.13498 3049.28846 3076.00000 0.00033
5392 57.14446 3047.93630 3032.00000 0.00033
5393 57.15395 3046.62501 3050.00000 0.00033
5394 57.16344 3045.34810 3099.00000 0.00032
5395 57.17293 3044.10018 2987.00000 0.00033
5396 57.18242 3042.87678 2966.00000 0.00034
5397 57.19190 3041.67412 3004.00000 0.00033
5398 57.20139 3040.48898 3010.00000 0.00033
5399 57.21088 3039.31862 3027.00000 0.00033
5400 57.22037 3038.16042 3037.00000 0.00033
5401 57.22985 3037.01146 2957.00000 0.00034
5402 57.23934 3035.86787 2893.00000 0.00035
5403 57.24883 3034.72361 2970.00000 0.00034
5404 57.25832 3033.56687 2940.00000 0.00034
5405 57.26780 3032.36321 3010.00000 0.00033
5406 57.27729 3031.04190 2981.00000 0.00034
5407 57.28678 3029.63769 2916.00000 0.00034
5408 57.29627 3028.34083 2940.00000 0.00034
5409 57.30576 3027.21727 2963.00000 0.00034
5410 57.31524 3026.16241 2931.00000 0.00034
5411 57.32473 3025.11128 2913.00000 0.00034
5412 57.33422 3024.05808 2903.00000 0.00034
5413 57.34371 3023.00254 2924.00000 0.00034
5414 57.35319 3021.94460 2935.00000 0.00034
5415 57.36268 3020.88426 3013.00000 0.00033
5416 57.37217 3019.82157 2964.00000 0.00034
5417 57.38166 3018.75657 3026.00000 0.00033
5418 57.39114 3017.68926 2912.00000 0.00034
5419 57.40063 3016.61968 2971.00000 0.00034
5420 57.41012 3015.54787 2930.00000 0.00034
5421 57.41961 3014.47391 2969.00000 0.00034
5422 57.42910 3013.39786 2917.00000 0.00034
5423 57.43858 3012.31977 2870.00000 0.00035
5424 57.44807 3011.23972 2967.00000 0.00034
5425 57.45756 3010.15777 3019.00000 0.00033
5426 57.46705 3009.07398 2928.00000 0.00034
5427 57.47653 3007.98843 2957.00000 0.00034
5428 57.48602 3006.90118 2917.00000 0.00034
5429 57.49551 3005.81231 2951.00000 0.00034
5430 57.50500 3004.72188 3010.00000 0.00033
5431 57.51449 3003.62996 2907.00000 0.00034
5432 57.52397 3002.53664 2995.00000 0.00033
5433 57.53346 3001.44199 3022.00000 0.00033
5434 57.54295 3000.34608 2975.00000 0.00034
5435 57.55244 2999.24899 2778.00000 0.00036
5436 57.56192 2998.15080 2836.00000 0.00035
5437 57.57141 2997.05158 2844.00000 0.00035
5438 57.58090 2995.95143 2860.00000 0.00035
5439 57.59039 2994.85042 3045.00000 0.00033
5440 57.59987 2993.74864 3006.00000 0.00033
5441 57.60936 2992.64616 2984.00000 0.00034
5442 57.61885 2991.54309 2913.00000 0.00034
5443 57.62834 2990.43950 2857.00000 0.00035
5444 57.63783 2989.33548 2921.00000 0.00034
5445 57.64731 2988.23112 3079.00000 0.00032
5446 57.65680 2987.12652 2958.00000 0.00034
5447 57.66629 2986.02177 2974.00000 0.00034
5448 57.67578 2984.91696 2939.00000 0.00034
5449 57.68526 2983.81219 2956.00000 0.00034
5450 57.69475 2982.70755 3008.00000 0.00033
5451 57.70424 2981.60315 2935.00000 0.00034
5452 57.71373 2980.49907 2959.00000 0.00034
5453 57.72321 2979.39543 2900.00000 0.00034
5454 57.73270 2978.29232 3023.00000 0.00033
5455 57.74219 2977.18986 2891.00000 0.00035
5456 57.75168 2976.08813 2965.00000 0.00034
5457 57.76117 2974.98726 2901.00000 0.00034
5458 57.77065 2973.88735 2922.00000 0.00034
5459 57.78014 2972.78851 3032.00000 0.00033
5460 57.78963 2971.69086 3051.00000 0.00033
5461 57.79912 2970.59453 2955.00000 0.00034
5462 57.80860 2969.49966 2892.00000 0.00035
5463 57.81809 2968.40645 3009.00000 0.00033
5464 57.82758 2967.31521 2938.00000 0.00034
5465 57.83707 2966.22676 2950.00000 0.00034
5466 57.84655 2965.14297 2925.00000 0.00034
5467 57.85604 2964.06784 2904.00000 0.00034
5468 57.86553 2963.01018 2998.00000 0.00033
5469 57.87502 2961.99547 2878.00000 0.00035
5470 57.88451 2961.08505 2919.00000 0.00034
5471 57.89399 2960.30491 2937.00000 0.00034
5472 57.90348 2959.52501 2949.00000 0.00034
5473 57.91297 2958.62025 2845.00000 0.00035
5474 57.92246 2957.64621 2934.00000 0.00034
5475 57.93194 2956.67712 2905.00000 0.00034
5476 57.94143 2955.72149 2947.00000 0.00034
5477 57.95092 2954.78128 2857.00000 0.00035
5478 57.96041 2953.85853 2935.00000 0.00034
5479 57.96990 2952.95554 2911.00000 0.00034
5480 57.97938 2952.07499 2931.00000 0.00034
5481 57.98887 2951.22002 2804.00000 0.00036
5482 57.99836 2950.39441 2957.00000 0.00034
5483 58.00785 2949.60265 2903.00000 0.00034
5484 58.01733 2948.85012 2925.00000 0.00034
5485 58.02682 2948.14331 2930.00000 0.00034
5486 58.03631 2947.49013 2935.00000 0.00034
5487 58.04580 2946.90030 3007.00000 0.00033
5488 58.05528 2946.38581 2950.00000 0.00034
5489 58.06477 2945.96160 2867.00000 0.00035
5490 58.07426 2945.64644 2851.00000 0.00035
5491 58.08375 2945.46411 3075.00000 0.00033
5492 58.09324 2945.44500 3005.00000 0.00033
5493 58.10272 2945.62836 2971.00000 0.00034
5494 58.11221 2946.06539 3118.00000 0.00032
5495 58.12170 2946.82365 3051.00000 0.00033
5496 58.13119 2947.99327 2958.00000 0.00034
5497 58.14067 2949.69599 2869.00000 0.00035
5498 58.15016 2952.09834 3044.00000 0.00033
5499 58.15965 2955.43099 3027.00000 0.00033
5500 58.16914 2960.01739 2987.00000 0.00033
5501 58.17862 2966.31630 3012.00000 0.00033
5502 58.18811 2974.98458 2967.00000 0.00034
5503 58.19760 2986.96818 3095.00000 0.00032
5504 58.20709 3003.62961 2942.00000 0.00034
5505 58.21658 3026.91306 3025.00000 0.00033
5506 58.22606 3059.52476 3187.00000 0.00031
5507 58.23555 3105.04567 3240.00000 0.00031
5508 58.24504 3167.77238 3192.00000 0.00031
5509 58.25453 3251.88173 3308.00000 0.00030
5510 58.26401 3359.28932 3310.00000 0.00030
5511 58.27350 3485.69093 3266.00000 0.00031
5512 58.28299 3615.68807 3263.00000 0.00031
5513 58.29248 3721.21130 3374.00000 0.00030
5514 58.30197 3769.57829 3348.00000 0.00030
5515 58.31145 3741.30124 3311.00000 0.00030
5516 58.32094 3644.39668 3366.00000 0.00030
5517 58.33043 3510.00748 3195.00000 0.00031
5518 58.33992 3372.82329 3314.00000 0.00030
5519 58.34940 3254.94778 3187.00000 0.00031
5520 58.35889 3163.40927 3276.00000 0.00031
5521 58.36838 3096.05586 3104.00000 0.00032
5522 58.37787 3047.60903 3115.00000 0.00032
5523 58.38735 3012.88037 3024.00000 0.00033
5524 58.39684 2987.79869 3068.00000 0.00033
5525 58.40633 2969.44572 3080.00000 0.00032
5526 58.41582 2955.80314 3036.00000 0.00033
5527 58.42531 2945.48822 3102.00000 0.00032
5528 58.43479 2937.55148 3095.00000 0.00032
5529 58.44428 2931.33644 2919.00000 0.00034
5530 58.45377 2926.38520 2951.00000 0.00034
5531 58.46326 2922.37492 2920.00000 0.00034
5532 58.47274 2919.07529 3015.00000 0.00033
5533 58.48223 2916.31997 2991.00000 0.00033
5534 58.49172 2913.98726 2958.00000 0.00034
5535 58.50121 2911.98704 2973.00000 0.00034
5536 58.51069 2910.25181 2922.00000 0.00034
5537 58.52018 2908.73043 2985.00000 0.00034
5538 58.52967 2907.38375 2788.00000 0.00036
5539 58.53916 2906.18153 2938.00000 0.00034
5540 58.54865 2905.10020 2883.00000 0.00035
5541 58.55813 2904.12122 2910.00000 0.00034
5542 58.56762 2903.22994 3025.00000 0.00033
5543 58.57711 2902.41465 2923.00000 0.00034
5544 58.58660 2901.66598 2969.00000 0.00034
5545 58.59608 2900.97634 2964.00000 0.00034
5546 58.60557 2900.33962 2890.00000 0.00035
5547 58.61506 2899.75080 2895.00000 0.00035
5548 58.62455 2899.20581 2938.00000 0.00034
5549 58.63404 2898.70125 2943.00000 0.00034
5550 58.64352 2898.23434 3010.00000 0.00033
5551 58.65301 2897.80264 2879.00000 0.00035
5552 58.66250 2897.40370 2896.00000 0.00035
5553 58.67199 2897.03449 2975.00000 0.00034
5554 58.68147 2896.69055 3016.00000 0.00033
5555 58.69096 2896.36364 2999.00000 0.00033
5556 58.70045 2896.03137 2949.00000 0.00034
5557 58.70994 2895.64153 2936.00000 0.00034
5558 58.71942 2895.18293 2984.00000 0.00034
5559 58.72891 2894.79221 2973.00000 0.00034
5560 58.73840 2894.58284 2969.00000 0.00034
5561 58.74789 2894.48369 2927.00000 0.00034
5562 58.75738 2894.41538 2957.00000 0.00034
5563 58.76686 2894.37056 2882.00000 0.00035
5564 58.77635 2894.34922 2968.00000 0.00034
5565 58.78584 2894.35160 2963.00000 0.00034
5566 58.79533 2894.37798 2882.00000 0.00035
5567 58.80481 2894.42869 2985.00000 0.00034
5568 58.81430 2894.50407 2982.00000 0.00034
5569 58.82379 2894.60443 3015.00000 0.00033
5570 58.83328 2894.73009 3027.00000 0.00033
5571 58.84276 2894.88141 3015.00000 0.00033
5572 58.85225 2895.05874 2949.00000 0.00034
5573 58.86174 2895.26246 3032.00000 0.00033
5574 58.87123 2895.49292 2833.00000 0.00035
5575 58.88072 2895.75051 2904.00000 0.00034
5576 58.89020 2896.03559 2865.00000 0.00035
5577 58.89969 2896.34853 2952.00000 0.00034
5578 58.90918 2896.68973 3002.00000 0.00033
5579 58.91867 2897.05956 2859.00000 0.00035
5580 58.92815 2897.45841 2914.00000 0.00034
5581 58.93764 2897.88668 3031.00000 0.00033
5582 58.94713 2898.34474 2976.00000 0.00034
5583 58.95662 2898.83301 3054.00000 0.00033
5584 58.96610 2899.35187 2950.00000 0.00034
5585 58.97559 2899.90174 2913.00000 0.00034
5586 58.98508 2900.48302 2924.00000 0.00034
5587 58.99457 2901.09612 2866.00000 0.00035
5588 59.00406 2901.74146 2976.00000 0.00034
5589 59.01354 2902.41945 2968.00000 0.00034
5590 59.02303 2903.13050 2862.00000 0.00035
5591 59.03252 2903.87506 2970.00000 0.00034
5592 59.04201 2904.65354 2825.00000 0.00035
5593 59.05149 2905.46637 2865.00000 0.00035
5594 59.06098 2906.31399 2951.00000 0.00034
5595 59.07047 2907.19684 3012.00000 0.00033
5596 59.07996 2908.11536 2985.00000 0.00034
5597 59.08945 2909.07000 2848.00000 0.00035
5598 59.09893 2910.06120 2913.00000 0.00034
5599 59.10842 2911.08942 2858.00000 0.00035
5600 59.11791 2912.15511 2838.00000 0.00035
5601 59.12740 2913.25873 2989.00000 0.00033
5602 59.13688 2914.40075 2936.00000 0.00034
5603 59.14637 2915.58164 2921.00000 0.00034
5604 59.15586 2916.80186 2914.00000 0.00034
5605 59.16535 2918.06190 2845.00000 0.00035
5606 59.17483 2919.36223 2858.00000 0.00035
5607 59.18432 2920.70333 3040.00000 0.00033
5608 59.19381 2922.08569 2855.00000 0.00035
5609 59.20330 2923.50980 2849.00000 0.00035
5610 59.21279 2924.97617 2913.00000 0.00034
5611 59.22227 2926.48528 2947.00000 0.00034
5612 59.23176 2928.03764 3036.00000 0.00033
5613 59.24125 2929.63379 2970.00000 0.00034
5614 59.25074 2931.27427 2832.00000 0.00035
5615 59.26022 2932.95967 2854.00000 0.00035
5616 59.26971 2934.69070 2961.00000 0.00034
5617 59.27920 2936.46857 2846.00000 0.00035
5618 59.28869 2938.29572 3025.00000 0.00033
5619 59.29817 2940.17704 3033.00000 0.00033
5620 59.30766 2942.12307 2980.00000 0.00034
5621 59.31715 2944.16308 2871.00000 0.00035
5622 59.32664 2946.37074 2890.00000 0.00035
5623 59.33613 2948.79402 2863.00000 0.00035
5624 59.34561 2951.28327 2965.00000 0.00034
5625 59.35510 2953.66452 2876.00000 0.00035
5626 59.36459 2955.99927 2946.00000 0.00034
5627 59.37408 2958.38754 2915.00000 0.00034
5628 59.38356 2960.84143 2949.00000 0.00034
5629 59.39305 2963.36402 2833.00000 0.00035
5630 59.40254 2965.95852 2984.00000 0.00034
5631 59.41203 2968.62855 2986.00000 0.00033
5632 59.42152 2971.37825 2968.00000 0.00034
5633 59.43100 2974.21247 2917.00000 0.00034
5634 59.44049 2977.13697 2953.00000 0.00034
5635 59.44998 2980.15860 2924.00000 0.00034
5636 59.45947 2983.28551 3004.00000 0.00033
5637 59.46895 2986.52753 2881.00000 0.00035
5638 59.47844 2989.89668 2914.00000 0.00034
5639 59.48793 2993.40769 2963.00000 0.00034
5640 59.49742 2997.07885 3020.00000 0.00033
5641 59.50690 3000.93303 2966.00000 0.00034
5642 59.51639 3004.99911 3004.00000 0.00033
5643 59.52588 3009.31397 3066.00000 0.00033
5644 59.53537 3013.92510 2930.00000 0.00034
5645 59.54486 3018.89440 2993.00000 0.00033
5646 59.55434 3024.30346 3096.00000 0.00032
5647 59.56383 3030.26107 2965.00000 0.00034
5648 59.57332 3036.91414 3074.00000 0.00033
5649 59.58281 3044.46357 2974.00000 0.00034
5650 59.59229 3053.18759 3092.00000 0.00032
5651 59.60178 3063.47638 3081.00000 0.00032
5652 59.61127 3075.88345 3142.00000 0.00032
5653 59.62076 3091.20157 3268.00000 0.00031
5654 59.63024 3110.57349 3228.00000 0.00031
5655 59.63973 3135.64814 3234.00000 0.00031
5656 59.64922 3168.78639 3311.00000 0.00030
5657 59.65871 3213.29321 3438.00000 0.00029
5658 59.66820 3273.58100 3456.00000 0.00029
5659 59.67768 3355.01913 3625.00000 0.00028
5660 59.68717 3462.97526 3844.00000 0.00026
5661 59.69666 3600.26830 3882.00000 0.00026
5662 59.70615 3762.35616 3938.00000 0.00025
5663 59.71563 3931.19968 4117.00000 0.00024
5664 59.72512 4072.72993 4173.00000 0.00024
5665 59.73461 4145.84072 4078.00000 0.00025
5666 59.74410 4124.07611 4101.00000 0.00024
5667 59.75359 4014.63547 4053.00000 0.00025
5668 59.76307 3854.91378 4043.00000 0.00025
5669 59.77256 3688.75991 3974.00000 0.00025
5670 59.78205 3545.30411 3813.00000 0.00026
5671 59.79154 3434.60966 3743.00000 0.00027
5672 59.80102 3354.61350 3710.00000 0.00027
5673 59.81051 3298.86137 3462.00000 0.00029
5674 59.82000 3260.79632 3394.00000 0.00029
5675 59.82949 3235.20617 3397.00000 0.00029
5676 59.83897 3218.33346 3264.00000 0.00031
5677 59.84846 3207.57443 3181.00000 0.00031
5678 59.85795 3201.14552 3160.00000 0.00032
5679 59.86744 3197.82355 3064.00000 0.00033
5680 59.87693 3196.76445 3048.00000 0.00033
5681 59.88641 3197.38083 3100.00000 0.00032
5682 59.89590 3199.25978 3144.00000 0.00032
5683 59.90539 3202.10767 3093.00000 0.00032
5684 59.91488 3205.71318 3113.00000 0.00032
5685 59.92436 3209.92230 3046.00000 0.00033
5686 59.93385 3214.62146 2916.00000 0.00034
5687 59.94334 3219.72599 2971.00000 0.00034
5688 59.95283 3225.17203 3124.00000 0.00032
5689 59.96231 3230.91102 2954.00000 0.00034
5690 59.97180 3236.90562 2976.00000 0.00034
5691 59.98129 3243.12698 2986.00000 0.00033
5692 59.99078 3249.55256 2903.00000 0.00034
5693 60.00027 3256.16471 3025.00000 0.00033
