#------------------------------------------------------------------------------
#$Date: 2020-05-16 04:59:56 +0300 (Sat, 16 May 2020) $
#$Revision: 252072 $
#$URL: file:///home/coder/svn-repositories/cod/cif/7/24/05/7240539.cif $
#------------------------------------------------------------------------------
#
# This file is available in the Crystallography Open Database (COD),
# http://www.crystallography.net/
#
# All data on this site have been placed in the public domain by the
# contributors.
#
data_7240539
loop_
_publ_author_name
'Hodorowicz, Maciej'
'Szklarzewicz, Janusz'
'Jurowska, Anna'
_publ_section_title
;
 The versatility of lithium cation coordination modes in salts with
 [W(CN)6(bpy)]2- anion
;
_journal_name_full               CrystEngComm
_journal_paper_doi               10.1039/D0CE00468E
_journal_year                    2020
_chemical_formula_sum            'C16 H8 Li2 N8 O W'
_chemical_formula_weight         526.03
_space_group_crystal_system      triclinic
_space_group_IT_number           2
_space_group_name_Hall           '-P 1'
_space_group_name_H-M_alt        'P -1'
_atom_sites_solution_hydrogens   geom
_audit_creation_method           SHELXL-2016/6
_audit_update_record
;
2019-11-20 deposited with the CCDC.	2020-04-30 downloaded from the CCDC.
;
_cell_angle_alpha                94.706(3)
_cell_angle_beta                 96.181(3)
_cell_angle_gamma                96.111(3)
_cell_formula_units_Z            2
_cell_length_a                   9.2411(3)
_cell_length_b                   9.5189(3)
_cell_length_c                   13.3940(4)
_cell_measurement_reflns_used    5924
_cell_measurement_temperature    100(2)
_cell_measurement_theta_max      76.2150
_cell_measurement_theta_min      4.6820
_cell_volume                     1159.48(6)
_computing_cell_refinement       'CrysAlisPro 1.171.40.54a (Rigaku OD, 2019)'
_computing_data_collection       'CrysAlisPro 1.171.40.54a (Rigaku OD, 2019)'
_computing_data_reduction        'CrysAlisPro 1.171.40.54a (Rigaku OD, 2019)'
_computing_structure_refinement  'SHELXL-2017/1 (Sheldrick, 2017)'
_computing_structure_solution    'SHELXL-2017/1 (Sheldrick, 2017)'
_diffrn_ambient_environment      N~2~
_diffrn_ambient_temperature      100.00(10)
_diffrn_detector                 'CCD plate'
_diffrn_detector_area_resol_mean 10.0000
_diffrn_detector_type            HyPix
_diffrn_measured_fraction_theta_full 0.997
_diffrn_measured_fraction_theta_max 0.958
_diffrn_measurement_device       'four-circle diffractometer'
_diffrn_measurement_device_type  'XtaLAB Synergy, Dualflex, HyPix'
_diffrn_radiation_monochromator  mirror
_diffrn_radiation_probe          x-ray
_diffrn_radiation_type           'Cu K\a'
_diffrn_radiation_wavelength     1.54184
_diffrn_reflns_av_R_equivalents  0.0457
_diffrn_reflns_av_unetI/netI     0.0436
_diffrn_reflns_Laue_measured_fraction_full 0.997
_diffrn_reflns_Laue_measured_fraction_max 0.958
_diffrn_reflns_limit_h_max       11
_diffrn_reflns_limit_h_min       -11
_diffrn_reflns_limit_k_max       11
_diffrn_reflns_limit_k_min       -12
_diffrn_reflns_limit_l_max       11
_diffrn_reflns_limit_l_min       -16
_diffrn_reflns_number            13421
_diffrn_reflns_point_group_measured_fraction_full 0.997
_diffrn_reflns_point_group_measured_fraction_max 0.958
_diffrn_reflns_theta_full        67.684
_diffrn_reflns_theta_max         76.504
_diffrn_reflns_theta_min         3.334
_diffrn_source                   'micro-focus sealed X-ray tube'
_diffrn_source_type              'PhotonJet (Cu) X-ray Source'
_exptl_absorpt_coefficient_mu    9.391
_exptl_absorpt_correction_T_max  1.00000
_exptl_absorpt_correction_T_min  0.76315
_exptl_absorpt_correction_type   multi-scan
_exptl_crystal_colour            red
_exptl_crystal_density_diffrn    1.507
_exptl_crystal_description       plate
_exptl_crystal_F_000             496
_exptl_crystal_size_max          0.100
_exptl_crystal_size_mid          0.050
_exptl_crystal_size_min          0.050
_refine_diff_density_max         1.996
_refine_diff_density_min         -1.471
_refine_diff_density_rms         0.167
_refine_ls_extinction_method     none
_refine_ls_goodness_of_fit_ref   1.049
_refine_ls_hydrogen_treatment    constr
_refine_ls_matrix_type           full
_refine_ls_number_parameters     241
_refine_ls_number_reflns         4673
_refine_ls_number_restraints     0
_refine_ls_restrained_S_all      1.049
_refine_ls_R_factor_all          0.0424
_refine_ls_R_factor_gt           0.0401
_refine_ls_shift/su_max          0.001
_refine_ls_shift/su_mean         0.000
_refine_ls_structure_factor_coef Fsqd
_refine_ls_weighting_details
'w=1/[\s^2^(Fo^2^)+(0.0688P)^2^+3.2180P] where P=(Fo^2^+2Fc^2^)/3'
_refine_ls_weighting_scheme      calc
_refine_ls_wR_factor_gt          0.1096
_refine_ls_wR_factor_ref         0.1116
_reflns_Friedel_coverage         0.000
_reflns_number_gt                4361
_reflns_number_total             4673
_reflns_threshold_expression     'I > 2\s(I)'
_cod_data_source_file            d0ce00468e1.cif
_cod_data_source_block           shelx_CCDC1
_cod_database_code               7240539
_shelx_shelxl_version_number     2016/6
_shelx_space_group_comment
;
The symmetry employed for this shelxl refinement is uniquely defined
by the following loop, which should always be used as a source of
symmetry information in preference to the above space-group names.
They are only intended as comments.
;
_shelx_estimated_absorpt_t_min   0.454
_shelx_estimated_absorpt_t_max   0.651
_shelx_res_file
;
TITL SIR92 run in space group  P-1
    shelx.res
    created by SHELXL-2016/6 at 08:41:34 on 20-Nov-2019
CELL  1.54184   9.2411   9.5189  13.3940   94.706   96.181   96.111
ZERR     2.00   0.0003   0.0003   0.0004    0.003    0.003    0.003
LATT   1
SFAC  C    H    LI   N    O    W
UNIT  32 16 4 16 2 2
MERG   2
ABIN
EADP C4 C6 C5
EQIV $3 -x+1, -y+1, -z+1
HTAB C7 N8_$3
HTAB C7 N8_$3
FMAP  -2
PLAN   20
SIZE     0.050   0.050   0.100
ACTA
BOND   $H
CONF
L.S.   5    0   37
TEMP  -173.15
WGHT    0.068800    3.218000
FVAR       5.41537
W1    6    0.619127    0.297479    0.261608    11.00000    0.03809    0.02436 =
         0.01533   -0.00286   -0.00290    0.01265
O1    5    0.791189    0.291671   -0.204048    11.00000    0.04452    0.03733 =
         0.01643    0.00581   -0.00073    0.01310
N1    4    0.508489    0.232655    0.391856    11.00000    0.06033    0.04034 =
         0.02054    0.00690    0.00839    0.03101
N2    4    0.717058    0.445241    0.394216    11.00000    0.05813    0.03866 =
         0.02688   -0.01664   -0.01828    0.02572
N6    4    0.589332    0.262593    0.013337    11.00000    0.08651    0.03599 =
         0.02479    0.00063    0.00343    0.02265
N5    4    0.268993    0.300232    0.187262    11.00000    0.04375    0.08930 =
         0.07848    0.04649    0.00447    0.01483
N3    4    0.935053    0.392756    0.183034    11.00000    0.04271    0.06137 =
         0.06784    0.00297    0.00645    0.01055
N4    4    0.860294    0.116020    0.379454    11.00000    0.05735    0.03873 =
         0.04760   -0.00039   -0.01643    0.01542
N7    4    0.520306   -0.039521    0.185687    11.00000    0.05620    0.03153 =
         0.02890    0.00083   -0.00170    0.00884
N8    4    0.561139    0.613953    0.193686    11.00000    0.06447    0.03053 =
         0.02734    0.00208    0.00102    0.01350
C11   1    0.825539    0.359941    0.210945    11.00000    0.03582    0.03883 =
         0.04164   -0.00003    0.00537    0.01054
C14   1    0.598678    0.273660    0.099633    11.00000    0.05242    0.02939 =
         0.01523    0.00056    0.00012    0.00889
C3    1    0.815387    0.557186    0.390710    11.00000    0.05567    0.03290 =
         0.06103   -0.01890   -0.02280    0.02010
AFIX  43
H3    2    0.841255    0.581383    0.327013    11.00000   -1.20000
AFIX   0
C10   1    0.395861    0.128666    0.386223    11.00000    0.06359    0.04028 =
         0.04113    0.01709    0.01702    0.02683
AFIX  43
H10   2    0.357397    0.083332    0.321555    11.00000   -1.20000
AFIX   0
C4    1    0.881379    0.639778    0.477519    11.00000    0.09151    0.06664 =
         0.05877   -0.03669   -0.04151    0.05424
AFIX  43
H4    2    0.951983    0.718742    0.473676    11.00000   -1.20000
AFIX   0
C6    1    0.742320    0.493469    0.575221    11.00000    0.09151    0.06664 =
         0.05877   -0.03669   -0.04151    0.05424
AFIX  43
H6    2    0.715872    0.469431    0.638814    11.00000   -1.20000
AFIX   0
C1    1    0.563361    0.297623    0.485278    11.00000    0.07701    0.05825 =
         0.01601   -0.00307    0.00226    0.04821
C9    1    0.333138    0.084249    0.469293    11.00000    0.08321    0.07272 =
         0.05691    0.03456    0.03994    0.05379
AFIX  43
H9    2    0.252623    0.011737    0.460779    11.00000   -1.20000
AFIX   0
C12   1    0.778856    0.176972    0.337221    11.00000    0.04661    0.03412 =
         0.02490   -0.00543   -0.00889    0.02128
C2    1    0.676928    0.412569    0.486248    11.00000    0.08150    0.05344 =
         0.02264   -0.01384   -0.01730    0.05025
C15   1    0.555588    0.077831    0.210886    11.00000    0.04092    0.02730 =
         0.01584    0.00038   -0.00048    0.00975
C16   1    0.582647    0.505958    0.218838    11.00000    0.04876    0.02939 =
         0.02022   -0.00230   -0.00178    0.01666
C7    1    0.500109    0.253033    0.571119    11.00000    0.12853    0.10586 =
         0.02008    0.01323    0.01330    0.09209
AFIX  43
H7    2    0.536708    0.299159    0.635890    11.00000   -1.20000
AFIX   0
C8    1    0.387244    0.144797    0.562851    11.00000    0.09476    0.08708 =
         0.05286    0.03893    0.04221    0.06656
AFIX  43
H8    2    0.348271    0.113322    0.621031    11.00000   -1.20000
AFIX   0
C5    1    0.841190    0.603605    0.570023    11.00000    0.09151    0.06664 =
         0.05877   -0.03669   -0.04151    0.05424
AFIX  43
H5    2    0.885058    0.658417    0.630236    11.00000   -1.20000
AFIX   0
C13   1    0.390273    0.298931    0.215090    11.00000    0.03863    0.04577 =
         0.03652    0.01560    0.00099    0.01562
LI1   3    0.571634    0.240007   -0.141253    11.00000    0.09412    0.05131 =
         0.05444    0.00233   -0.00532    0.00857
LI2   3    0.216675    0.201637   -0.106334    11.00000    0.07052    0.04684 =
         0.14740    0.00931    0.08278    0.00362
HKLF    4




REM  SIR92 run in space group  P-1
REM R1 =  0.0401 for    4361 Fo > 4sig(Fo)  and  0.0424 for all    4673 data
REM    241 parameters refined using      0 restraints

END

WGHT      0.0688      3.2180

REM Highest difference peak  1.996,  deepest hole -1.471,  1-sigma level  0.167
Q1    1   0.7452  0.2068 -0.2432  11.00000  0.05    2.00
Q2    1   0.4329  0.2233 -0.1221  11.00000  0.05    1.63
Q3    1   0.2629  0.2863 -0.0498  11.00000  0.05    1.56
Q4    1   0.1486  0.2003 -0.1626  11.00000  0.05    1.52
Q5    1   1.0819  0.3384  0.1087  11.00000  0.05    1.50
Q6    1   0.6624  0.2571  0.3042  11.00000  0.05   -1.47
Q7    1   0.5291  0.2648  0.2764  11.00000  0.05    1.37
Q8    1   0.2214  0.1726 -0.0837  11.00000  0.05    1.21
Q9    1   0.6091  0.2910  0.1668  11.00000  0.05    1.21
Q10   1   1.1415  0.4591  0.1618  11.00000  0.05    1.14
Q11   1   0.5749  0.3415  0.2186  11.00000  0.05   -1.10
Q12   1   0.7447  0.3360  0.2415  11.00000  0.05    1.09
Q13   1   0.2662  0.0780 -0.0248  11.00000  0.05    1.07
Q14   1   0.5807  0.3628  0.2867  11.00000  0.05   -1.03
Q15   1   0.5974  0.2170  0.2440  11.00000  0.05   -0.98
Q16   1   0.1737  0.0472 -0.0802  11.00000  0.05    0.94
Q17   1   0.6766  0.2410  0.2404  11.00000  0.05   -0.93
Q18   1   0.7963  0.3772 -0.1275  11.00000  0.05    0.86
Q19   1   0.6324  0.3017  0.3513  11.00000  0.05    0.86
Q20   1   1.0272  0.9275  0.4592  11.00000  0.05    0.82
;
_shelx_res_checksum              73771
_shelx_fab_file
;
   11    2    1      0.31      0.00
   11    2    0      0.86      0.00
  -11   -2    1      0.78      0.00
  -11   -2    2      0.63      0.00
  -11   -2    3      1.06      0.00
   11    1    2      0.69      0.00
   11    1    1      0.03      0.00
   11    1    0      0.22      0.00
  -11   -1    1      0.15      0.00
  -11   -1    2     -0.13      0.00
  -11   -1    3     -0.54      0.00
  -11   -1    4     -0.51      0.00
  -11   -1    5      0.13      0.00
   11    0    3      1.10      0.00
   11    0    2      0.71      0.00
   11    0    1     -0.59      0.00
   11    0    0     -0.13      0.00
  -11    0    1      0.76      0.00
  -11    0    2      1.12      0.00
  -11    0    3      1.01      0.00
  -11    0    4      0.24      0.00
  -11    0    5      0.72      0.00
   11   -1    3      0.14      0.00
   11   -1    2      0.59      0.00
   11   -1    1     -0.77      0.00
  -11    1    0     -0.99      0.00
  -11    1    1     -0.07      0.00
  -11    1    2     -0.22      0.00
  -11    1    3     -0.34      0.00
  -11    1    4     -0.97      0.00
  -11    1    5     -0.62      0.00
   11   -2    3      0.13      0.00
   11   -2    2      0.81      0.00
   11   -2    1      0.12      0.00
  -11    2    0     -0.81      0.00
  -11    2    1      0.30      0.00
  -11    2    2      0.91      0.00
  -11    2    3      1.25      0.00
  -11    2    4      1.27      0.00
  -11    2    5      1.06      0.00
   11   -3    3      0.02      0.00
   11   -3    2      0.38      0.00
   11   -3    1      0.91      0.00
  -11    3    0     -0.14      0.00
  -11    3    1     -0.28      0.00
  -11    3    2      0.18      0.00
  -11    3    3      0.23      0.00
  -11    3    4      0.19      0.00
  -11    3    5      0.08      0.00
   11   -4    2     -0.05      0.00
   11   -4    1      0.57      0.00
  -11    4    0      0.34      0.00
  -11    4    1     -0.42      0.00
  -11    4    2      0.03      0.00
  -11    4    3      0.87      0.00
  -11    4    4      1.09      0.00
  -11    5    0      0.16      0.00
  -11    5    2     -0.57      0.00
   10    4    2     -0.97      0.00
   10    4    1      0.53      0.00
  -10   -4    1     -0.80      0.00
  -10   -4    2     -0.03      0.00
  -10   -4    3      1.12      0.00
  -10   -4    4      0.15      0.00
   10    3    3      0.19      0.00
   10    3    2     -0.14      0.00
   10    3    0      0.64      0.00
  -10   -3    1     -1.04      0.00
  -10   -3    2     -1.20      0.00
  -10   -3    3      0.38      0.00
  -10   -3    4      0.54      0.00
  -10   -3    5     -0.18      0.00
   10    2    3      0.13      0.00
   10    2    2     -0.13      0.00
   10    2    0      0.96      0.00
  -10   -2    1      0.78      0.00
  -10   -2    2      0.43      0.00
  -10   -2    3      0.95      0.00
  -10   -2    4      1.21      0.00
  -10   -2    5      0.55      0.00
   10    1    5     -0.04      0.00
   10    1    4      0.32      0.00
   10    1    3      1.00      0.00
   10    1    2      0.47      0.00
   10    1    0     -0.67      0.00
  -10   -1    1     -0.43      0.00
  -10   -1    2     -0.77      0.00
  -10   -1    3     -0.86      0.00
  -10   -1    4     -0.33      0.00
  -10   -1    5      0.90      0.00
   10    0    6     -0.20      0.00
   10    0    5     -0.77      0.00
   10    0    4     -0.32      0.00
   10    0    3      0.72      0.00
   10    0    2      0.87      0.00
   10    0    0     -0.14      0.00
  -10    0    1      1.28      0.00
  -10    0    2      1.20      0.00
  -10    0    3      0.73      0.00
  -10    0    4     -0.09      0.00
  -10    0    5      0.63      0.00
  -10    0    7     -0.56      0.00
   10   -1    5     -1.32      0.00
   10   -1    4     -1.14      0.00
   10   -1    3     -0.35      0.00
   10   -1    2      0.55      0.00
   10   -1    1     -1.27      0.00
  -10    1    0     -1.96      0.00
  -10    1    1     -0.53      0.00
  -10    1    2     -0.69      0.00
  -10    1    3     -0.68      0.00
  -10    1    4     -0.79      0.00
  -10    1    5     -0.02      0.00
  -10    1    6      1.01      0.00
  -10    1    7      0.38      0.00
   10   -2    7     -0.07      0.00
   10   -2    6     -0.06      0.00
   10   -2    5     -0.17      0.00
   10   -2    4     -0.24      0.00
   10   -2    3     -0.50      0.00
   10   -2    2      0.74      0.00
   10   -2    1      0.38      0.00
  -10    2    0     -1.02      0.00
  -10    2    1      0.56      0.00
  -10    2    2      1.50      0.00
  -10    2    3      1.69      0.00
  -10    2    4      1.66      0.00
  -10    2    5      1.25      0.00
  -10    2    6      1.11      0.00
   10   -3    6     -0.28      0.00
   10   -3    5      0.14      0.00
   10   -3    4      0.27      0.00
   10   -3    3     -0.63      0.00
   10   -3    2     -0.10      0.00
   10   -3    1      1.06      0.00
  -10    3    0     -0.59      0.00
  -10    3    1     -0.82      0.00
  -10    3    2      0.26      0.00
  -10    3    3      0.50      0.00
  -10    3    4      0.48      0.00
  -10    3    5      0.29      0.00
  -10    3    6      0.16      0.00
   10   -4    5      1.76      0.00
   10   -4    4      1.93      0.00
   10   -4    3      0.92      0.00
   10   -4    2      0.06      0.00
   10   -4    1      1.35      0.00
  -10    4    0      1.06      0.00
  -10    4    1      0.16      0.00
  -10    4    2      1.25      0.00
  -10    4    3      2.26      0.00
  -10    4    4      2.17      0.00
  -10    4    5      1.58      0.00
  -10    4    6      1.04      0.00
   10   -5    4      0.29      0.00
   10   -5    3     -0.21      0.00
   10   -5    2     -0.83      0.00
   10   -5    1      0.01      0.00
  -10    5    0      0.76      0.00
  -10    5    1      0.07      0.00
  -10    5    2      0.20      0.00
  -10    5    3      0.97      0.00
  -10    5    4      0.87      0.00
  -10    5    5      0.14      0.00
   10   -6    3     -0.20      0.00
   10   -6    2     -0.41      0.00
   10   -6    1     -0.25      0.00
  -10    6    0      0.06      0.00
  -10    6    1     -0.14      0.00
  -10    6    2     -0.02      0.00
  -10    6    3      0.57      0.00
  -10    6    4      0.63      0.00
  -10    7    1     -0.27      0.00
  -10    7    2      0.03      0.00
    9    6    1      0.63      0.00
   -9   -6    1     -0.42      0.00
   -9   -6    2      0.33      0.00
   -9   -6    3     -0.18      0.00
   -9   -6    4     -0.35      0.00
    9    5    3     -1.47      0.00
    9    5    2     -1.04      0.00
    9    5    1      0.08      0.00
    9    5    0     -1.37      0.00
   -9   -5    1     -2.54      0.00
   -9   -5    2     -0.81      0.00
   -9   -5    4     -0.96      0.00
   -9   -5    5     -0.59      0.00
    9    4    3     -0.64      0.00
    9    4    2     -0.61      0.00
    9    4    1      0.93      0.00
   -9   -4    4     -1.17      0.00
   -9   -4    5     -1.53      0.00
   -9   -4    6     -0.48      0.00
    9    3    6     -0.55      0.00
    9    3    5     -0.45      0.00
    9    3    4     -0.33      0.00
    9    3    3      0.01      0.00
    9    3    2     -0.67      0.00
   -9   -3    4      0.50      0.00
   -9   -3    5     -0.26      0.00
   -9   -3    6      0.03      0.00
    9    2    7     -0.70      0.00
    9    2    6     -0.91      0.00
    9    2    5     -0.70      0.00
    9    2    4     -0.64      0.00
    9    2    3      0.40      0.00
    9    2    2      0.14      0.00
    9    2    0      0.69      0.00
   -9   -2    1      0.09      0.00
   -9   -2    2     -0.72      0.00
   -9   -2    3     -0.36      0.00
   -9   -2    4     -0.10      0.00
   -9   -2    5     -0.27      0.00
   -9   -2    6     -0.59      0.00
    9    1    7      0.85      0.00
    9    1    6     -0.37      0.00
    9    1    5     -0.46      0.00
    9    1    4     -0.42      0.00
    9    1    3      0.48      0.00
    9    1    2      0.15      0.00
    9    1    1     -1.98      0.00
    9    1    0     -1.00      0.00
   -9   -1    1     -0.29      0.00
   -9   -1    2     -0.72      0.00
   -9   -1    3     -0.45      0.00
   -9   -1    4      0.33      0.00
   -9   -1    5      1.71      0.00
   -9   -1    6      1.05      0.00
    9    0    8      0.09      0.00
    9    0    7      0.12      0.00
    9    0    6     -1.13      0.00
    9    0    5     -1.29      0.00
    9    0    4     -0.74      0.00
    9    0    3      0.44      0.00
    9    0    2      1.06      0.00
    9    0    0     -0.66      0.00
   -9    0    1      0.81      0.00
   -9    0    2     -0.16      0.00
   -9    0    3     -0.79      0.00
   -9    0    4     -1.36      0.00
   -9    0    5     -0.31      0.00
    9   -1    9      0.33      0.00
    9   -1    8     -0.15      0.00
    9   -1    7     -0.35      0.00
    9   -1    6     -1.18      0.00
    9   -1    5     -1.63      0.00
    9   -1    4     -1.36      0.00
    9   -1    3     -0.67      0.00
    9   -1    2      0.84      0.00
   -9    1    1     -0.29      0.00
   -9    1    3     -0.22      0.00
   -9    1    4      0.14      0.00
   -9    1    5      0.98      0.00
    9   -2    9     -0.29      0.00
    9   -2    8     -1.17      0.00
    9   -2    7     -1.33      0.00
    9   -2    6     -0.79      0.00
    9   -2    5     -0.65      0.00
    9   -2    4     -0.77      0.00
    9   -2    3     -1.42      0.00
    9   -2    2      0.43      0.00
   -9    2    0     -1.96      0.00
   -9    2    1     -0.12      0.00
   -9    2    2      0.65      0.00
   -9    2    3      0.60      0.00
   -9    2    4      0.50      0.00
   -9    2    5     -0.11      0.00
   -9    2    6     -0.17      0.00
   -9    2    7     -0.49      0.00
    9   -3    9     -0.20      0.00
    9   -3    8     -0.94      0.00
    9   -3    7     -1.47      0.00
    9   -3    6     -0.58      0.00
    9   -3    5     -0.01      0.00
    9   -3    4      0.11      0.00
    9   -3    3     -1.10      0.00
    9   -3    2     -0.13      0.00
    9   -3    1      1.47      0.00
   -9    3    0     -0.85      0.00
   -9    3    1     -0.88      0.00
   -9    3    2      0.47      0.00
   -9    3    3      0.73      0.00
   -9    3    4      0.87      0.00
   -9    3    5      0.52      0.00
   -9    3    6      0.62      0.00
   -9    3    7      0.64      0.00
    9   -4    8      0.17      0.00
    9   -4    7      0.17      0.00
    9   -4    6      1.39      0.00
    9   -4    5      2.20      0.00
    9   -4    4      2.11      0.00
    9   -4    3      0.76      0.00
    9   -4    2     -0.04      0.00
    9   -4    1      1.85      0.00
   -9    4    0      1.28      0.00
   -9    4    1      0.60      0.00
   -9    4    2      1.91      0.00
   -9    4    3      2.42      0.00
   -9    4    4      2.14      0.00
   -9    4    5      1.24      0.00
   -9    4    6      0.74      0.00
    9   -5    8     -0.39      0.00
    9   -5    7     -0.68      0.00
    9   -5    6     -0.57      0.00
    9   -5    5     -0.07      0.00
    9   -5    4     -0.13      0.00
    9   -5    3     -0.27      0.00
    9   -5    2     -0.72      0.00
    9   -5    1      0.71      0.00
   -9    5    0      1.45      0.00
   -9    5    1      0.90      0.00
   -9    5    2      1.26      0.00
   -9    5    3      1.39      0.00
   -9    5    4      1.30      0.00
   -9    5    5      0.94      0.00
   -9    5    6      0.82      0.00
    9   -6    7      0.35      0.00
    9   -6    6     -0.10      0.00
    9   -6    5      0.11      0.00
    9   -6    4      0.19      0.00
    9   -6    3      0.16      0.00
    9   -6    2     -0.28      0.00
    9   -6    1      0.02      0.00
   -9    6    0      0.53      0.00
   -9    6    1      0.51      0.00
   -9    6    2      0.93      0.00
   -9    6    3      0.86      0.00
   -9    6    4      0.66      0.00
   -9    6    5      0.60      0.00
   -9    6    6      0.60      0.00
    9   -7    5     -0.88      0.00
    9   -7    4     -0.55      0.00
    9   -7    3     -0.10      0.00
    9   -7    2     -0.28      0.00
    9   -7    1     -0.04      0.00
   -9    7    0      0.31      0.00
   -9    7    1      0.19      0.00
   -9    7    2      0.70      0.00
   -9    7    3      0.72      0.00
   -9    7    4      0.23      0.00
   -9    7    5      0.10      0.00
    9   -8    2      1.30      0.00
    9   -8    1      1.34      0.00
   -9    8    1      1.34      0.00
   -9    8    2      1.52      0.00
   -9    8    3      1.75      0.00
    8    7    2      0.54      0.00
    8    7    1      0.26      0.00
    8    7    0     -0.66      0.00
   -8   -7    1     -0.24      0.00
   -8   -7    2     -0.11      0.00
    8    6    4      0.12      0.00
    8    6    3     -0.07      0.00
    8    6    2      1.11      0.00
    8    6    1      2.01      0.00
    8    6    0      0.36      0.00
    8    5    6     -0.88      0.00
    8    5    5     -0.83      0.00
    8    5    4     -0.93      0.00
    8    5    3     -1.45      0.00
    8    5    2     -1.28      0.00
    8    5    1     -0.04      0.00
    8    4    8      0.59      0.00
    8    4    7      0.61      0.00
    8    4    6      0.59      0.00
    8    4    5      0.45      0.00
    8    4    4      0.75      0.00
    8    4    3      1.23      0.00
    8    4    2      0.76      0.00
    8    4    1      1.71      0.00
    8    3    9     -0.17      0.00
    8    3    8     -0.31      0.00
    8    3    6     -0.70      0.00
    8    3    5     -0.87      0.00
    8    3    4     -0.86      0.00
    8    3    3      0.37      0.00
    8    3    2     -0.50      0.00
    8    3    1     -0.57      0.00
    8    2    9      0.03      0.00
    8    2    8      0.59      0.00
    8    2    7      0.41      0.00
    8    2    6      0.37      0.00
    8    2    5      0.74      0.00
    8    2    4      0.53      0.00
    8    2    3      1.96      0.00
    8    2    2      1.30      0.00
    8    2    1     -0.25      0.00
    8    2    0      0.94      0.00
   -8   -2    1     -0.36      0.00
   -8   -2    2     -1.42      0.00
   -8   -2    3     -0.99      0.00
   -8   -2    4     -0.50      0.00
   -8   -2    5      0.07      0.00
   -8   -2    6     -0.08      0.00
    8    1   10      0.83      0.00
    8    1    9      1.05      0.00
    8    1    8      1.23      0.00
    8    1    7      0.51      0.00
    8    1    6     -0.75      0.00
    8    1    5     -0.43      0.00
    8    1    4     -0.41      0.00
    8    1    3      0.77      0.00
    8    1    2      0.50      0.00
    8    1    1     -1.98      0.00
    8    1    0     -0.30      0.00
   -8   -1    1      0.15      0.00
   -8   -1    2     -0.70      0.00
   -8   -1    3     -0.18      0.00
   -8   -1    4      0.35      0.00
   -8   -1    5      1.41      0.00
   -8   -1    6      0.15      0.00
    8    0   10     -0.16      0.00
    8    0    9     -0.02      0.00
    8    0    8      0.19      0.00
    8    0    7      0.62      0.00
    8    0    6     -0.24      0.00
    8    0    5     -0.12      0.00
    8    0    4      0.17      0.00
    8    0    3      1.05      0.00
    8    0    2      1.46      0.00
    8    0    1     -1.77      0.00
    8    0    0     -1.00      0.00
   -8    0    1      0.09      0.00
   -8    0    2     -1.65      0.00
   -8    0    3     -1.69      0.00
   -8    0    4     -1.86      0.00
   -8    0    5     -0.65      0.00
   -8    0    6     -0.68      0.00
    8   -1   10      1.30      0.00
    8   -1    9      0.74      0.00
    8   -1    8     -0.66      0.00
    8   -1    7     -0.56      0.00
    8   -1    6     -0.64      0.00
    8   -1    5     -0.76      0.00
    8   -1    4     -0.60      0.00
    8   -1    3     -0.14      0.00
    8   -1    2      1.46      0.00
    8   -1    1     -1.49      0.00
   -8    1    0     -2.38      0.00
   -8    1    1     -0.06      0.00
   -8    1    2     -0.76      0.00
   -8    1    3      0.08      0.00
   -8    1    4      0.48      0.00
   -8    1    5      0.92      0.00
   -8    1    6      1.29      0.00
    8   -2   10     -0.13      0.00
    8   -2    9     -0.67      0.00
    8   -2    8     -2.00      0.00
    8   -2    7     -1.69      0.00
    8   -2    6     -0.45      0.00
    8   -2    5     -0.55      0.00
    8   -2    4     -1.31      0.00
    8   -2    3     -2.52      0.00
    8   -2    2     -0.50      0.00
    8   -2    1     -1.39      0.00
   -8    2    0     -3.74      0.00
   -8    2    1     -1.43      0.00
   -8    2    2     -1.34      0.00
   -8    2    3     -1.34      0.00
   -8    2    4     -1.48      0.00
   -8    2    5     -2.38      0.00
   -8    2    7     -1.68      0.00
    8   -3   10      1.20      0.00
    8   -3    9      0.61      0.00
    8   -3    8     -0.63      0.00
    8   -3    7     -1.04      0.00
    8   -3    6      0.52      0.00
    8   -3    5      1.02      0.00
    8   -3    4      0.89      0.00
    8   -3    3     -0.72      0.00
    8   -3    2      0.33      0.00
    8   -3    1      1.33      0.00
   -8    3    0     -1.71      0.00
   -8    3    1     -1.04      0.00
   -8    3    2     -0.14      0.00
   -8    3    3     -0.05      0.00
   -8    3    4      0.54      0.00
   -8    3    5      0.00      0.00
   -8    3    6      0.66      0.00
   -8    3    7      1.23      0.00
    8   -4   10     -0.27      0.00
    8   -4    9      0.05      0.00
    8   -4    8      0.50      0.00
    8   -4    7      0.38      0.00
    8   -4    6      1.68      0.00
    8   -4    5      1.87      0.00
    8   -4    4      1.35      0.00
    8   -4    3     -0.38      0.00
    8   -4    2     -1.04      0.00
    8   -4    1      1.03      0.00
   -8    4    0      0.00      0.00
   -8    4    1      0.16      0.00
   -8    4    2      1.02      0.00
   -8    4    3      0.27      0.00
   -8    4    4      0.25      0.00
   -8    4    5     -0.66      0.00
   -8    4    6     -0.88      0.00
    8   -5    9     -0.41      0.00
    8   -5    8      0.31      0.00
    8   -5    7     -0.49      0.00
    8   -5    6     -0.58      0.00
    8   -5    5     -0.29      0.00
    8   -5    4     -0.03      0.00
    8   -5    3      0.00      0.00
    8   -5    2     -0.67      0.00
    8   -5    1      0.92      0.00
   -8    5    0      1.07      0.00
   -8    5    1      0.90      0.00
   -8    5    2      1.34      0.00
   -8    5    3      0.30      0.00
   -8    5    4      0.83      0.00
   -8    5    5      1.55      0.00
   -8    5    6      1.84      0.00
    8   -6    8     -0.10      0.00
    8   -6    7      0.12      0.00
    8   -6    6     -0.75      0.00
    8   -6    5     -1.00      0.00
    8   -6    4     -0.80      0.00
    8   -6    3     -0.58      0.00
    8   -6    2     -1.59      0.00
    8   -6    1     -1.04      0.00
   -8    6    0     -0.54      0.00
   -8    6    1     -0.52      0.00
   -8    6    2      0.05      0.00
   -8    6    3     -1.24      0.00
   -8    6    4     -1.49      0.00
   -8    6    5     -0.46      0.00
   -8    6    6      0.01      0.00
    8   -7    8     -0.45      0.00
    8   -7    7      0.32      0.00
    8   -7    6     -0.55      0.00
    8   -7    5     -1.53      0.00
    8   -7    4     -1.05      0.00
    8   -7    3      0.02      0.00
    8   -7    2     -0.55      0.00
    8   -7    1     -0.31      0.00
   -8    7    0      0.23      0.00
   -8    7    1     -0.17      0.00
   -8    7    2      0.47      0.00
   -8    7    3     -0.10      0.00
   -8    7    4     -0.70      0.00
   -8    7    5      0.18      0.00
    8   -8    5      0.02      0.00
    8   -8    4      0.22      0.00
    8   -8    3      1.63      0.00
    8   -8    2      1.46      0.00
    8   -8    1      1.38      0.00
   -8    8    0      1.93      0.00
   -8    8    1      0.98      0.00
   -8    8    2      1.03      0.00
   -8    8    3      0.92      0.00
   -8    8    4     -0.15      0.00
   -8    8    5     -0.39      0.00
    8   -9    2      0.35      0.00
    8   -9    1      0.23      0.00
   -8    9    0      0.93      0.00
   -8    9    1      0.24      0.00
   -8    9    2      0.15      0.00
   -8    9    3      0.96      0.00
    7    8    3      1.01      0.00
    7    8    2      1.96      0.00
    7    8    1      2.00      0.00
    7    8    0      1.75      0.00
   -7   -8    1      1.38      0.00
    7    7    5      1.29      0.00
    7    7    4      0.70      0.00
    7    7    3     -0.06      0.00
    7    7    2      0.72      0.00
    7    7    1      1.03      0.00
    7    7    0      0.35      0.00
   -7   -7    1      1.20      0.00
    7    6    7      0.17      0.00
    7    6    6      0.47      0.00
    7    6    5      0.63      0.00
    7    6    4      0.99      0.00
    7    6    3      0.96      0.00
    7    6    2      1.94      0.00
    7    6    1      2.77      0.00
    7    6    0      0.81      0.00
   -7   -6    1      0.71      0.00
   -7   -6    2      1.40      0.00
    7    5    8     -0.38      0.00
    7    5    7     -0.44      0.00
    7    5    6     -0.76      0.00
    7    5    5     -1.39      0.00
    7    5    4     -1.06      0.00
    7    5    3     -0.92      0.00
    7    5    2     -1.01      0.00
    7    5    1      0.26      0.00
    7    5    0     -0.94      0.00
   -7   -5    1     -1.09      0.00
   -7   -5    2      1.07      0.00
   -7   -5    3      0.30      0.00
    7    4    9      0.81      0.00
    7    4    8      1.43      0.00
    7    4    7      1.52      0.00
    7    4    6      1.34      0.00
    7    4    5      0.72      0.00
    7    4    4      1.31      0.00
    7    4    3      2.56      0.00
    7    4    2      1.52      0.00
    7    4    1      1.77      0.00
    7    4    0      0.72      0.00
   -7   -4    1     -1.10      0.00
   -7   -4    2      0.49      0.00
   -7   -4    3      0.47      0.00
   -7   -4    4     -0.17      0.00
   -7   -4    5      0.70      0.00
    7    3   10     -0.43      0.00
    7    3    9     -0.51      0.00
    7    3    8     -0.61      0.00
    7    3    7     -1.07      0.00
    7    3    6     -1.11      0.00
    7    3    5     -1.25      0.00
    7    3    4     -0.96      0.00
    7    3    3      1.04      0.00
    7    3    2      0.04      0.00
    7    3    1     -0.18      0.00
    7    3    0      0.59      0.00
   -7   -3    1     -1.11      0.00
   -7   -3    2     -0.20      0.00
   -7   -3    3      0.18      0.00
   -7   -3    4     -0.54      0.00
   -7   -3    5     -0.70      0.00
   -7   -3    6     -0.68      0.00
    7    2   10      0.37      0.00
    7    2    9      1.32      0.00
    7    2    8      1.98      0.00
    7    2    7      1.73      0.00
    7    2    6      1.46      0.00
    7    2    5      1.83      0.00
    7    2    4      1.53      0.00
    7    2    3      3.02      0.00
    7    2    2      1.86      0.00
    7    2    1      0.17      0.00
    7    2    0      1.44      0.00
   -7   -2    1     -0.53      0.00
   -7   -2    2     -0.87      0.00
   -7   -2    3      0.16      0.00
   -7   -2    4      0.70      0.00
   -7   -2    5      1.60      0.00
   -7   -2    6      0.92      0.00
    7    1   11      0.56      0.00
    7    1   10      0.65      0.00
    7    1    9      0.44      0.00
    7    1    8      0.18      0.00
    7    1    7     -0.13      0.00
    7    1    6     -0.99      0.00
    7    1    5     -0.17      0.00
    7    1    4      0.09      0.00
    7    1    3      1.22      0.00
    7    1    2      0.49      0.00
    7    1    1     -2.07      0.00
    7    1    0      0.09      0.00
   -7   -1    1     -0.65      0.00
   -7   -1    2     -1.74      0.00
   -7   -1    3     -0.66      0.00
   -7   -1    4     -0.88      0.00
   -7   -1    5     -0.44      0.00
   -7   -1    6     -2.17      0.00
    7    0   11      0.15      0.00
    7    0   10      1.01      0.00
    7    0    9      1.23      0.00
    7    0    8      1.09      0.00
    7    0    7      2.05      0.00
    7    0    6      1.35      0.00
    7    0    5      1.16      0.00
    7    0    4      1.10      0.00
    7    0    3      1.59      0.00
    7    0    2      1.52      0.00
    7    0    1     -1.91      0.00
    7    0    0     -0.13      0.00
   -7    0    1      0.46      0.00
   -7    0    2     -1.55      0.00
   -7    0    3     -0.32      0.00
   -7    0    4     -0.67      0.00
   -7    0    5      0.01      0.00
   -7    0    6     -0.50      0.00
    7   -1   12     -0.17      0.00
    7   -1   11      0.93      0.00
    7   -1   10      1.01      0.00
    7   -1    9     -0.03      0.00
    7   -1    8     -1.81      0.00
    7   -1    7     -0.69      0.00
    7   -1    6      0.07      0.00
    7   -1    5     -0.22      0.00
    7   -1    4     -0.38      0.00
    7   -1    3     -0.51      0.00
    7   -1    2      0.29      0.00
    7   -1    1     -3.51      0.00
   -7    1    0     -3.42      0.00
   -7    1    1     -0.83      0.00
   -7    1    2     -2.26      0.00
   -7    1    3     -0.69      0.00
   -7    1    4     -0.84      0.00
   -7    1    5     -1.28      0.00
   -7    1    6     -1.11      0.00
    7   -2   12     -1.06      0.00
    7   -2   11     -0.02      0.00
    7   -2   10      0.17      0.00
    7   -2    9     -0.22      0.00
    7   -2    8     -1.81      0.00
    7   -2    7     -1.17      0.00
    7   -2    6     -0.03      0.00
    7   -2    5     -1.24      0.00
    7   -2    4     -2.51      0.00
    7   -2    3     -3.84      0.00
    7   -2    2     -1.87      0.00
    7   -2    1     -3.39      0.00
   -7    2    0     -4.72      0.00
   -7    2    1     -1.46      0.00
   -7    2    2     -2.80      0.00
   -7    2    3     -2.84      0.00
   -7    2    4     -3.13      0.00
   -7    2    5     -4.47      0.00
   -7    2    6     -3.31      0.00
    7   -3   12      1.09      0.00
    7   -3   11      1.48      0.00
    7   -3   10      1.12      0.00
    7   -3    9      0.90      0.00
    7   -3    8     -0.26      0.00
    7   -3    7     -0.19      0.00
    7   -3    6      1.76      0.00
    7   -3    5      1.56      0.00
    7   -3    4      1.04      0.00
    7   -3    3     -1.07      0.00
    7   -3    2     -0.57      0.00
    7   -3    1     -0.91      0.00
   -7    3    0     -3.83      0.00
   -7    3    1     -1.47      0.00
   -7    3    2     -1.76      0.00
   -7    3    3     -2.26      0.00
   -7    3    4     -1.11      0.00
   -7    3    5     -2.01      0.00
   -7    3    6     -1.09      0.00
    7   -4   11     -0.02      0.00
    7   -4   10     -0.34      0.00
    7   -4    9      0.90      0.00
    7   -4    8      1.47      0.00
    7   -4    7      0.72      0.00
    7   -4    6      1.46      0.00
    7   -4    5      0.64      0.00
    7   -4    4      0.03      0.00
    7   -4    3     -1.63      0.00
    7   -4    2     -1.89      0.00
    7   -4    1      0.02      0.00
   -7    4    0     -1.32      0.00
   -7    4    1      0.23      0.00
   -7    4    2     -0.21      0.00
   -7    4    3     -2.91      0.00
   -7    4    4     -2.25      0.00
   -7    4    5     -2.67      0.00
   -7    4    6     -2.49      0.00
    7   -5   11      0.94      0.00
    7   -5   10     -0.30      0.00
    7   -5    9      0.14      0.00
    7   -5    8      1.24      0.00
    7   -5    7     -0.05      0.00
    7   -5    6     -0.27      0.00
    7   -5    5     -0.36      0.00
    7   -5    4      0.14      0.00
    7   -5    3     -0.08      0.00
    7   -5    2     -1.33      0.00
    7   -5    1      0.10      0.00
   -7    5    0     -0.61      0.00
   -7    5    1      0.08      0.00
   -7    5    2      0.52      0.00
   -7    5    3     -2.00      0.00
   -7    5    4     -0.63      0.00
   -7    5    5      1.18      0.00
   -7    5    6      1.45      0.00
    7   -6    9     -1.47      0.00
    7   -6    8      0.07      0.00
    7   -6    7     -0.31      0.00
    7   -6    6     -1.72      0.00
    7   -6    5     -2.73      0.00
    7   -6    4     -2.59      0.00
    7   -6    3     -2.33      0.00
    7   -6    2     -3.99      0.00
    7   -6    1     -3.11      0.00
   -7    6    0     -3.08      0.00
   -7    6    1     -3.26      0.00
   -7    6    2     -2.62      0.00
   -7    6    3     -5.10      0.00
   -7    6    4     -4.91      0.00
   -7    6    5     -2.41      0.00
   -7    6    6     -1.21      0.00
    7   -7    9     -0.34      0.00
    7   -7    8     -0.06      0.00
    7   -7    7      0.48      0.00
    7   -7    6     -0.47      0.00
    7   -7    5     -1.74      0.00
    7   -7    4     -1.45      0.00
    7   -7    3     -0.09      0.00
    7   -7    2     -1.23      0.00
    7   -7    1     -0.91      0.00
   -7    7    0     -0.53      0.00
   -7    7    1     -1.50      0.00
   -7    7    2     -0.63      0.00
   -7    7    3     -1.66      0.00
   -7    7    4     -2.18      0.00
   -7    7    5     -0.52      0.00
   -7    7    6      0.66      0.00
    7   -8    8     -1.64      0.00
    7   -8    7     -0.57      0.00
    7   -8    6      0.21      0.00
    7   -8    5     -0.50      0.00
    7   -8    4     -1.03      0.00
    7   -8    3      0.34      0.00
    7   -8    2     -0.14      0.00
    7   -8    1     -0.39      0.00
   -7    8    0     -0.04      0.00
   -7    8    1     -1.79      0.00
   -7    8    2     -1.66      0.00
   -7    8    3     -1.69      0.00
   -7    8    4     -2.50      0.00
   -7    8    5     -1.84      0.00
    7   -9    4     -0.72      0.00
    7   -9    3     -0.18      0.00
    7   -9    2      0.28      0.00
   -7    9    0      0.74      0.00
   -7    9    1     -0.68      0.00
   -7    9    2     -0.80      0.00
   -7    9    3      0.28      0.00
   -7    9    4     -0.09      0.00
    7  -10    2      0.09      0.00
   -7   10    0     -0.08      0.00
   -7   10    1     -1.09      0.00
   -7   10    2     -1.87      0.00
    6    9    2     -0.33      0.00
    6    9    1      0.10      0.00
    6    9    0      0.83      0.00
   -6   -9    1      0.49      0.00
   -6   -9    2      0.04      0.00
    6    8    5      0.62      0.00
    6    8    3      0.09      0.00
    6    8    2      1.07      0.00
    6    8    1      0.80      0.00
    6    8    0      0.24      0.00
   -6   -8    1     -0.01      0.00
   -6   -8    2     -0.85      0.00
   -6   -8    3     -0.12      0.00
    6    7    7      1.06      0.00
    6    7    6      0.78      0.00
    6    7    5      0.31      0.00
    6    7    4     -0.19      0.00
    6    7    3     -0.67      0.00
    6    7    2      0.74      0.00
    6    7    1      1.65      0.00
    6    7    0      1.10      0.00
   -6   -7    1      1.97      0.00
   -6   -7    2      1.67      0.00
   -6   -7    3      0.96      0.00
    6    6    9     -0.28      0.00
    6    6    8      0.23      0.00
    6    6    7      0.33      0.00
    6    6    6     -0.14      0.00
    6    6    5     -0.46      0.00
    6    6    4      0.32      0.00
    6    6    3      0.36      0.00
    6    6    2      0.63      0.00
    6    6    1      1.03      0.00
    6    6    0     -0.81      0.00
   -6   -6    1     -0.39      0.00
   -6   -6    2      0.43      0.00
   -6   -6    3     -0.40      0.00
    6    5   10     -0.72      0.00
    6    5    9     -0.65      0.00
    6    5    8     -0.19      0.00
    6    5    7     -0.54      0.00
    6    5    6     -1.52      0.00
    6    5    5     -2.40      0.00
    6    5    4     -1.25      0.00
    6    5    3     -0.12      0.00
    6    5    2     -0.38      0.00
    6    5    1      0.61      0.00
    6    5    0     -0.24      0.00
   -6   -5    1      0.29      0.00
   -6   -5    2      1.88      0.00
   -6   -5    3      0.15      0.00
   -6   -5    6      0.73      0.00
    6    4   11      0.14      0.00
    6    4   10      0.63      0.00
    6    4    9      1.01      0.00
    6    4    8      1.37      0.00
    6    4    7      0.79      0.00
    6    4    6     -0.09      0.00
    6    4    5     -0.87      0.00
    6    4    4      0.04      0.00
    6    4    3      1.70      0.00
    6    4    2      0.23      0.00
    6    4    1      0.00      0.00
    6    4    0     -0.91      0.00
   -6   -4    1     -1.38      0.00
   -6   -4    2      1.06      0.00
   -6   -4    3      0.53      0.00
   -6   -4    5      1.43      0.00
   -6   -4    6      1.38      0.00
    6    3   11     -1.19      0.00
    6    3   10     -1.07      0.00
    6    3    9     -1.28      0.00
    6    3    8     -1.45      0.00
    6    3    7     -1.88      0.00
    6    3    6     -1.96      0.00
    6    3    5     -1.47      0.00
    6    3    4     -0.62      0.00
    6    3    3      1.68      0.00
    6    3    2      0.56      0.00
    6    3    1      0.40      0.00
    6    3    0      0.71      0.00
   -6   -3    1     -0.98      0.00
   -6   -3    2      0.89      0.00
   -6   -3    3      0.62      0.00
   -6   -3    4     -0.14      0.00
   -6   -3    5      0.22      0.00
   -6   -3    6     -0.25      0.00
   -6   -3    7     -0.25      0.00
    6    2   12     -0.19      0.00
    6    2   11      0.16      0.00
    6    2   10      1.40      0.00
    6    2    9      1.79      0.00
    6    2    8      1.57      0.00
    6    2    7      1.03      0.00
    6    2    6      0.30      0.00
    6    2    5      1.04      0.00
    6    2    4      1.10      0.00
    6    2    3      2.53      0.00
    6    2    2      1.23      0.00
    6    2    1      0.24      0.00
    6    2    0      1.69      0.00
   -6   -2    1     -0.78      0.00
   -6   -2    2      0.68      0.00
   -6   -2    3      2.41      0.00
   -6   -2    4      2.17      0.00
   -6   -2    5      2.49      0.00
   -6   -2    6      0.63      0.00
   -6   -2    7      0.25      0.00
    6    1   12     -0.33      0.00
    6    1   11     -0.41      0.00
    6    1   10     -0.23      0.00
    6    1    9     -0.89      0.00
    6    1    8     -1.52      0.00
    6    1    7     -0.86      0.00
    6    1    6     -1.22      0.00
    6    1    5      0.29      0.00
    6    1    4      0.82      0.00
    6    1    3      1.40      0.00
    6    1    2      0.05      0.00
    6    1    1     -1.97      0.00
    6    1    0      0.95      0.00
   -6   -1    1     -0.97      0.00
   -6   -1    2     -1.20      0.00
   -6   -1    3      1.04      0.00
   -6   -1    4     -0.33      0.00
   -6   -1    5     -0.70      0.00
   -6   -1    6     -2.84      0.00
   -6   -1    7     -2.74      0.00
    6    0   13     -1.11      0.00
    6    0   12     -0.53      0.00
    6    0   11      0.96      0.00
    6    0   10      2.15      0.00
    6    0    9      2.03      0.00
    6    0    8      1.08      0.00
    6    0    7      2.44      0.00
    6    0    6      1.59      0.00
    6    0    5      1.73      0.00
    6    0    4      2.45      0.00
    6    0    3      2.89      0.00
    6    0    2      2.64      0.00
    6    0    1     -0.07      0.00
    6    0    0      3.53      0.00
   -6    0    1      3.44      0.00
   -6    0    2      1.22      0.00
   -6    0    3      3.65      0.00
   -6    0    4      2.14      0.00
   -6    0    5      1.57      0.00
   -6    0    6      0.40      0.00
   -6    0    7      0.05      0.00
    6   -1   13     -1.25      0.00
    6   -1   12     -1.37      0.00
    6   -1   11     -0.62      0.00
    6   -1   10     -0.88      0.00
    6   -1    9     -1.75      0.00
    6   -1    8     -3.33      0.00
    6   -1    7     -1.04      0.00
    6   -1    6     -0.40      0.00
    6   -1    5     -1.17      0.00
    6   -1    4     -1.04      0.00
    6   -1    3     -1.88      0.00
    6   -1    2     -2.06      0.00
    6   -1    1     -5.70      0.00
   -6    1    0     -2.76      0.00
   -6    1    1      0.66      0.00
   -6    1    2     -1.84      0.00
   -6    1    3      0.35      0.00
   -6    1    4     -0.71      0.00
   -6    1    5     -2.27      0.00
   -6    1    6     -2.37      0.00
    6   -2   12     -0.75      0.00
    6   -2   11      0.19      0.00
    6   -2   10      0.19      0.00
    6   -2    9      0.08      0.00
    6   -2    8     -1.80      0.00
    6   -2    7     -0.93      0.00
    6   -2    6     -0.40      0.00
    6   -2    5     -2.28      0.00
    6   -2    4     -2.17      0.00
    6   -2    3     -2.57      0.00
    6   -2    2     -0.79      0.00
    6   -2    1     -2.78      0.00
   -6    2    0     -1.96      0.00
   -6    2    1      2.30      0.00
   -6    2    2     -1.77      0.00
   -6    2    3     -2.42      0.00
   -6    2    4     -2.59      0.00
   -6    2    5     -3.96      0.00
   -6    2    6     -2.23      0.00
    6   -3   12      0.60      0.00
    6   -3   11      0.11      0.00
    6   -3   10     -0.65      0.00
    6   -3    9      0.08      0.00
    6   -3    8     -0.70      0.00
    6   -3    7     -0.19      0.00
    6   -3    6      1.53      0.00
    6   -3    5      0.14      0.00
    6   -3    4     -0.15      0.00
    6   -3    3     -2.15      0.00
    6   -3    2     -2.04      0.00
    6   -3    1     -3.16      0.00
   -6    3    0     -4.19      0.00
   -6    3    1      0.89      0.00
   -6    3    2     -1.41      0.00
   -6    3    3     -3.27      0.00
   -6    3    4     -1.68      0.00
   -6    3    5     -2.87      0.00
   -6    3    6     -2.42      0.00
    6   -4   12      0.74      0.00
    6   -4   11      0.25      0.00
    6   -4   10     -0.23      0.00
    6   -4    9      1.84      0.00
    6   -4    8      2.21      0.00
    6   -4    7      0.93      0.00
    6   -4    6      1.63      0.00
    6   -4    5      0.53      0.00
    6   -4    4      1.05      0.00
    6   -4    3      0.43      0.00
    6   -4    2      0.92      0.00
    6   -4    1      2.46      0.00
   -6    4    0      0.91      0.00
   -6    4    1      3.95      0.00
   -6    4    2      1.56      0.00
   -6    4    3     -3.21      0.00
   -6    4    4     -1.40      0.00
   -6    4    5     -0.73      0.00
   -6    4    6     -0.35      0.00
    6   -5   12      0.73      0.00
    6   -5   11      0.50      0.00
    6   -5   10     -1.05      0.00
    6   -5    9     -0.12      0.00
    6   -5    8      1.10      0.00
    6   -5    7     -0.48      0.00
    6   -5    6     -0.34      0.00
    6   -5    5     -0.67      0.00
    6   -5    4      0.13      0.00
    6   -5    3     -0.22      0.00
    6   -5    2     -1.47      0.00
    6   -5    1      0.34      0.00
   -6    5    0     -0.86      0.00
   -6    5    1      1.08      0.00
   -6    5    2      1.33      0.00
   -6    5    3     -2.78      0.00
   -6    5    4     -0.92      0.00
   -6    5    5      1.32      0.00
   -6    5    6      1.01      0.00
    6   -6   10     -0.66      0.00
    6   -6    9     -0.98      0.00
    6   -6    8      0.53      0.00
    6   -6    7     -0.35      0.00
    6   -6    6     -1.51      0.00
    6   -6    5     -2.77      0.00
    6   -6    4     -2.49      0.00
    6   -6    3     -2.11      0.00
    6   -6    2     -3.98      0.00
    6   -6    1     -2.53      0.00
   -6    6    0     -3.39      0.00
   -6    6    1     -3.83      0.00
   -6    6    2     -2.90      0.00
   -6    6    3     -5.92      0.00
   -6    6    4     -4.88      0.00
   -6    6    5     -1.39      0.00
   -6    6    6      0.11      0.00
    6   -7   11      0.95      0.00
    6   -7   10      1.25      0.00
    6   -7    9     -0.21      0.00
    6   -7    8      0.00      0.00
    6   -7    7      0.24      0.00
    6   -7    6     -0.23      0.00
    6   -7    5     -1.49      0.00
    6   -7    4     -1.41      0.00
    6   -7    3      0.22      0.00
    6   -7    2     -1.10      0.00
    6   -7    1     -0.22      0.00
   -6    7    0     -0.21      0.00
   -6    7    1     -1.74      0.00
   -6    7    2     -0.52      0.00
   -6    7    3     -1.88      0.00
   -6    7    4     -2.39      0.00
   -6    7    5     -0.91      0.00
   -6    7    6     -0.17      0.00
    6   -8    9     -0.99      0.00
    6   -8    8     -1.13      0.00
    6   -8    7     -0.33      0.00
    6   -8    6      0.39      0.00
    6   -8    5     -0.60      0.00
    6   -8    4     -1.92      0.00
    6   -8    3     -0.60      0.00
    6   -8    2     -1.33      0.00
    6   -8    1     -1.51      0.00
   -6    8    0     -1.42      0.00
   -6    8    1     -3.67      0.00
   -6    8    2     -2.86      0.00
   -6    8    3     -2.32      0.00
   -6    8    4     -2.44      0.00
   -6    8    5     -1.34      0.00
    6   -9    6      1.08      0.00
    6   -9    5      0.88      0.00
    6   -9    4     -0.78      0.00
    6   -9    3      0.12      0.00
    6   -9    2      0.61      0.00
    6   -9    1      0.32      0.00
   -6    9    0      0.77      0.00
   -6    9    1     -1.17      0.00
   -6    9    2     -1.04      0.00
   -6    9    3      0.22      0.00
   -6    9    4     -0.14      0.00
   -6    9    5     -0.26      0.00
   -6    9    6     -0.34      0.00
   -6    9    7     -0.44      0.00
    6  -10    4     -0.74      0.00
    6  -10    3     -0.83      0.00
    6  -10    2     -0.39      0.00
   -6   10    0     -0.86      0.00
   -6   10    1     -1.90      0.00
   -6   10    2     -2.31      0.00
   -6   10    3     -0.66      0.00
    5   10    0     -1.53      0.00
    5    9    4     -1.60      0.00
    5    9    3     -1.24      0.00
    5    9    2     -0.21      0.00
    5    9    1      0.08      0.00
    5    9    0      0.40      0.00
   -5   -9    1     -0.25      0.00
   -5   -9    2     -0.75      0.00
   -5   -9    3      0.06      0.00
    5    8    7      0.02      0.00
    5    8    6     -0.03      0.00
    5    8    5     -0.38      0.00
    5    8    4     -1.18      0.00
    5    8    3     -1.48      0.00
    5    8    2     -0.65      0.00
    5    8    1     -1.16      0.00
    5    8    0     -1.85      0.00
   -5   -8    1     -1.65      0.00
   -5   -8    2     -1.91      0.00
   -5   -8    3     -0.67      0.00
   -5   -8    4      0.24      0.00
    5    7    8      0.95      0.00
    5    7    7      0.48      0.00
    5    7    6     -0.50      0.00
    5    7    5     -0.90      0.00
    5    7    4     -0.49      0.00
    5    7    2      1.31      0.00
    5    7    1      2.02      0.00
    5    7    0      1.06      0.00
   -5   -7    1      1.51      0.00
   -5   -7    2      0.69      0.00
   -5   -7    3     -0.01      0.00
   -5   -7    4      0.55      0.00
    5    6   10     -0.40      0.00
    5    6    9     -0.20      0.00
    5    6    8      0.39      0.00
    5    6    7     -0.36      0.00
    5    6    6     -1.65      0.00
    5    6    5     -2.12      0.00
    5    6    4     -0.93      0.00
    5    6    3     -0.84      0.00
    5    6    2     -1.55      0.00
    5    6    1     -1.73      0.00
    5    6    0     -3.14      0.00
   -5   -6    1     -1.94      0.00
   -5   -6    2     -1.15      0.00
   -5   -6    3     -1.74      0.00
   -5   -6    4     -0.37      0.00
   -5   -6    5      0.24      0.00
   -5   -6    6     -0.31      0.00
    5    5   11     -0.77      0.00
    5    5   10     -0.57      0.00
    5    5    9     -0.37      0.00
    5    5    8      0.21      0.00
    5    5    7     -0.74      0.00
    5    5    6     -1.91      0.00
    5    5    5     -2.10      0.00
    5    5    4     -0.03      0.00
    5    5    3      1.69      0.00
    5    5    2      0.75      0.00
    5    5    1      0.80      0.00
    5    5    0     -0.22      0.00
   -5   -5    1      0.86      0.00
   -5   -5    2      1.92      0.00
   -5   -5    3     -0.12      0.00
   -5   -5    5      2.05      0.00
   -5   -5    6      2.07      0.00
    5    4   12      0.11      0.00
    5    4   11      0.16      0.00
    5    4   10      0.88      0.00
    5    4    9      0.51      0.00
    5    4    8      0.33      0.00
    5    4    7     -1.15      0.00
    5    4    6     -2.49      0.00
    5    4    5     -2.74      0.00
    5    4    4     -1.65      0.00
    5    4    3      0.00      0.00
    5    4    2     -1.91      0.00
    5    4    1     -2.50      0.00
    5    4    0     -3.43      0.00
   -5   -4    1     -2.51      0.00
   -5   -4    2      0.78      0.00
   -5   -4    3     -0.45      0.00
   -5   -4    7     -2.30      0.00
    5    3   12     -1.00      0.00
    5    3   11     -1.42      0.00
    5    3   10     -0.66      0.00
    5    3    9     -1.45      0.00
    5    3    8     -1.49      0.00
    5    3    7     -1.58      0.00
    5    3    6     -1.42      0.00
    5    3    5     -0.01      0.00
    5    3    4      0.81      0.00
    5    3    3      2.72      0.00
    5    3    2      1.24      0.00
    5    3    1      1.10      0.00
    5    3    0      0.77      0.00
   -5   -3    1     -0.43      0.00
   -5   -3    2      3.48      0.00
   -5   -3    3      3.27      0.00
   -5   -3    4      2.91      0.00
   -5   -3    6      2.69      0.00
   -5   -3    7      2.46      0.00
    5    2   13     -0.39      0.00
    5    2   12      0.24      0.00
    5    2   11      0.77      0.00
    5    2   10      2.09      0.00
    5    2    9      0.66      0.00
    5    2    8     -0.72      0.00
    5    2    7     -1.22      0.00
    5    2    6     -1.79      0.00
    5    2    5      0.20      0.00
    5    2    4      0.39      0.00
    5    2    3      1.38      0.00
    5    2    2     -0.13      0.00
    5    2    1     -0.46      0.00
    5    2    0      0.83      0.00
   -5   -2    1     -2.11      0.00
   -5   -2    2      1.66      0.00
   -5   -2    3      3.76      0.00
   -5   -2    4      2.10      0.00
   -5   -2    5      1.61      0.00
   -5   -2    6     -1.03      0.00
   -5   -2    7     -1.02      0.00
    5    1   13     -0.61      0.00
    5    1   12     -0.50      0.00
    5    1   11     -0.65      0.00
    5    1   10      0.18      0.00
    5    1    9     -0.83      0.00
    5    1    8     -1.49      0.00
    5    1    7      0.11      0.00
    5    1    6     -0.12      0.00
    5    1    5      2.54      0.00
    5    1    4      2.89      0.00
    5    1    3      2.32      0.00
    5    1    2      0.64      0.00
    5    1    1      0.03      0.00
    5    1    0      4.65      0.00
   -5   -1    1      2.12      0.00
   -5   -1    2      3.65      0.00
   -5   -1    3      7.25      0.00
   -5   -1    4      4.35      0.00
   -5   -1    5      3.09      0.00
   -5   -1    6      0.58      0.00
   -5   -1    7      1.06      0.00
    5    0   13     -0.91      0.00
    5    0   12      0.28      0.00
    5    0   11      1.32      0.00
    5    0   10      2.34      0.00
    5    0    9      1.67      0.00
    5    0    8      0.29      0.00
    5    0    7      2.39      0.00
    5    0    6      1.47      0.00
    5    0    5      3.61      0.00
    5    0    4      5.96      0.00
    5    0    3      5.65      0.00
    5    0    2      4.47      0.00
    5    0    1      2.39      0.00
   -5    0    1      7.07      0.00
   -5    0    2      4.07      0.00
   -5    0    3      7.62      0.00
   -5    0    4      4.91      0.00
   -5    0    5      3.38      0.00
   -5    0    6      1.97      0.00
   -5    0    7      2.08      0.00
    5   -1   14     -0.15      0.00
    5   -1   13     -1.54      0.00
    5   -1   12     -1.69      0.00
    5   -1   11     -1.79      0.00
    5   -1   10     -1.99      0.00
    5   -1    9     -1.97      0.00
    5   -1    8     -3.05      0.00
    5   -1    7     -0.02      0.00
    5   -1    6     -0.86      0.00
    5   -1    5     -1.59      0.00
    5   -1    4      0.10      0.00
    5   -1    3     -1.20      0.00
    5   -1    2     -1.93      0.00
    5   -1    1     -4.11      0.00
   -5    1    1      8.15      0.00
   -5    1    2      3.11      0.00
   -5    1    3      5.30      0.00
   -5    1    4      3.64      0.00
   -5    1    5      1.25      0.00
   -5    1    6      0.63      0.00
    5   -2   13     -0.38      0.00
    5   -2   12     -0.12      0.00
    5   -2   11     -0.06      0.00
    5   -2   10     -0.47      0.00
    5   -2    9      0.15      0.00
    5   -2    8     -1.61      0.00
    5   -2    7      0.18      0.00
    5   -2    6      0.26      0.00
    5   -2    5     -1.20      0.00
    5   -2    4      1.70      0.00
    5   -2    3      1.89      0.00
    5   -2    2      2.43      0.00
    5   -2    1     -0.75      0.00
   -5    2    0      2.66      0.00
   -5    2    1      7.88      0.00
   -5    2    2     -0.05      0.00
   -5    2    3     -1.30      0.00
   -5    2    4      0.12      0.00
   -5    2    5     -0.09      0.00
   -5    2    6      1.68      0.00
    5   -3   14     -0.24      0.00
    5   -3   13      0.40      0.00
    5   -3   12      0.21      0.00
    5   -3   11     -0.99      0.00
    5   -3   10     -1.92      0.00
    5   -3    9      0.04      0.00
    5   -3    8     -0.65      0.00
    5   -3    7      0.18      0.00
    5   -3    6      1.26      0.00
    5   -3    5     -1.22      0.00
    5   -3    4     -0.23      0.00
    5   -3    3     -1.20      0.00
    5   -3    2     -0.42      0.00
    5   -3    1     -1.33      0.00
   -5    3    0      0.41      0.00
   -5    3    1      8.23      0.00
   -5    3    2      2.73      0.00
   -5    3    3     -1.40      0.00
   -5    3    4      0.77      0.00
   -5    3    5     -0.01      0.00
   -5    3    6     -0.49      0.00
    5   -4   13     -0.23      0.00
    5   -4   12      0.84      0.00
    5   -4   11      0.71      0.00
    5   -4   10      0.22      0.00
    5   -4    9      2.98      0.00
    5   -4    8      3.17      0.00
    5   -4    7      2.29      0.00
    5   -4    6      4.07      0.00
    5   -4    5      3.40      0.00
    5   -4    4      5.44      0.00
    5   -4    3      5.81      0.00
    5   -4    2      7.10      0.00
    5   -4    1      8.09      0.00
   -5    4    0      6.09      0.00
   -5    4    1     10.64      0.00
   -5    4    2      6.67      0.00
   -5    4    3      0.70      0.00
   -5    4    4      4.05      0.00
   -5    4    5      5.94      0.00
   -5    4    6      5.73      0.00
    5   -5   13     -0.64      0.00
    5   -5   12     -0.17      0.00
    5   -5   11      0.00      0.00
    5   -5   10     -1.61      0.00
    5   -5    9     -0.59      0.00
    5   -5    8      0.31      0.00
    5   -5    7     -1.11      0.00
    5   -5    6      0.08      0.00
    5   -5    5     -0.23      0.00
    5   -5    4      0.97      0.00
    5   -5    3      0.89      0.00
    5   -5    2      0.87      0.00
    5   -5    1      3.77      0.00
   -5    5    0      1.92      0.00
   -5    5    1      4.66      0.00
   -5    5    2      4.43      0.00
   -5    5    3     -0.90      0.00
   -5    5    4      1.07      0.00
   -5    5    5      3.16      0.00
    5   -6   11      0.50      0.00
    5   -6   10      0.48      0.00
    5   -6    9      0.33      0.00
    5   -6    8      1.62      0.00
    5   -6    7      0.85      0.00
    5   -6    6      0.91      0.00
    5   -6    5     -0.09      0.00
    5   -6    4      0.47      0.00
    5   -6    3      1.00      0.00
    5   -6    2     -0.36      0.00
    5   -6    1      2.10      0.00
   -5    6    0      0.23      0.00
   -5    6    1     -0.26      0.00
   -5    6    2      1.34      0.00
   -5    6    3     -1.40      0.00
   -5    6    4      0.20      0.00
   -5    6    5      3.06      0.00
   -5    6    6      3.67      0.00
    5   -7   12     -0.25      0.00
    5   -7   11      0.67      0.00
    5   -7   10      0.99      0.00
    5   -7    9     -0.63      0.00
    5   -7    8     -0.56      0.00
    5   -7    7     -0.30      0.00
    5   -7    6      0.26      0.00
    5   -7    5     -0.62      0.00
    5   -7    4     -0.33      0.00
    5   -7    3      1.73      0.00
    5   -7    2      0.63      0.00
    5   -7    1      2.31      0.00
   -5    7    0      1.67      0.00
   -5    7    1     -0.50      0.00
   -5    7    2      0.92      0.00
   -5    7    3     -0.58      0.00
   -5    7    4     -1.07      0.00
   -5    7    5     -0.52      0.00
   -5    7    6     -0.39      0.00
    5   -8   10     -0.12      0.00
    5   -8    9     -0.14      0.00
    5   -8    8      0.11      0.00
    5   -8    7      0.65      0.00
    5   -8    6      1.34      0.00
    5   -8    5      0.13      0.00
    5   -8    4     -1.29      0.00
    5   -8    3      0.49      0.00
    5   -8    2     -0.28      0.00
    5   -8    1     -0.02      0.00
   -5    8    0      0.18      0.00
   -5    8    1     -1.95      0.00
   -5    8    2     -0.32      0.00
   -5    8    3      0.57      0.00
   -5    8    4      0.80      0.00
   -5    8    5      1.09      0.00
   -5    8   10     -0.56      0.00
    5   -9    8      0.87      0.00
    5   -9    7      0.64      0.00
    5   -9    6      1.04      0.00
    5   -9    5      0.88      0.00
    5   -9    4     -0.41      0.00
    5   -9    3      1.28      0.00
    5   -9    2      1.47      0.00
    5   -9    1      0.89      0.00
   -5    9    0      1.30      0.00
   -5    9    1     -0.74      0.00
   -5    9    2     -0.35      0.00
   -5    9    3      0.68      0.00
   -5    9    4      0.33      0.00
   -5    9    5     -0.10      0.00
   -5    9    6     -0.96      0.00
   -5    9    8     -1.52      0.00
   -5    9    9     -1.27      0.00
    5  -10    5      0.31      0.00
    5  -10    4     -0.95      0.00
    5  -10    3     -0.24      0.00
    5  -10    2      0.10      0.00
    5  -10    1     -1.00      0.00
   -5   10    0     -0.16      0.00
   -5   10    1     -0.80      0.00
   -5   10    2     -0.69      0.00
   -5   10    3      0.87      0.00
   -5   10    4      1.09      0.00
   -5   10    5      0.84      0.00
   -5   10    6      0.19      0.00
    5  -11    3      0.01      0.00
    5  -11    2      0.53      0.00
   -5   11    0     -0.11      0.00
   -5   11    1      0.47      0.00
   -5   11    2      0.29      0.00
    4   10    2     -1.18      0.00
    4   10    1     -0.96      0.00
    4   10    0     -0.79      0.00
   -4  -10    1     -0.93      0.00
   -4  -10    2      0.41      0.00
   -4  -10    3      1.70      0.00
    4    9    5     -0.68      0.00
    4    9    4     -1.13      0.00
    4    9    3     -0.29      0.00
    4    9    2      0.77      0.00
    4    9    1      0.46      0.00
    4    9    0      0.05      0.00
   -4   -9    1     -0.73      0.00
   -4   -9    2     -1.08      0.00
   -4   -9    3      0.04      0.00
   -4   -9    4     -0.19      0.00
    4    8    8      0.48      0.00
    4    8    7      0.27      0.00
    4    8    6     -0.04      0.00
    4    8    5     -0.58      0.00
    4    8    4     -0.99      0.00
    4    8    3     -1.00      0.00
    4    8    2     -0.18      0.00
    4    8    1     -0.76      0.00
    4    8    0     -1.47      0.00
   -4   -8    1     -1.00      0.00
   -4   -8    2     -1.20      0.00
   -4   -8    3      0.00      0.00
   -4   -8    4      0.62      0.00
    4    7   10      0.01      0.00
    4    7    9      0.52      0.00
    4    7    8      1.12      0.00
    4    7    7      0.08      0.00
    4    7    6     -0.72      0.00
    4    7    5     -0.46      0.00
    4    7    4      1.01      0.00
    4    7    3      1.57      0.00
    4    7    2      2.11      0.00
    4    7    1      1.80      0.00
    4    7    0      0.09      0.00
   -4   -7    1      0.11      0.00
   -4   -7    2     -1.04      0.00
   -4   -7    3     -1.01      0.00
   -4   -7    4      0.64      0.00
   -4   -7    5      0.70      0.00
    4    6   11     -0.69      0.00
    4    6   10     -0.32      0.00
    4    6    9      0.19      0.00
    4    6    8      0.75      0.00
    4    6    7     -0.94      0.00
    4    6    6     -2.16      0.00
    4    6    5     -2.12      0.00
    4    6    4     -0.33      0.00
    4    6    3     -0.17      0.00
    4    6    2     -1.78      0.00
    4    6    1     -2.37      0.00
    4    6    0     -3.41      0.00
   -4   -6    1     -1.77      0.00
   -4   -6    2     -1.61      0.00
   -4   -6    3     -2.11      0.00
   -4   -6    4      0.16      0.00
   -4   -6    5      0.39      0.00
   -4   -6    6     -0.36      0.00
    4    5   12     -0.54      0.00
    4    5   11     -0.38      0.00
    4    5   10      0.40      0.00
    4    5    9      0.85      0.00
    4    5    8      1.81      0.00
    4    5    7      0.34      0.00
    4    5    6     -0.39      0.00
    4    5    5      0.13      0.00
    4    5    4      2.28      0.00
    4    5    3      3.53      0.00
    4    5    2      1.08      0.00
    4    5    1     -0.18      0.00
    4    5    0     -1.77      0.00
   -4   -5    1     -0.20      0.00
   -4   -5    2      0.78      0.00
   -4   -5    3     -0.84      0.00
   -4   -5    5      3.57      0.00
   -4   -5    6      2.99      0.00
   -4   -5    7      1.75      0.00
    4    4   13     -0.08      0.00
    4    4   12     -0.04      0.00
    4    4   11      0.59      0.00
    4    4   10      1.15      0.00
    4    4    9     -0.39      0.00
    4    4    8     -0.67      0.00
    4    4    7     -2.51      0.00
    4    4    6     -3.31      0.00
    4    4    5     -2.84      0.00
    4    4    4     -2.04      0.00
    4    4    3     -0.69      0.00
    4    4    2     -3.40      0.00
    4    4    1     -4.59      0.00
    4    4    0     -6.17      0.00
   -4   -4    1     -4.54      0.00
   -4   -4    2     -0.71      0.00
   -4   -4    3     -2.64      0.00
   -4   -4    4     -1.47      0.00
   -4   -4    7     -2.54      0.00
    4    3   13     -0.68      0.00
    4    3   12     -0.93      0.00
    4    3   11     -0.10      0.00
    4    3   10      1.49      0.00
    4    3    9     -0.15      0.00
    4    3    8      0.21      0.00
    4    3    7      0.25      0.00
    4    3    6      0.73      0.00
    4    3    5      2.34      0.00
    4    3    4      1.68      0.00
    4    3    3      2.65      0.00
    4    3    2      0.44      0.00
    4    3    1      0.14      0.00
    4    3    0     -0.97      0.00
   -4   -3    1     -1.51      0.00
   -4   -3    2      4.80      0.00
   -4   -3    3      4.57      0.00
   -4   -3    4      4.33      0.00
    4    2   14      0.49      0.00
    4    2   13      0.21      0.00
    4    2   12      0.69      0.00
    4    2   11      0.96      0.00
    4    2   10      1.91      0.00
    4    2    9     -1.55      0.00
    4    2    8     -3.21      0.00
    4    2    7     -3.40      0.00
    4    2    6     -3.17      0.00
    4    2    5      0.18      0.00
    4    2    4     -1.20      0.00
    4    2    3     -2.08      0.00
    4    2    2     -5.01      0.00
    4    2    1     -5.37      0.00
    4    2    0     -4.67      0.00
   -4   -2    1     -8.36      0.00
   -4   -2    2     -2.05      0.00
   -4   -2    3      0.31      0.00
   -4   -2    4     -2.37      0.00
   -4   -2    6     -4.18      0.00
   -4   -2    7     -2.11      0.00
    4    1   14      1.36      0.00
    4    1   13      0.32      0.00
    4    1   12      0.84      0.00
    4    1   11      0.77      0.00
    4    1   10      2.64      0.00
    4    1    9      1.29      0.00
    4    1    8      0.95      0.00
    4    1    7      2.38      0.00
    4    1    6      1.49      0.00
    4    1    5      5.69      0.00
    4    1    4      5.10      0.00
    4    1    3      2.67      0.00
    4    1    2      0.25      0.00
    4    1    1      1.68      0.00
    4    1    0      8.62      0.00
   -4   -1    1      4.50      0.00
   -4   -1    2      6.89      0.00
   -4   -1    3     11.05      0.00
   -4   -1    4      6.20      0.00
   -4   -1    5      4.29      0.00
   -4   -1    6      1.94      0.00
   -4   -1    7      3.29      0.00
    4    0   14      0.62      0.00
    4    0   13      0.04      0.00
    4    0   12      1.14      0.00
    4    0   11      0.60      0.00
    4    0   10      1.48      0.00
    4    0    9      0.56      0.00
    4    0    8     -0.28      0.00
    4    0    7      2.32      0.00
    4    0    6      0.49      0.00
    4    0    5      4.76      0.00
    4    0    4      7.12      0.00
    4    0    3      3.49      0.00
    4    0    2     -1.11      0.00
    4    0    1     -3.12      0.00
   -4    0    1      3.44      0.00
   -4    0    2     -1.01      0.00
   -4    0    3      4.64      0.00
   -4    0    4      2.39      0.00
   -4    0    5      1.44      0.00
   -4    0    6      0.85      0.00
    4   -1   14      0.23      0.00
    4   -1   13     -0.67      0.00
    4   -1   12     -0.44      0.00
    4   -1   11     -1.50      0.00
    4   -1   10     -1.05      0.00
    4   -1    9     -0.12      0.00
    4   -1    8     -0.91      0.00
    4   -1    7      2.08      0.00
    4   -1    6     -1.25      0.00
    4   -1    5     -1.03      0.00
    4   -1    4      2.76      0.00
    4   -1    3      1.07      0.00
    4   -1    2     -0.54      0.00
    4   -1    1     -1.67      0.00
   -4    1    1     15.29      0.00
   -4    1    2      4.62      0.00
   -4    1    3      6.25      0.00
   -4    1    4      5.39      0.00
   -4    1    5      3.42      0.00
   -4    1    6      2.62      0.00
    4   -2   13      0.03      0.00
    4   -2   12      0.48      0.00
    4   -2   11     -0.68      0.00
    4   -2   10     -1.24      0.00
    4   -2    9      0.15      0.00
    4   -2    8     -1.53      0.00
    4   -2    7      1.15      0.00
    4   -2    6     -0.20      0.00
    4   -2    5     -2.03      0.00
    4   -2    4      1.76      0.00
    4   -2    3      0.30      0.00
    4   -2    2     -1.85      0.00
    4   -2    1     -7.51      0.00
   -4    2    0     -0.96      0.00
   -4    2    1      5.81      0.00
   -4    2    2     -6.13      0.00
   -4    2    3     -6.72      0.00
   -4    2    4     -1.21      0.00
   -4    2    5      1.40      0.00
   -4    2    6      2.85      0.00
    4   -3   15      1.19      0.00
    4   -3   14      0.26      0.00
    4   -3   13      0.45      0.00
    4   -3   12      0.54      0.00
    4   -3   11     -0.70      0.00
    4   -3   10     -1.39      0.00
    4   -3    9      1.39      0.00
    4   -3    8      0.16      0.00
    4   -3    7      1.36      0.00
    4   -3    6      1.74      0.00
    4   -3    5     -1.48      0.00
    4   -3    4      0.90      0.00
    4   -3    3      1.07      0.00
    4   -3    2      3.31      0.00
    4   -3    1      1.84      0.00
   -4    3    0      4.76      0.00
   -4    3    1     13.81      0.00
   -4    3    2      3.98      0.00
   -4    3    3     -2.45      0.00
   -4    3    4      1.32      0.00
   -4    3    5      2.56      0.00
   -4    3    6      1.79      0.00
    4   -4   14     -0.31      0.00
    4   -4   13     -0.06      0.00
    4   -4   12      1.39      0.00
    4   -4   11      1.90      0.00
    4   -4   10      1.32      0.00
    4   -4    9      4.03      0.00
    4   -4    8      3.41      0.00
    4   -4    7      3.07      0.00
    4   -4    6      5.52      0.00
    4   -4    5      4.21      0.00
    4   -4    4      6.10      0.00
    4   -4    3      6.10      0.00
    4   -4    2      8.35      0.00
    4   -4    1      8.67      0.00
   -4    4    0      5.81      0.00
   -4    4    1     12.15      0.00
   -4    4    2      8.02      0.00
   -4    4    3      2.40      0.00
   -4    4    4      7.38      0.00
   -4    4    5     10.36      0.00
   -4    4    6      9.44      0.00
    4   -5   14      0.60      0.00
    4   -5   13     -0.87      0.00
    4   -5   12     -0.83      0.00
    4   -5   11     -0.13      0.00
    4   -5   10     -1.70      0.00
    4   -5    9     -0.82      0.00
    4   -5    8     -0.41      0.00
    4   -5    7     -1.22      0.00
    4   -5    6      1.16      0.00
    4   -5    5      0.64      0.00
    4   -5    4      1.81      0.00
    4   -5    3      1.68      0.00
    4   -5    2      3.35      0.00
    4   -5    1      6.92      0.00
   -4    5    0      3.14      0.00
   -4    5    1      5.63      0.00
   -4    5    2      5.14      0.00
   -4    5    3     -0.06      0.00
   -4    5    4      2.35      0.00
   -4    5    5      4.47      0.00
    4   -6   13     -0.91      0.00
    4   -6   12     -0.62      0.00
    4   -6   11      1.96      0.00
    4   -6   10      2.11      0.00
    4   -6    9      1.66      0.00
    4   -6    8      2.28      0.00
    4   -6    7      1.49      0.00
    4   -6    6      2.40      0.00
    4   -6    5      1.32      0.00
    4   -6    4      1.97      0.00
    4   -6    3      2.37      0.00
    4   -6    2      2.00      0.00
    4   -6    1      5.74      0.00
   -4    6    0      2.85      0.00
   -4    6    1      2.45      0.00
   -4    6    2      4.90      0.00
   -4    6    3      3.03      0.00
   -4    6    4      4.54      0.00
   -4    6    5      5.47      0.00
    4   -7   12     -0.37      0.00
    4   -7   11      0.02      0.00
    4   -7   10     -0.10      0.00
    4   -7    9     -1.63      0.00
    4   -7    8     -1.24      0.00
    4   -7    7     -0.65      0.00
    4   -7    6      0.69      0.00
    4   -7    5     -0.01      0.00
    4   -7    4      0.67      0.00
    4   -7    3      2.61      0.00
    4   -7    2      1.17      0.00
    4   -7    1      3.22      0.00
   -4    7    0      1.60      0.00
   -4    7    1     -1.07      0.00
   -4    7    2      0.61      0.00
   -4    7    3     -0.27      0.00
   -4    7    4     -0.06      0.00
   -4    7    5     -0.28      0.00
   -4    7   11      0.39      0.00
    4   -8   11     -0.39      0.00
    4   -8   10      0.65      0.00
    4   -8    9      0.68      0.00
    4   -8    8      1.08      0.00
    4   -8    7      1.21      0.00
    4   -8    6      1.47      0.00
    4   -8    5      0.03      0.00
    4   -8    4     -0.50      0.00
    4   -8    3      2.07      0.00
    4   -8    2      1.04      0.00
    4   -8    1      1.83      0.00
   -4    8    0      2.36      0.00
   -4    8    1      0.60      0.00
   -4    8    2      2.42      0.00
   -4    8    3      3.06      0.00
   -4    8    4      3.33      0.00
   -4    8    5      2.32      0.00
   -4    8    9     -0.53      0.00
   -4    8   10      0.49      0.00
    4   -9    9     -0.05      0.00
    4   -9    8      0.31      0.00
    4   -9    7      0.41      0.00
    4   -9    6      0.80      0.00
    4   -9    5      0.36      0.00
    4   -9    4     -0.22      0.00
    4   -9    3      2.14      0.00
    4   -9    2      1.29      0.00
    4   -9    1      0.17      0.00
   -4    9    0      0.73      0.00
   -4    9    1     -0.94      0.00
   -4    9    2     -0.42      0.00
   -4    9    3      0.15      0.00
   -4    9    4      0.26      0.00
   -4    9    5     -0.16      0.00
   -4    9    7     -0.96      0.00
   -4    9    8     -1.07      0.00
   -4    9    9     -0.49      0.00
    4  -10    6      0.35      0.00
    4  -10    5     -0.13      0.00
    4  -10    4     -0.95      0.00
    4  -10    3      0.94      0.00
    4  -10    2      1.05      0.00
    4  -10    1     -0.25      0.00
   -4   10    0      1.03      0.00
   -4   10    1      0.79      0.00
   -4   10    2      1.07      0.00
   -4   10    3      1.89      0.00
   -4   10    4      1.92      0.00
   -4   10    5      1.68      0.00
   -4   10    7      0.01      0.00
    4  -11    4     -1.32      0.00
    4  -11    3     -0.47      0.00
    4  -11    1     -1.52      0.00
   -4   11    0     -0.53      0.00
   -4   11    1      0.29      0.00
   -4   11    2      0.46      0.00
   -4   11    3      1.13      0.00
    3   11    1      0.06      0.00
    3   11    0     -0.36      0.00
   -3  -11    1     -0.33      0.00
    3   10    5     -0.37      0.00
    3   10    4     -0.66      0.00
    3   10    3     -0.16      0.00
    3   10    1      0.62      0.00
    3   10    0      0.69      0.00
   -3  -10    1      0.53      0.00
   -3  -10    2      1.32      0.00
   -3  -10    3      1.94      0.00
   -3  -10    4      0.84      0.00
   -3  -10    5      0.00      0.00
    3    9    7      0.32      0.00
    3    9    6      0.09      0.00
    3    9    5     -0.52      0.00
    3    9    4     -0.27      0.00
    3    9    3      0.68      0.00
    3    9    2      1.50      0.00
    3    9    1      0.53      0.00
    3    9    0     -0.42      0.00
   -3   -9    1     -1.05      0.00
   -3   -9    2     -1.29      0.00
   -3   -9    3     -0.10      0.00
   -3   -9    4     -0.19      0.00
   -3   -9    5     -0.48      0.00
    3    8    8      1.39      0.00
    3    8    7      0.82      0.00
    3    8    6      0.47      0.00
    3    8    5      0.16      0.00
    3    8    4      0.73      0.00
    3    8    3      1.10      0.00
    3    8    1      1.35      0.00
    3    8    0      0.45      0.00
   -3   -8    1      0.63      0.00
   -3   -8    2     -0.23      0.00
   -3   -8    3      0.63      0.00
   -3   -8    4      0.93      0.00
   -3   -8    5      0.00      0.00
    3    7   10     -0.34      0.00
    3    7    9      0.80      0.00
    3    7    8      1.19      0.00
    3    7    7     -0.26      0.00
    3    7    6     -0.45      0.00
    3    7    5      0.25      0.00
    3    7    4      2.29      0.00
    3    7    3      2.35      0.00
    3    7    2      1.55      0.00
    3    7    1      0.40      0.00
    3    7    0     -1.64      0.00
   -3   -7    1     -1.69      0.00
   -3   -7    2     -3.10      0.00
   -3   -7    3     -2.27      0.00
   -3   -7    4      0.07      0.00
   -3   -7    5     -0.26      0.00
   -3   -7    6     -0.48      0.00
    3    6   12     -0.78      0.00
    3    6   11     -0.26      0.00
    3    6   10      0.09      0.00
    3    6    9      0.89      0.00
    3    6    8      1.27      0.00
    3    6    7     -0.92      0.00
    3    6    6     -1.15      0.00
    3    6    5     -0.37      0.00
    3    6    4      2.11      0.00
    3    6    3      2.33      0.00
    3    6    2      0.05      0.00
    3    6    1     -0.74      0.00
    3    6    0     -1.89      0.00
   -3   -6    1     -0.39      0.00
   -3   -6    2     -1.32      0.00
   -3   -6    3     -1.89      0.00
   -3   -6    4      1.12      0.00
   -3   -6    5      0.97      0.00
   -3   -6    6      0.48      0.00
    3    5   13     -0.56      0.00
    3    5   12     -0.78      0.00
    3    5   11      0.56      0.00
    3    5   10      1.46      0.00
    3    5    9      1.91      0.00
    3    5    8      2.97      0.00
    3    5    7      0.90      0.00
    3    5    6      0.71      0.00
    3    5    5      1.05      0.00
    3    5    4      2.64      0.00
    3    5    3      3.20      0.00
    3    5    2     -0.58      0.00
    3    5    1     -2.56      0.00
    3    5    0     -4.67      0.00
   -3   -5    1     -2.54      0.00
   -3   -5    2     -1.59      0.00
   -3   -5    3     -3.22      0.00
   -3   -5    4      0.28      0.00
   -3   -5    5      0.95      0.00
   -3   -5    6     -0.38      0.00
   -3   -5    7     -1.69      0.00
    3    4   13     -0.10      0.00
    3    4   12     -0.11      0.00
    3    4   11      1.21      0.00
    3    4   10      1.14      0.00
    3    4    9     -1.27      0.00
    3    4    8     -0.93      0.00
    3    4    7     -2.34      0.00
    3    4    6     -1.64      0.00
    3    4    5     -0.97      0.00
    3    4    4     -1.00      0.00
    3    4    3      0.01      0.00
    3    4    2     -3.68      0.00
    3    4    1     -5.54      0.00
    3    4    0     -8.32      0.00
   -3   -4    1     -6.23      0.00
   -3   -4    2     -1.80      0.00
   -3   -4    3     -4.36      0.00
   -3   -4    6     -1.41      0.00
   -3   -4    7     -0.43      0.00
    3    3   14     -0.70      0.00
    3    3   13     -1.01      0.00
    3    3   12     -0.78      0.00
    3    3   11      1.43      0.00
    3    3   10      3.16      0.00
    3    3    9      0.40      0.00
    3    3    8      0.79      0.00
    3    3    7      0.07      0.00
    3    3    6      1.09      0.00
    3    3    5      2.36      0.00
    3    3    4     -0.38      0.00
    3    3    3     -0.20      0.00
    3    3    2     -3.01      0.00
    3    3    1     -3.08      0.00
    3    3    0     -5.45      0.00
   -3   -3    1     -5.91      0.00
   -3   -3    2      1.97      0.00
   -3   -3    3      0.29      0.00
   -3   -3    4     -1.09      0.00
   -3   -3    7     -0.67      0.00
    3    2   15      1.08      0.00
    3    2   14      0.75      0.00
    3    2   13      0.65      0.00
    3    2   12      0.26      0.00
    3    2   11      0.06      0.00
    3    2   10      0.66      0.00
    3    2    9     -3.67      0.00
    3    2    8     -4.37      0.00
    3    2    7     -4.85      0.00
    3    2    6     -3.85      0.00
    3    2    5      0.07      0.00
    3    2    4     -4.67      0.00
    3    2    3     -8.91      0.00
    3    2    2    -14.08      0.00
    3    2    1    -13.09      0.00
    3    2    0    -12.21      0.00
   -3   -2    1    -16.61      0.00
   -3   -2    2     -7.33      0.00
   -3   -2    3     -4.77      0.00
    3    1   14      1.44      0.00
    3    1   13      1.49      0.00
    3    1   12      2.03      0.00
    3    1   11      1.77      0.00
    3    1   10      4.23      0.00
    3    1    9      2.39      0.00
    3    1    8      2.51      0.00
    3    1    7      2.40      0.00
    3    1    6      0.74      0.00
    3    1    5      7.09      0.00
    3    1    4      5.39      0.00
    3    1    3      0.47      0.00
    3    1    2     -4.20      0.00
    3    1    1     -0.01      0.00
    3    1    0      9.05      0.00
   -3   -1    1      0.16      0.00
   -3   -1    2      1.22      0.00
   -3   -1    3      4.89      0.00
   -3   -1    4     -1.81      0.00
   -3   -1    5     -3.60      0.00
   -3   -1    6     -4.72      0.00
    3    0   15     -0.04      0.00
    3    0   14      0.68      0.00
    3    0   13      0.60      0.00
    3    0   12      0.82      0.00
    3    0   11     -1.40      0.00
    3    0   10     -0.19      0.00
    3    0    9     -1.01      0.00
    3    0    8     -0.80      0.00
    3    0    7      0.88      0.00
    3    0    6     -3.48      0.00
    3    0    5      1.28      0.00
    3    0    4      1.31      0.00
    3    0    3     -6.91      0.00
    3    0    2    -16.23      0.00
    3    0    1    -16.27      0.00
   -3    0    1     -5.32      0.00
   -3    0    2    -11.89      0.00
   -3    0    3     -3.16      0.00
   -3    0    4     -3.69      0.00
   -3    0    5     -3.55      0.00
   -3    0    6     -3.54      0.00
    3   -1   15     -0.56      0.00
    3   -1   14      0.01      0.00
    3   -1   13     -0.09      0.00
    3   -1   12      0.47      0.00
    3   -1   11     -1.45      0.00
    3   -1   10     -0.24      0.00
    3   -1    9      0.74      0.00
    3   -1    8      0.03      0.00
    3   -1    7      2.63      0.00
    3   -1    6     -2.92      0.00
    3   -1    5     -1.15      0.00
    3   -1    4      3.82      0.00
    3   -1    3      1.55      0.00
    3   -1    2     -2.63      0.00
    3   -1    1     -4.91      0.00
   -3    1    0     13.07      0.00
   -3    1    1     12.51      0.00
   -3    1    2     -6.44      0.00
   -3    1    3     -4.56      0.00
   -3    1    4     -2.16      0.00
   -3    1    5     -1.70      0.00
   -3    1    6     -1.89      0.00
    3   -2   14     -0.50      0.00
    3   -2   13     -0.31      0.00
    3   -2   12      0.11      0.00
    3   -2   11     -2.12      0.00
    3   -2   10     -2.72      0.00
    3   -2    9     -1.67      0.00
    3   -2    8     -4.20      0.00
    3   -2    7     -1.80      0.00
    3   -2    6     -6.31      0.00
    3   -2    5    -10.39      0.00
    3   -2    4     -8.87      0.00
    3   -2    3    -12.84      0.00
    3   -2    2    -17.02      0.00
    3   -2    1    -25.18      0.00
   -3    2    0    -14.31      0.00
   -3    2    1     -5.47      0.00
   -3    2    2    -21.11      0.00
   -3    2    3    -19.86      0.00
   -3    2    4     -9.17      0.00
   -3    2    5     -3.20      0.00
   -3    2    6     -2.42      0.00
    3   -3   15      1.24      0.00
    3   -3   14     -0.09      0.00
    3   -3   13     -0.33      0.00
    3   -3   12      0.45      0.00
    3   -3   11     -0.22      0.00
    3   -3   10     -0.42      0.00
    3   -3    9      2.29      0.00
    3   -3    8      0.16      0.00
    3   -3    7      2.16      0.00
    3   -3    6      1.97      0.00
    3   -3    5     -1.87      0.00
    3   -3    4      0.49      0.00
    3   -3    3      0.84      0.00
    3   -3    2      4.17      0.00
   -3    3    0      0.71      0.00
   -3    3    1      9.31      0.00
   -3    3    2     -4.38      0.00
   -3    3    3    -11.30      0.00
   -3    3    4     -4.38      0.00
   -3    3    5      0.69      0.00
   -3    3    6      0.94      0.00
    3   -4   15      1.62      0.00
    3   -4   14      0.52      0.00
    3   -4   13      0.31      0.00
    3   -4   12      1.72      0.00
    3   -4   11      2.25      0.00
    3   -4   10      0.83      0.00
    3   -4    9      2.20      0.00
    3   -4    8     -0.33      0.00
    3   -4    7     -0.79      0.00
    3   -4    6      0.91      0.00
    3   -4    5     -2.48      0.00
    3   -4    4     -2.45      0.00
    3   -4    3     -3.62      0.00
    3   -4    2      0.37      0.00
   -3    4    0     -4.31      0.00
   -3    4    1      3.77      0.00
   -3    4    2      0.68      0.00
   -3    4    3     -3.39      0.00
   -3    4    4      2.71      0.00
   -3    4    5      6.79      0.00
    3   -5   14      0.01      0.00
    3   -5   13     -1.75      0.00
    3   -5   12     -1.78      0.00
    3   -5   11     -0.56      0.00
    3   -5   10     -1.84      0.00
    3   -5    9     -0.73      0.00
    3   -5    8     -0.63      0.00
    3   -5    7     -0.86      0.00
    3   -5    6      1.90      0.00
    3   -5    5      0.47      0.00
    3   -5    4      0.64      0.00
    3   -5    3     -0.54      0.00
    3   -5    2      2.27      0.00
   -3    5    0     -1.55      0.00
   -3    5    1      0.42      0.00
   -3    5    2      0.77      0.00
   -3    5    3     -2.30      0.00
    3   -6   14      0.48      0.00
    3   -6   13      0.51      0.00
    3   -6   12      0.80      0.00
    3   -6   11      2.71      0.00
    3   -6   10      1.71      0.00
    3   -6    9      0.54      0.00
    3   -6    8      0.25      0.00
    3   -6    7     -1.13      0.00
    3   -6    6     -0.34      0.00
    3   -6    5     -1.73      0.00
    3   -6    4     -1.01      0.00
    3   -6    3     -1.17      0.00
    3   -6    2     -0.69      0.00
    3   -6    1      3.83      0.00
   -3    6    0     -0.29      0.00
   -3    6    1     -0.74      0.00
   -3    6    2      2.30      0.00
   -3    6    3      1.67      0.00
   -3    6    4      3.00      0.00
   -3    6    5      2.35      0.00
    3   -7   13      0.12      0.00
    3   -7   12     -1.03      0.00
    3   -7   11     -1.07      0.00
    3   -7   10     -1.56      0.00
    3   -7    9     -2.33      0.00
    3   -7    8     -1.00      0.00
    3   -7    7     -0.44      0.00
    3   -7    6      0.41      0.00
    3   -7    5     -0.79      0.00
    3   -7    4      0.00      0.00
    3   -7    3      0.72      0.00
    3   -7    2     -1.80      0.00
    3   -7    1      0.33      0.00
   -3    7    0     -1.77      0.00
   -3    7    1     -4.06      0.00
   -3    7    2     -1.73      0.00
   -3    7    3     -1.11      0.00
   -3    7    4      0.36      0.00
   -3    7    5     -0.24      0.00
   -3    7   11     -0.10      0.00
    3   -8   12      0.66      0.00
    3   -8   11      0.68      0.00
    3   -8   10      0.87      0.00
    3   -8    9      0.28      0.00
    3   -8    8      0.66      0.00
    3   -8    7      0.36      0.00
    3   -8    6     -0.14      0.00
    3   -8    5     -1.60      0.00
    3   -8    4     -0.64      0.00
    3   -8    3      2.14      0.00
    3   -8    2      0.07      0.00
    3   -8    1      0.94      0.00
   -3    8    0      1.65      0.00
   -3    8    1      0.21      0.00
   -3    8    2      1.54      0.00
   -3    8    3      1.86      0.00
   -3    8    4      2.61      0.00
   -3    8    5      1.09      0.00
   -3    8    9      0.40      0.00
   -3    8   10      0.81      0.00
    3   -9   10     -0.57      0.00
    3   -9    9     -0.74      0.00
    3   -9    8     -0.08      0.00
    3   -9    7      0.41      0.00
    3   -9    6      0.33      0.00
    3   -9    5     -0.85      0.00
    3   -9    4     -0.81      0.00
    3   -9    3      1.53      0.00
    3   -9    2     -0.74      0.00
    3   -9    1     -2.05      0.00
   -3    9    0     -0.91      0.00
   -3    9    1     -1.71      0.00
   -3    9    2     -1.11      0.00
   -3    9    3     -0.89      0.00
   -3    9    4      0.11      0.00
   -3    9    5     -0.06      0.00
   -3    9    6     -1.21      0.00
   -3    9    7     -0.47      0.00
   -3    9    8     -0.60      0.00
   -3    9    9      0.03      0.00
    3  -10    7      0.35      0.00
    3  -10    6      0.27      0.00
    3  -10    5     -0.50      0.00
    3  -10    4     -0.74      0.00
    3  -10    3      1.76      0.00
    3  -10    2      1.13      0.00
    3  -10    1     -0.37      0.00
   -3   10    0      1.00      0.00
   -3   10    1      0.95      0.00
   -3   10    2      1.24      0.00
   -3   10    3      1.39      0.00
   -3   10    4      1.76      0.00
   -3   10    6      0.71      0.00
   -3   10    7      0.53      0.00
    3  -11    6     -0.63      0.00
    3  -11    3     -0.95      0.00
    3  -11    2     -0.68      0.00
    3  -11    1     -1.94      0.00
   -3   11    0     -0.76      0.00
   -3   11    1     -0.09      0.00
   -3   11    2      0.20      0.00
   -3   11    3      0.46      0.00
   -3   11    4      0.32      0.00
    2   11    1      0.09      0.00
    2   11    0      0.06      0.00
   -2  -11    1      0.23      0.00
   -2  -11    2      1.08      0.00
   -2  -11    3      1.38      0.00
    2   10    5     -1.05      0.00
    2   10    4     -0.86      0.00
    2   10    3     -0.03      0.00
    2   10    2      0.93      0.00
    2   10    1      0.89      0.00
    2   10    0      0.94      0.00
   -2  -10    1      0.71      0.00
   -2  -10    2      0.72      0.00
   -2  -10    3      0.83      0.00
   -2  -10    4     -0.16      0.00
   -2  -10    5     -0.38      0.00
   -2  -10    6     -0.09      0.00
    2    9    8     -0.02      0.00
    2    9    7     -0.13      0.00
    2    9    6     -0.59      0.00
    2    9    5     -0.84      0.00
    2    9    4     -0.06      0.00
    2    9    3      0.53      0.00
    2    9    2      1.18      0.00
    2    9    1      0.14      0.00
    2    9    0     -0.61      0.00
   -2   -9    1     -0.86      0.00
   -2   -9    2     -1.19      0.00
   -2   -9    3     -0.03      0.00
   -2   -9    4     -0.22      0.00
   -2   -9    5     -0.40      0.00
   -2   -9    7      0.25      0.00
    2    8   10      0.56      0.00
    2    8    9      1.74      0.00
    2    8    8      1.30      0.00
    2    8    7      0.34      0.00
    2    8    6      0.07      0.00
    2    8    5      0.13      0.00
    2    8    4      1.70      0.00
    2    8    3      2.03      0.00
    2    8    1      2.33      0.00
    2    8    0      1.39      0.00
   -2   -8    5     -0.12      0.00
    2    7   11     -1.14      0.00
    2    7   10     -0.88      0.00
    2    7    9      0.53      0.00
    2    7    8      0.05      0.00
    2    7    7     -1.68      0.00
    2    7    6     -1.25      0.00
    2    7    5     -0.51      0.00
    2    7    4      1.90      0.00
    2    7    3      1.49      0.00
    2    7    2      0.21      0.00
    2    7    1     -0.64      0.00
   -2   -7    2     -3.43      0.00
   -2   -7    3     -2.21      0.00
   -2   -7    4     -0.10      0.00
    2    6   12     -0.36      0.00
    2    6   11      0.36      0.00
    2    6   10      0.09      0.00
    2    6    9      0.98      0.00
    2    6    8      1.11      0.00
    2    6    7     -0.85      0.00
    2    6    6      0.28      0.00
    2    6    5      1.39      0.00
    2    6    4      4.46      0.00
    2    6    3      4.71      0.00
    2    6    2      2.19      0.00
    2    6    1      1.41      0.00
   -2   -6    1      1.88      0.00
   -2   -6    2      0.15      0.00
   -2   -6    3     -0.42      0.00
   -2   -6    4      2.88      0.00
   -2   -6    5      2.08      0.00
   -2   -6    6      1.54      0.00
    2    5   13     -1.49      0.00
    2    5   12     -1.10      0.00
    2    5   11      1.06      0.00
    2    5   10      1.00      0.00
    2    5    9      0.69      0.00
    2    5    8      1.21      0.00
    2    5    7     -1.12      0.00
    2    5    6     -0.36      0.00
    2    5    5     -0.41      0.00
    2    5    4      1.38      0.00
    2    5    3      2.29      0.00
    2    5    2     -1.37      0.00
    2    5    1     -3.06      0.00
   -2   -5    1     -2.21      0.00
   -2   -5    2     -1.61      0.00
   -2   -5    3     -4.47      0.00
   -2   -5    4     -2.07      0.00
   -2   -5    5     -3.05      0.00
   -2   -5    6     -4.73      0.00
   -2   -5    7     -5.94      0.00
    2    4   14      0.00      0.00
    2    4   13     -0.29      0.00
    2    4   12     -0.49      0.00
    2    4   11      1.39      0.00
    2    4   10      0.78      0.00
    2    4    9     -1.50      0.00
    2    4    8     -0.17      0.00
    2    4    7     -0.64      0.00
    2    4    6      2.16      0.00
    2    4    5      2.49      0.00
    2    4    4      1.74      0.00
    2    4    3      2.80      0.00
    2    4    2     -0.69      0.00
    2    4    1     -1.91      0.00
    2    4    0     -5.29      0.00
   -2   -4    1     -1.50      0.00
   -2   -4    2      4.00      0.00
   -2   -4    4      1.43      0.00
   -2   -4    5      2.19      0.00
   -2   -4    6      3.02      0.00
   -2   -4    7      3.77      0.00
    2    3   15     -1.05      0.00
    2    3   14     -1.81      0.00
    2    3   13     -1.68      0.00
    2    3   12     -1.49      0.00
    2    3   11      0.98      0.00
    2    3   10      1.72      0.00
    2    3    9     -1.90      0.00
    2    3    8     -1.83      0.00
    2    3    7     -3.44      0.00
    2    3    6     -0.54      0.00
    2    3    5      1.29      0.00
    2    3    4     -2.52      0.00
    2    3    3     -2.86      0.00
    2    3    2     -5.42      0.00
    2    3    1     -3.76      0.00
    2    3    0     -7.87      0.00
   -2   -3    1     -8.61      0.00
   -2   -3    2      0.14      0.00
   -2   -3    3     -4.38      0.00
   -2   -3    6     -7.54      0.00
    2    2   15      0.81      0.00
    2    2   14      0.49      0.00
    2    2   13      0.37      0.00
    2    2   12     -0.94      0.00
    2    2   11     -1.16      0.00
    2    2   10     -0.22      0.00
    2    2    9     -3.51      0.00
    2    2    8     -2.64      0.00
    2    2    7     -4.26      0.00
    2    2    6     -2.36      0.00
    2    2    5      2.12      0.00
    2    2    4     -5.04      0.00
    2    2    3    -11.73      0.00
    2    2    2    -16.77      0.00
    2    2    1     -9.31      0.00
    2    2    0     -6.15      0.00
   -2   -2    1    -11.30      0.00
   -2   -2    2      0.48      0.00
   -2   -2    4     -3.60      0.00
    2    1   15      0.54      0.00
    2    1   14      1.02      0.00
    2    1   13      1.70      0.00
    2    1   12      1.40      0.00
    2    1   11      0.54      0.00
    2    1   10      2.91      0.00
    2    1    9      0.97      0.00
    2    1    8      2.16      0.00
    2    1    7      0.52      0.00
    2    1    6     -0.57      0.00
    2    1    5      8.44      0.00
    2    1    4      6.30      0.00
    2    1    3     -1.31      0.00
    2    1    2     -9.26      0.00
    2    1    1     -0.19      0.00
    2    1    0     10.85      0.00
   -2   -1    1     -5.50      0.00
   -2   -1    2     -6.58      0.00
   -2   -1    3     -3.14      0.00
   -2   -1    4    -10.52      0.00
   -2   -1    6    -11.38      0.00
    2    0   15     -0.63      0.00
    2    0   14      0.29      0.00
    2    0   13      0.55      0.00
    2    0   12     -0.08      0.00
    2    0   11     -2.83      0.00
    2    0   10     -0.64      0.00
    2    0    9     -1.02      0.00
    2    0    8      0.54      0.00
    2    0    7      0.62      0.00
    2    0    6     -5.79      0.00
    2    0    5     -0.60      0.00
    2    0    4     -1.51      0.00
    2    0    3    -10.21      0.00
    2    0    2    -20.80      0.00
    2    0    1    -13.59      0.00
   -2    0    2     -8.32      0.00
   -2    0    3      1.43      0.00
   -2    0    4      0.53      0.00
   -2    0    5     -1.01      0.00
   -2    0    6     -3.53      0.00
    2   -1   16     -0.49      0.00
    2   -1   15     -1.38      0.00
    2   -1   14     -0.76      0.00
    2   -1   13     -0.40      0.00
    2   -1   12      0.15      0.00
    2   -1   11     -2.23      0.00
    2   -1   10     -0.50      0.00
    2   -1    9     -0.06      0.00
    2   -1    8     -0.03      0.00
    2   -1    7      2.87      0.00
    2   -1    6     -3.35      0.00
    2   -1    5     -0.19      0.00
    2   -1    4      4.34      0.00
    2   -1    3      2.01      0.00
    2   -1    2     -5.59      0.00
    2   -1    1     -9.85      0.00
   -2    1    0     11.97      0.00
   -2    1    1      5.36      0.00
   -2    1    2    -20.89      0.00
   -2    1    3    -16.71      0.00
   -2    1    4     -9.48      0.00
   -2    1    5     -5.95      0.00
    2   -2   15     -0.95      0.00
    2   -2   14     -1.35      0.00
    2   -2   13     -1.60      0.00
    2   -2   12     -1.12      0.00
    2   -2   11     -3.65      0.00
    2   -2   10     -4.14      0.00
    2   -2    9     -4.26      0.00
    2   -2    8     -7.39      0.00
    2   -2    7     -5.12      0.00
    2   -2    6    -11.99      0.00
    2   -2    5    -17.40      0.00
    2   -2    4    -17.81      0.00
    2   -2    3    -20.62      0.00
    2   -2    2    -22.93      0.00
   -2    2    1     -7.13      0.00
   -2    2    2    -27.14      0.00
   -2    2    3    -25.49      0.00
   -2    2    4    -12.62      0.00
   -2    2    5     -5.52      0.00
    2   -3   16      1.48      0.00
    2   -3   15      0.41      0.00
    2   -3   14     -1.01      0.00
    2   -3   13     -1.33      0.00
    2   -3   12      0.46      0.00
    2   -3   11      0.73      0.00
    2   -3   10      1.07      0.00
    2   -3    9      3.05      0.00
    2   -3    8      0.45      0.00
    2   -3    7      3.83      0.00
    2   -3    6      3.20      0.00
    2   -3    5     -1.24      0.00
    2   -3    4     -0.46      0.00
    2   -3    3     -0.54      0.00
    2   -3    2      3.43      0.00
   -2    3    0     -7.33      0.00
   -2    3    1      0.49      0.00
   -2    3    2    -14.44      0.00
   -2    3    3    -19.33      0.00
   -2    3    4     -9.46      0.00
    2   -4   15      1.61      0.00
    2   -4   14      0.42      0.00
    2   -4   13     -0.41      0.00
    2   -4   12      0.54      0.00
    2   -4   11      0.44      0.00
    2   -4   10     -1.88      0.00
    2   -4    9     -1.83      0.00
    2   -4    8     -5.69      0.00
    2   -4    7     -5.67      0.00
    2   -4    6     -4.58      0.00
    2   -4    5     -9.16      0.00
    2   -4    3    -11.44      0.00
    2   -4    2     -4.80      0.00
   -2    4    0    -12.33      0.00
   -2    4    1     -3.85      0.00
   -2    4    2     -6.26      0.00
   -2    4    3     -8.97      0.00
    2   -5   15      0.24      0.00
    2   -5   14     -0.91      0.00
    2   -5   13     -2.14      0.00
    2   -5   12     -1.51      0.00
    2   -5   11      0.23      0.00
    2   -5   10     -0.45      0.00
    2   -5    9      1.40      0.00
    2   -5    8      1.20      0.00
    2   -5    7      0.92      0.00
    2   -5    6      2.99      0.00
    2   -5    5      0.39      0.00
    2   -5    1      2.18      0.00
   -2    5    0     -6.76      0.00
   -2    5    1     -4.66      0.00
    2   -6   13      0.80      0.00
    2   -6   12      0.47      0.00
    2   -6   11      0.84      0.00
    2   -6   10     -1.47      0.00
    2   -6    9     -2.46      0.00
    2   -6    8     -2.79      0.00
    2   -6    7     -4.44      0.00
    2   -6    6     -3.80      0.00
    2   -6    5     -4.79      0.00
    2   -6    4     -3.59      0.00
    2   -6    3     -4.60      0.00
    2   -6    2     -3.84      0.00
    2   -6    1      0.34      0.00
   -2    6    0     -5.01      0.00
   -2    6    1     -5.69      0.00
   -2    6    2     -2.82      0.00
   -2    6    3     -2.23      0.00
   -2    6    4     -0.94      0.00
   -2    6    5     -2.17      0.00
   -2    6   11      1.22      0.00
    2   -7   14     -0.66      0.00
    2   -7   13     -0.37      0.00
    2   -7   12     -1.15      0.00
    2   -7   11     -1.00      0.00
    2   -7   10     -1.41      0.00
    2   -7    9     -0.96      0.00
    2   -7    8      1.12      0.00
    2   -7    7      0.80      0.00
    2   -7    6      0.13      0.00
    2   -7    5     -1.63      0.00
    2   -7    4     -0.65      0.00
    2   -7    3     -1.34      0.00
    2   -7    2     -4.51      0.00
    2   -7    1     -1.88      0.00
   -2    7    0     -3.52      0.00
   -2    7    1     -4.75      0.00
   -2    7    2     -2.19      0.00
   -2    7    3     -0.51      0.00
   -2    7    4      1.59      0.00
   -2    7    5      0.34      0.00
   -2    7   10     -0.60      0.00
   -2    7   11      0.20      0.00
    2   -8   12      0.82      0.00
    2   -8   11      0.50      0.00
    2   -8   10     -0.25      0.00
    2   -8    9     -1.21      0.00
    2   -8    8     -0.35      0.00
    2   -8    7     -0.62      0.00
    2   -8    6     -1.54      0.00
    2   -8    5     -2.60      0.00
    2   -8    4     -0.48      0.00
    2   -8    3      1.34      0.00
    2   -8    2     -2.18      0.00
    2   -8    1     -1.43      0.00
   -2    8    0     -0.70      0.00
   -2    8    1     -1.80      0.00
   -2    8    2     -1.17      0.00
   -2    8    3     -0.95      0.00
   -2    8    4      0.60      0.00
   -2    8    5     -0.78      0.00
   -2    8    7     -0.46      0.00
   -2    8    8     -1.13      0.00
   -2    8    9      0.29      0.00
   -2    8   10     -0.05      0.00
    2   -9   11     -0.30      0.00
    2   -9   10     -0.22      0.00
    2   -9    9     -0.66      0.00
    2   -9    8      0.16      0.00
    2   -9    7      0.74      0.00
    2   -9    6     -0.03      0.00
    2   -9    5     -1.75      0.00
    2   -9    4     -1.19      0.00
    2   -9    3      0.73      0.00
    2   -9    2     -2.23      0.00
    2   -9    1     -2.83      0.00
   -2    9    0     -0.99      0.00
   -2    9    1     -1.03      0.00
   -2    9    2     -0.66      0.00
   -2    9    3     -0.92      0.00
   -2    9    4      0.62      0.00
   -2    9    5      0.45      0.00
   -2    9    6     -0.61      0.00
   -2    9    7      0.16      0.00
   -2    9    8     -0.09      0.00
   -2    9    9      0.70      0.00
    2  -10    8     -0.04      0.00
    2  -10    7      0.36      0.00
    2  -10    6      0.56      0.00
    2  -10    5     -0.40      0.00
    2  -10    4     -0.43      0.00
    2  -10    3      1.63      0.00
    2  -10    1     -1.09      0.00
   -2   10    0      0.24      0.00
   -2   10    1      0.30      0.00
   -2   10    2      0.70      0.00
   -2   10    3      0.48      0.00
   -2   10    5      1.66      0.00
   -2   10    6      0.28      0.00
   -2   10    7      0.17      0.00
    2  -11    7     -0.82      0.00
    2  -11    6     -0.49      0.00
    2  -11    4     -2.04      0.00
    2  -11    3     -0.70      0.00
    2  -11    2     -0.43      0.00
    2  -11    1     -1.09      0.00
   -2   11    0      0.01      0.00
   -2   11    1      0.17      0.00
   -2   11    2      0.36      0.00
   -2   11    3      0.23      0.00
   -2   11    5      0.42      0.00
    1   11    3     -0.16      0.00
    1   11    2      0.26      0.00
    1   11    0      0.83      0.00
   -1  -11    1      0.94      0.00
   -1  -11    2      1.05      0.00
   -1  -11    3      0.76      0.00
   -1  -11    4     -0.21      0.00
    1   10    5     -2.07      0.00
    1   10    4     -1.54      0.00
    1   10    3     -0.74      0.00
    1   10    2      0.43      0.00
    1   10    1      0.35      0.00
    1   10    0      0.57      0.00
   -1  -10    1      0.18      0.00
   -1  -10    2     -0.35      0.00
   -1  -10    3     -0.28      0.00
   -1  -10    4     -1.11      0.00
   -1  -10    5     -0.98      0.00
   -1  -10    6     -0.44      0.00
    1    9    8     -0.02      0.00
    1    9    7     -0.30      0.00
    1    9    6     -0.99      0.00
    1    9    5     -0.89      0.00
    1    9    4      0.03      0.00
    1    9    3     -0.08      0.00
   -1   -9    6      0.23      0.00
   -1   -9    7      0.36      0.00
    1    8   10      0.35      0.00
    1    8    9      1.25      0.00
    1    8    8     -0.22      0.00
    1    8    7     -1.10      0.00
    1    8    6     -1.16      0.00
    1    8    5     -0.79      0.00
    1    8    4      1.29      0.00
    1    8    3      1.06      0.00
    1    8    2      1.64      0.00
    1    8    1      1.65      0.00
   -1   -8    4      1.00      0.00
   -1   -8    5     -0.32      0.00
   -1   -8    6     -0.03      0.00
   -1   -8    7      0.06      0.00
    1    7   12     -1.36      0.00
    1    7   11     -0.79      0.00
    1    7   10     -0.93      0.00
    1    7    9      0.23      0.00
    1    7    8     -1.22      0.00
    1    7    7     -2.66      0.00
    1    7    6     -1.69      0.00
    1    7    5     -1.10      0.00
    1    7    4      1.77      0.00
    1    7    3      1.30      0.00
   -1   -7    6     -2.12      0.00
    1    6   12     -0.38      0.00
    1    6   11      0.52      0.00
    1    6   10     -0.49      0.00
    1    6    9      0.43      0.00
    1    6    8      0.47      0.00
    1    6    7     -0.65      0.00
    1    6    6      1.31      0.00
    1    6    5      1.83      0.00
    1    6    4      5.03      0.00
    1    6    2      2.93      0.00
    1    6    1      2.34      0.00
   -1   -6    1      4.80      0.00
   -1   -6    2      2.84      0.00
   -1   -6    3      2.33      0.00
   -1   -6    4      5.31      0.00
    1    5   14     -1.54      0.00
    1    5   13     -1.41      0.00
    1    5   12     -0.68      0.00
    1    5   11      1.45      0.00
    1    5   10     -0.12      0.00
    1    5    9     -1.30      0.00
    1    5    8     -1.25      0.00
    1    5    7     -2.65      0.00
    1    5    6     -0.27      0.00
    1    5    5     -0.39      0.00
    1    5    4      2.15      0.00
    1    5    3      3.73      0.00
    1    5    2      1.13      0.00
    1    5    1     -0.16      0.00
   -1   -5    1      2.48      0.00
   -1   -5    2      2.56      0.00
   -1   -5    3     -1.95      0.00
   -1   -5    4     -0.79      0.00
   -1   -5    5     -2.50      0.00
    1    4   14     -0.41      0.00
    1    4   13     -0.74      0.00
    1    4   12     -0.94      0.00
    1    4   11      1.38      0.00
    1    4   10      0.86      0.00
    1    4    9     -0.49      0.00
    1    4    8      1.20      0.00
    1    4    7      1.45      0.00
    1    4    6      6.10      0.00
    1    4    5      5.88      0.00
    1    4    4      4.81      0.00
    1    4    3      6.17      0.00
    1    4    2      4.89      0.00
    1    4    1      6.05      0.00
   -1   -4    1      9.33      0.00
   -1   -4    2     15.42      0.00
   -1   -4    3      9.21      0.00
   -1   -4    4      8.59      0.00
   -1   -4    5      7.84      0.00
   -1   -4    6      8.41      0.00
    1    3   15     -1.69      0.00
    1    3   14     -2.15      0.00
    1    3   13     -1.85      0.00
    1    3   12     -2.27      0.00
    1    3   11     -0.63      0.00
    1    3   10     -0.93      0.00
    1    3    9     -4.15      0.00
    1    3    8     -4.11      0.00
    1    3    7     -5.81      0.00
    1    3    6      0.08      0.00
    1    3    5      3.04      0.00
    1    3    4     -1.40      0.00
    1    3    3     -3.44      0.00
    1    3    2     -4.92      0.00
    1    3    1      0.27      0.00
    1    3    0     -5.53      0.00
   -1   -3    1     -5.82      0.00
   -1   -3    3     -2.58      0.00
   -1   -3    4     -6.62      0.00
   -1   -3    5     -6.84      0.00
   -1   -3    6     -4.53      0.00
    1    2   15      0.33      0.00
    1    2   14      0.18      0.00
    1    2   13      0.15      0.00
    1    2   12     -1.35      0.00
    1    2   11     -0.97      0.00
    1    2   10      0.75      0.00
    1    2    9     -0.61      0.00
    1    2    8      1.17      0.00
    1    2    7     -2.00      0.00
    1    2    6      1.39      0.00
    1    2    5      7.43      0.00
    1    2    4      1.04      0.00
    1    2    3     -5.66      0.00
    1    2    1     11.10      0.00
    1    2    0     16.04      0.00
   -1   -2    1      8.17      0.00
   -1   -2    2     19.82      0.00
   -1   -2    5      5.84      0.00
   -1   -2    6      5.02      0.00
    1    1   16     -0.87      0.00
    1    1   15      0.08      0.00
    1    1   14      0.83      0.00
    1    1   13      1.42      0.00
    1    1   12      0.13      0.00
    1    1   11     -1.01      0.00
    1    1   10      1.30      0.00
    1    1    9      0.25      0.00
    1    1    8      3.05      0.00
    1    1    7      0.67      0.00
    1    1    6      0.94      0.00
    1    1    5     11.25      0.00
    1    1    4      8.83      0.00
    1    1    3     -1.14      0.00
    1    1    2    -11.38      0.00
    1    1    1      5.37      0.00
    1    1    0     18.37      0.00
   -1   -1    1     -4.83      0.00
   -1   -1    2     -6.17      0.00
   -1   -1    5     -8.24      0.00
    1    0   16     -0.99      0.00
    1    0   15     -0.44      0.00
    1    0   14      0.61      0.00
    1    0   13      1.20      0.00
    1    0   12      0.52      0.00
    1    0   11     -1.45      0.00
    1    0   10      1.79      0.00
    1    0    9      2.05      0.00
    1    0    8      5.22      0.00
    1    0    7      4.86      0.00
    1    0    6     -0.46      0.00
    1    0    5      7.25      0.00
    1    0    4      9.89      0.00
    1    0    3      7.16      0.00
    1    0    2      0.05      0.00
   -1    0    1     30.59      0.00
   -1    0    2     13.27      0.00
   -1    0    3     20.19      0.00
   -1    0    4     16.39      0.00
    1   -1   16     -0.45      0.00
    1   -1   15     -1.18      0.00
    1   -1   14     -0.88      0.00
    1   -1   13     -0.49      0.00
    1   -1   12      0.18      0.00
    1   -1   11     -2.02      0.00
    1   -1   10     -0.09      0.00
    1   -1    9     -0.12      0.00
    1   -1    8      1.42      0.00
    1   -1    7      4.96      0.00
    1   -1    6     -0.85      0.00
    1   -1    5      2.51      0.00
    1   -1    4      5.55      0.00
    1   -1    3      5.00      0.00
    1   -1    2     -4.02      0.00
   -1    1    1      5.64      0.00
   -1    1    2    -22.94      0.00
   -1    1    3    -15.31      0.00
   -1    1    4     -4.53      0.00
    1   -2   15     -0.91      0.00
    1   -2   14     -1.67      0.00
    1   -2   13     -2.15      0.00
    1   -2   12     -1.03      0.00
    1   -2   11     -2.87      0.00
    1   -2   10     -2.83      0.00
    1   -2    9     -3.40      0.00
    1   -2    8     -5.04      0.00
    1   -2    7     -0.94      0.00
    1   -2    6     -6.70      0.00
    1   -2    5     -9.77      0.00
    1   -2    4     -8.53      0.00
    1   -2    3     -5.22      0.00
    1   -2    2     -2.57      0.00
   -1    2    1     10.84      0.00
   -1    2    2    -13.91      0.00
   -1    2    3    -14.50      0.00
   -1    2    4     -4.17      0.00
    1   -3   16      1.10      0.00
    1   -3   15      0.22      0.00
    1   -3   14     -0.78      0.00
    1   -3   13     -0.72      0.00
    1   -3   12      2.10      0.00
    1   -3   11      3.00      0.00
    1   -3   10      3.44      0.00
    1   -3    9      4.38      0.00
    1   -3    8      1.97      0.00
    1   -3    7      6.52      0.00
    1   -3    6      5.35      0.00
    1   -3    5      0.73      0.00
    1   -3    2      5.92      0.00
    1   -3    1     -6.13      0.00
   -1    3    0     -8.50      0.00
   -1    3    1     -1.01      0.00
   -1    3    2    -14.16      0.00
   -1    3    3    -16.18      0.00
   -1    3    4     -6.63      0.00
   -1    3    5      2.16      0.00
    1   -4   16      1.01      0.00
    1   -4   15      0.72      0.00
    1   -4   14     -0.46      0.00
    1   -4   13     -1.51      0.00
    1   -4   12     -0.70      0.00
    1   -4   11     -1.09      0.00
    1   -4   10     -3.09      0.00
    1   -4    9     -2.64      0.00
    1   -4    8     -5.55      0.00
    1   -4    7     -3.43      0.00
    1   -4    6     -1.46      0.00
    1   -4    5     -4.71      0.00
    1   -4    3     -4.29      0.00
    1   -4    2      4.58      0.00
    1   -4    1      1.42      0.00
   -1    4    0     -6.29      0.00
   -1    4    1      0.44      0.00
   -1    4    2     -2.50      0.00
   -1    4    3     -4.74      0.00
   -1    4    4     -2.14      0.00
   -1    4    5      1.24      0.00
    1   -5   15      0.01      0.00
    1   -5   14     -0.33      0.00
    1   -5   13     -0.35      0.00
    1   -5   12      1.22      0.00
    1   -5   11      3.02      0.00
    1   -5   10      2.66      0.00
    1   -5    9      4.86      0.00
    1   -5    8      3.94      0.00
    1   -5    7      3.02      0.00
    1   -5    6      4.10      0.00
    1   -5    5      1.46      0.00
    1   -5    4      0.57      0.00
    1   -5    3     -1.83      0.00
    1   -5    2      2.69      0.00
    1   -5    1      3.48      0.00
   -1    5    0     -5.48      0.00
   -1    5    1     -2.96      0.00
   -1    5    2     -0.48      0.00
   -1    5    3      1.09      0.00
   -1    5    4      3.01      0.00
   -1    5    5      3.28      0.00
    1   -6   15     -0.40      0.00
    1   -6   14     -0.19      0.00
    1   -6   13     -0.27      0.00
    1   -6   12     -1.09      0.00
    1   -6   11     -1.68      0.00
    1   -6   10     -3.95      0.00
    1   -6    9     -3.33      0.00
    1   -6    8     -2.66      0.00
    1   -6    7     -3.80      0.00
    1   -6    6     -2.74      0.00
    1   -6    5     -2.49      0.00
    1   -6    4     -0.52      0.00
    1   -6    3     -2.30      0.00
    1   -6    2     -1.65      0.00
    1   -6    1      1.50      0.00
   -1    6    0     -4.30      0.00
   -1    6    1     -5.09      0.00
   -1    6    2     -3.21      0.00
   -1    6    3     -1.88      0.00
   -1    6    4     -0.91      0.00
   -1    6    5     -2.64      0.00
   -1    6   10     -0.57      0.00
    1   -7   14     -0.33      0.00
    1   -7   13      0.35      0.00
    1   -7   12      0.19      0.00
    1   -7   11      0.74      0.00
    1   -7   10      0.53      0.00
    1   -7    9      1.74      0.00
    1   -7    8      3.58      0.00
    1   -7    7      2.05      0.00
    1   -7    6      0.41      0.00
    1   -7    5     -0.84      0.00
    1   -7    4      1.05      0.00
    1   -7    3     -0.17      0.00
    1   -7    2     -2.83      0.00
    1   -7    1      0.40      0.00
   -1    7    0     -0.70      0.00
   -1    7    1     -1.33      0.00
   -1    7    2      0.11      0.00
   -1    7    3      1.48      0.00
   -1    7    4      3.03      0.00
   -1    7    5      0.78      0.00
   -1    7    8     -0.36      0.00
   -1    7    9      0.91      0.00
   -1    7   10      0.08      0.00
    1   -8   13      0.03      0.00
    1   -8   12     -0.34      0.00
    1   -8   11     -0.76      0.00
    1   -8   10     -1.74      0.00
    1   -8    9     -2.20      0.00
    1   -8    8     -0.58      0.00
    1   -8    7     -0.55      0.00
    1   -8    6     -1.29      0.00
    1   -8    5     -1.80      0.00
    1   -8    4      0.62      0.00
    1   -8    3      1.06      0.00
    1   -8    2     -2.99      0.00
    1   -8    1     -1.97      0.00
   -1    8    0     -1.23      0.00
   -1    8    1     -1.90      0.00
   -1    8    2     -1.91      0.00
   -1    8    3     -1.89      0.00
   -1    8    4     -0.13      0.00
   -1    8    5     -1.63      0.00
   -1    8    6     -1.75      0.00
   -1    8    7     -1.35      0.00
   -1    8    8     -1.75      0.00
   -1    8    9     -0.11      0.00
    1   -9   11      0.07      0.00
    1   -9   10      0.24      0.00
    1   -9    9     -0.34      0.00
    1   -9    8      0.58      0.00
    1   -9    7      1.04      0.00
    1   -9    6      0.13      0.00
    1   -9    5     -1.27      0.00
    1   -9    4     -0.23      0.00
    1   -9    3      1.28      0.00
    1   -9    2     -1.27      0.00
    1   -9    1     -0.87      0.00
   -1    9    0      0.84      0.00
   -1    9    1      0.75      0.00
   -1    9    2      0.51      0.00
   -1    9    3     -0.36      0.00
   -1    9    4      1.04      0.00
   -1    9    5      0.59      0.00
   -1    9    6     -0.20      0.00
   -1    9    7      0.62      0.00
   -1    9    8      0.58      0.00
   -1    9    9      1.65      0.00
    1  -10    9     -0.32      0.00
    1  -10    8     -0.47      0.00
    1  -10    7      0.32      0.00
    1  -10    6      0.55      0.00
    1  -10    4     -0.57      0.00
    1  -10    3      0.69      0.00
    1  -10    2     -0.72      0.00
    1  -10    1     -1.10      0.00
   -1   10    0      0.11      0.00
   -1   10    1      0.13      0.00
   -1   10    2      0.48      0.00
   -1   10    4      0.23      0.00
   -1   10    5      0.16      0.00
   -1   10    6     -1.23      0.00
   -1   10    7     -1.11      0.00
    1  -11    7     -0.89      0.00
    1  -11    3     -0.02      0.00
    1  -11    1      0.43      0.00
   -1   11    0      1.17      0.00
   -1   11    1      0.73      0.00
   -1   11    2      0.71      0.00
   -1   11    4      0.12      0.00
   -1   11    5      0.45      0.00
    0   11    4     -0.10      0.00
    0   11    3      0.20      0.00
    0   11    2      0.64      0.00
    0   11    1      0.74      0.00
    0   11    0      1.47      0.00
    0  -11    1      1.23      0.00
    0  -11    2      0.96      0.00
    0  -11    3      0.42      0.00
    0  -11    4     -0.83      0.00
    0  -11    5     -0.97      0.00
    0   10    5     -1.66      0.00
    0   10    4     -1.10      0.00
    0   10    3     -0.78      0.00
    0   10    2      0.33      0.00
    0   10    1      0.19      0.00
    0  -10    2     -0.90      0.00
    0  -10    3     -0.25      0.00
    0  -10    4     -1.11      0.00
    0  -10    5     -0.90      0.00
    0  -10    6     -0.13      0.00
    0    9    7      0.31      0.00
    0    9    6     -0.54      0.00
    0    9    5     -0.12      0.00
    0    9    4      0.63      0.00
    0    9    3     -0.22      0.00
    0    9    2      0.87      0.00
    0    9    1      1.26      0.00
    0    9    0      1.66      0.00
    0   -9    1      0.90      0.00
    0   -9    2      0.16      0.00
    0   -9    3      1.95      0.00
    0   -9    4      0.86      0.00
    0   -9    5     -0.24      0.00
    0   -9    6      0.41      0.00
    0    8   10     -0.51      0.00
    0    8    9      0.23      0.00
    0    8    8     -1.61      0.00
    0    8    7     -1.83      0.00
    0    8    6     -1.85      0.00
    0    8    5     -1.52      0.00
    0    8    4      0.43      0.00
    0    8    3     -0.69      0.00
    0    8    2     -0.36      0.00
    0    8    1     -0.07      0.00
    0   -8    1     -0.63      0.00
    0   -8    2     -2.24      0.00
    0   -8    3      0.98      0.00
    0   -8    4      1.34      0.00
    0   -8    5     -0.69      0.00
    0   -8    6     -0.50      0.00
    0   -8    7     -0.19      0.00
    0    7   11      0.70      0.00
    0    7   10     -0.10      0.00
    0    7    9      0.73      0.00
    0    7    8     -0.99      0.00
    0    7    7     -1.44      0.00
    0    7    6     -0.29      0.00
    0    7    5     -0.10      0.00
    0    7    4      2.83      0.00
    0    7    3      2.10      0.00
    0    7    2      1.41      0.00
    0   -7    3      1.68      0.00
    0   -7    4      2.82      0.00
    0   -7    5     -0.10      0.00
    0   -7    6     -0.24      0.00
    0   -7    7      0.92      0.00
    0    6   13     -0.85      0.00
    0    6   12     -0.36      0.00
    0    6   11      0.81      0.00
    0    6   10     -0.71      0.00
    0    6    9      0.12      0.00
    0    6    8     -0.09      0.00
    0    6    7     -0.56      0.00
    0    6    6      1.00      0.00
    0    6    5      0.06      0.00
    0    6    4      2.65      0.00
    0    6    3      2.34      0.00
    0   -6    5      2.18      0.00
    0   -6    6      0.94      0.00
    0    5   14     -0.02      0.00
    0    5   13      0.52      0.00
    0    5   12      1.02      0.00
    0    5   11      2.60      0.00
    0    5   10      0.15      0.00
    0    5    9     -1.09      0.00
    0    5    8     -1.01      0.00
    0    5    7     -0.83      0.00
    0    5    6      2.80      0.00
    0    5    5      2.04      0.00
    0    5    1      0.84      0.00
    0   -5    1      5.57      0.00
    0   -5    2      5.22      0.00
    0   -5    3      0.06      0.00
    0   -5    6      1.83      0.00
    0    4   15      0.02      0.00
    0    4   14     -0.57      0.00
    0    4   13     -0.35      0.00
    0    4   12     -0.53      0.00
    0    4   11      1.73      0.00
    0    4   10      1.37      0.00
    0    4    9      0.53      0.00
    0    4    8      1.10      0.00
    0    4    7      0.99      0.00
    0    4    6      6.34      0.00
    0    4    5      5.33      0.00
    0    4    2      5.10      0.00
    0    4    1      8.16      0.00
    0   -4    1     12.11      0.00
    0   -4    2     17.21      0.00
    0   -4    3      8.52      0.00
    0   -4    4      6.82      0.00
    0   -4    6      6.69      0.00
    0    3   15     -0.82      0.00
    0    3   14     -1.00      0.00
    0    3   13     -0.57      0.00
    0    3   12     -1.68      0.00
    0    3   11     -0.97      0.00
    0    3   10     -1.44      0.00
    0    3    9     -3.26      0.00
    0    3    8     -3.26      0.00
    0    3    7     -5.01      0.00
    0    3    6      2.43      0.00
    0    3    5      4.87      0.00
    0    3    3     -7.38      0.00
    0    3    2     -7.44      0.00
    0    3    1      2.05      0.00
    0   -3    1     -3.75      0.00
    0   -3    2      7.98      0.00
    0   -3    3      1.18      0.00
    0   -3    4     -1.48      0.00
    0   -3    6      2.98      0.00
    0    2   15      0.56      0.00
    0    2   14      0.57      0.00
    0    2   13      0.71      0.00
    0    2   12     -0.69      0.00
    0    2   11     -0.10      0.00
    0    2   10      1.57      0.00
    0    2    9      0.95      0.00
    0    2    8      2.01      0.00
    0    2    7     -2.67      0.00
    0    2    6      1.80      0.00
    0    2    5      8.76      0.00
    0    2    4      4.03      0.00
    0    2    3     -3.09      0.00
    0    2    2     -1.34      0.00
    0    2    1     23.95      0.00
    0   -2    1     12.70      0.00
    0   -2    2     22.03      0.00
    0   -2    3     16.88      0.00
    0   -2    5      4.34      0.00
    0    1   16     -0.62      0.00
    0    1   15      0.39      0.00
    0    1   14      1.10      0.00
    0    1   13      1.58      0.00
    0    1   12      0.04      0.00
    0    1   11     -0.73      0.00
    0    1   10      1.66      0.00
    0    1    9      1.41      0.00
    0    1    8      4.72      0.00
    0    1    7      1.26      0.00
    0    1    6      1.33      0.00
    0    1    5      9.39      0.00
    0    1    4      5.83      0.00
    0    1    3     -5.60      0.00
    0    1    2    -15.70      0.00
    0    1    1      8.96      0.00
    0    1    0     22.65      0.00
    0   -1    1     -3.67      0.00
    0   -1    2     -2.59      0.00
    0   -1    3      4.83      0.00
    0   -1    4      1.93      0.00
    0    0   16      0.20      0.00
    0    0   15      0.86      0.00
    0    0   14      1.54      0.00
    0    0   13      2.31      0.00
    0    0   12      1.99      0.00
    0    0   11      0.69      0.00
    0    0   10      3.89      0.00
    0    0    9      4.19      0.00
    0    0    8      8.32      0.00
    0    0    7      8.44      0.00
    0    0    6      5.92      0.00
    0    0    5     15.73      0.00
    0    0    4     22.44      0.00
    0    0    3     25.98      0.00
    0    0    2     21.36      0.00
    0    0    1     42.77      0.00
    0   -1   16      0.22      0.00
    0   -1   15     -0.25      0.00
    0   -1   14     -0.59      0.00
    0   -1   13     -0.23      0.00
    0   -1   12      0.82      0.00
    0   -1   11     -1.17      0.00
    0   -1   10      0.14      0.00
    0   -1    9     -0.60      0.00
    0   -1    8      1.64      0.00
    0   -1    7      4.45      0.00
    0   -1    6     -1.54      0.00
    0   -1    5      0.37      0.00
    0   -2   15      0.05      0.00
    0   -2   14     -1.01      0.00
    0   -2   13     -1.45      0.00
    0   -2   12      0.51      0.00
    0   -2   11     -0.49      0.00
    0   -2   10      0.00      0.00
    0   -2    9     -0.10      0.00
    0   -2    8      0.94      0.00
    0   -2    7      7.13      0.00
    0   -2    6      3.92      0.00
    0   -2    4      8.05      0.00
    0    2    0     25.81      0.00
    0   -3   16      0.94      0.00
    0   -3   15      0.52      0.00
    0   -3   14      0.05      0.00
    0   -3   13      0.47      0.00
    0   -3   12      3.37      0.00
    0   -3   11      3.65      0.00
    0   -3   10      3.16      0.00
    0   -3    9      2.74      0.00
    0   -3    8      0.53      0.00
    0   -3    7      4.98      0.00
    0   -3    5     -0.89      0.00
    0    3    0     -4.93      0.00
    0    3    4     -1.54      0.00
    0   -4   16      0.40      0.00
    0   -4   15      0.01      0.00
    0   -4   14     -0.82      0.00
    0   -4   13     -1.43      0.00
    0   -4   12     -0.34      0.00
    0   -4   11     -0.52      0.00
    0   -4   10     -1.16      0.00
    0   -4    9      0.80      0.00
    0   -4    8     -0.07      0.00
    0   -4    7      3.94      0.00
    0   -4    5      5.56      0.00
    0    4    0      3.89      0.00
    0    4    3      3.87      0.00
    0    4    4      3.52      0.00
    0   -5   15      0.10      0.00
    0   -5   14      0.68      0.00
    0   -5   13      1.50      0.00
    0   -5   12      3.12      0.00
    0   -5   11      3.84      0.00
    0   -5   10      2.93      0.00
    0   -5    9      4.45      0.00
    0   -5    8      2.52      0.00
    0   -5    7      1.09      0.00
    0   -5    5      0.77      0.00
    0   -5    4      1.42      0.00
    0    5    0     -1.69      0.00
    0    5    2      2.63      0.00
    0    5    3      4.61      0.00
    0    5    4      4.00      0.00
    0   -6   14     -0.66      0.00
    0   -6   13     -0.79      0.00
    0   -6   12     -1.56      0.00
    0   -6   11     -2.13      0.00
    0   -6   10     -3.21      0.00
    0   -6    9     -1.00      0.00
    0   -6    8      0.26      0.00
    0   -6    7     -0.36      0.00
    0   -6    4      4.51      0.00
    0   -6    3      2.12      0.00
    0   -6    2      2.66      0.00
    0   -6    1      4.94      0.00
    0    6    0      0.04      0.00
    0    6    1     -0.29      0.00
    0    6    2      0.58      0.00
    0   -7   14      0.05      0.00
    0   -7   13      0.92      0.00
    0   -7   12      1.01      0.00
    0   -7   11      1.44      0.00
    0   -7   10      1.10      0.00
    0   -7    9      2.17      0.00
    0   -7    8      2.92      0.00
    0   -7    2     -0.12      0.00
    0   -7    1      2.99      0.00
    0    7    0      1.90      0.00
    0    7    1      1.38      0.00
    0   -8   13     -0.58      0.00
    0   -8   12     -1.15      0.00
    0   -8   11     -1.46      0.00
    0   -8   10     -2.21      0.00
    0   -8    9     -1.92      0.00
    0   -8    8     -0.20      0.00
    0    8    0      0.06      0.00
    0   -9   11      0.09      0.00
    0   -9   10      0.04      0.00
    0   -9    9     -0.40      0.00
    0   -9    8      0.62      0.00
    0   -9    7      0.86      0.00
    0    9    8      0.55      0.00
    0  -10   10     -0.44      0.00
    0  -10    9     -1.21      0.00
    0  -10    8     -0.76      0.00
    0  -10    7     -0.09      0.00
    0  -10    1     -0.45      0.00
    0   10    0      0.39      0.00
    0   10    6     -2.46      0.00
    0   10    7     -1.70      0.00
    0  -11    6     -0.97      0.00
    1  -12    1      0.05      0.00
   -1   11    3      0.34      0.00
    1  -11    2      0.41      0.00
    1  -11    4     -1.39      0.00
    1  -11    5     -0.91      0.00
   -1   10    3     -0.19      0.00
    1  -10    5     -0.42      0.00
   -1    8   10     -0.81      0.00
   -1    7   12      1.26      0.00
   -1    7   11      1.25      0.00
   -1    7    7      0.35      0.00
   -1    7    6      1.19      0.00
   -1    6   12      0.05      0.00
   -1    6   11      1.24      0.00
   -1    6    9     -0.13      0.00
   -1    6    8     -1.05      0.00
   -1    6    7     -1.33      0.00
   -1    6    6     -0.61      0.00
   -1    5   14      1.75      0.00
   -1    5   13      2.21      0.00
   -1    5   12      1.93      0.00
   -1    5   11      2.98      0.00
   -1    5   10      0.84      0.00
   -1    5    9      0.46      0.00
   -1    5    8      0.62      0.00
   -1    5    7      1.70      0.00
   -1    5    6      5.33      0.00
   -1    4   15      0.11      0.00
   -1    4   14     -0.08      0.00
   -1    4   13      0.60      0.00
   -1    4   12     -0.11      0.00
   -1    4   11      1.40      0.00
   -1    4   10      0.75      0.00
   -1    4    9     -0.20      0.00
   -1    4    8     -1.39      0.00
   -1    4    7     -2.33      0.00
   -1    4    6      2.87      0.00
    1   -4    4     -4.84      0.00
   -1    3   15      0.54      0.00
   -1    3   14      0.39      0.00
   -1    3   13      0.81      0.00
   -1    3   12     -0.88      0.00
   -1    3   11     -0.58      0.00
   -1    3   10     -0.71      0.00
   -1    3    9     -1.39      0.00
   -1    3    8     -1.91      0.00
   -1    3    7     -4.42      0.00
   -1    3    6      1.95      0.00
    1   -3    3      0.68      0.00
    1   -3    4      0.07      0.00
   -1    2   16      0.06      0.00
   -1    2   15      1.01      0.00
   -1    2   14      0.75      0.00
   -1    2   13      0.78      0.00
   -1    2   12     -1.02      0.00
   -1    2   11     -0.96      0.00
   -1    2   10     -0.32      0.00
   -1    2    9     -1.66      0.00
   -1    2    8     -2.01      0.00
   -1    2    7     -7.52      0.00
   -1    2    6     -3.65      0.00
   -1    2    5      1.34      0.00
   -1    2    0      6.08      0.00
    1   -2    1    -10.75      0.00
   -1    1   16     -0.22      0.00
   -1    1   15      0.68      0.00
   -1    1   14      1.12      0.00
   -1    1   13      1.87      0.00
   -1    1   12      0.63      0.00
   -1    1   11      0.22      0.00
   -1    1   10      2.24      0.00
   -1    1    9      1.51      0.00
   -1    1    8      3.53      0.00
   -1    1    7     -1.48      0.00
   -1    1    6     -3.37      0.00
   -1    1    5      0.11      0.00
   -1    1    0     17.23      0.00
    1   -1    1     -7.96      0.00
   -1    0   16      1.24      0.00
   -1    0   15      1.40      0.00
   -1    0   14      1.05      0.00
   -1    0   13      1.76      0.00
   -1    0   12      1.58      0.00
   -1    0   11      0.08      0.00
   -1    0   10      2.14      0.00
   -1    0    9      1.65      0.00
   -1    0    8      5.22      0.00
   -1    0    7      4.94      0.00
   -1    0    6      3.21      0.00
   -1    0    5     10.70      0.00
    1    0    0     49.49      0.00
    1    0    1     17.16      0.00
   -1   -1   16      0.42      0.00
   -1   -1   15     -0.04      0.00
   -1   -1   14     -1.01      0.00
   -1   -1   13     -0.58      0.00
   -1   -1   12      0.65      0.00
   -1   -1   11     -1.80      0.00
   -1   -1   10     -1.93      0.00
   -1   -1    9     -3.72      0.00
   -1   -1    8     -2.23      0.00
   -1   -1    7     -1.62      0.00
   -1   -1    6     -8.30      0.00
   -1   -1    4     -7.43      0.00
   -1   -1    3     -1.37      0.00
   -1   -2   15      0.38      0.00
   -1   -2   14     -0.97      0.00
   -1   -2   13     -1.15      0.00
   -1   -2   12      1.13      0.00
   -1   -2   11      0.30      0.00
   -1   -2   10      0.65      0.00
   -1   -2    9      0.80      0.00
   -1   -2    8      2.90      0.00
   -1   -2    7      8.16      0.00
   -1   -2    4      8.57      0.00
   -1   -2    3     17.23      0.00
    1    2    2     -6.94      0.00
   -1   -3   16      0.51      0.00
   -1   -3   15      0.25      0.00
   -1   -3   14     -0.08      0.00
   -1   -3   13      0.24      0.00
   -1   -3   12      1.91      0.00
   -1   -3   11      0.46      0.00
   -1   -3   10     -1.41      0.00
   -1   -3    9     -2.88      0.00
   -1   -3    8     -5.01      0.00
   -1   -3    7     -1.87      0.00
   -1   -3    2      4.21      0.00
   -1   -4   15     -0.06      0.00
   -1   -4   14     -0.55      0.00
   -1   -4   13     -0.50      0.00
   -1   -4   12      0.75      0.00
   -1   -4   11      0.75      0.00
   -1   -4   10      1.25      0.00
   -1   -4    9      3.91      0.00
   -1   -4    8      3.72      0.00
   -1   -4    7      7.00      0.00
    1    4    0      2.77      0.00
   -1   -5   15     -0.24      0.00
   -1   -5   14      0.59      0.00
   -1   -5   13      1.13      0.00
   -1   -5   12      1.58      0.00
   -1   -5   11      0.62      0.00
   -1   -5   10     -1.09      0.00
   -1   -5    9     -0.64      0.00
   -1   -5    8     -3.07      0.00
   -1   -5    7     -4.32      0.00
   -1   -5    6     -3.36      0.00
    1    5    0     -2.51      0.00
   -1   -6   14      0.09      0.00
   -1   -6   13     -0.01      0.00
   -1   -6   12     -0.49      0.00
   -1   -6   11     -0.58      0.00
   -1   -6   10     -0.43      0.00
   -1   -6    9      1.98      0.00
   -1   -6    8      2.53      0.00
   -1   -6    7      1.73      0.00
   -1   -6    6      2.40      0.00
   -1   -6    5      3.53      0.00
    1    6    0      1.71      0.00
    1    6    3      5.17      0.00
   -1   -7   14     -0.27      0.00
   -1   -7   13      0.40      0.00
   -1   -7   12      0.18      0.00
   -1   -7   11      0.01      0.00
   -1   -7   10     -0.59      0.00
   -1   -7    9     -0.11      0.00
   -1   -7    8     -0.49      0.00
   -1   -7    7     -2.06      0.00
   -1   -7    5     -1.12      0.00
   -1   -7    4      1.72      0.00
   -1   -7    3      0.27      0.00
   -1   -7    2     -1.09      0.00
   -1   -7    1      1.32      0.00
    1    7    0      0.34      0.00
    1    7    1      0.52      0.00
    1    7    2      0.46      0.00
   -1   -8   13      0.02      0.00
   -1   -8   12     -0.43      0.00
   -1   -8   11     -0.65      0.00
   -1   -8   10     -1.14      0.00
   -1   -8    9     -0.46      0.00
   -1   -8    8      0.52      0.00
   -1   -8    3      0.53      0.00
   -1   -8    2     -1.34      0.00
   -1   -8    1      0.59      0.00
    1    8    0      1.15      0.00
   -1   -9   11      0.16      0.00
   -1   -9   10     -0.24      0.00
   -1   -9    9     -0.40      0.00
   -1   -9    8      0.53      0.00
   -1   -9    5     -0.07      0.00
   -1   -9    4      0.54      0.00
   -1   -9    3      1.11      0.00
   -1   -9    2     -0.20      0.00
   -1   -9    1      0.35      0.00
    1    9    0      0.45      0.00
    1    9    1      0.44      0.00
    1    9    2      0.75      0.00
   -1  -10   10     -0.45      0.00
   -1  -10    9     -0.92      0.00
   -1  -10    8     -0.10      0.00
   -1  -10    7      0.04      0.00
    1   10    6     -1.96      0.00
   -1  -11    7     -0.91      0.00
   -1  -11    6     -1.05      0.00
   -1  -11    5     -0.72      0.00
    1   11    4     -0.56      0.00
   -2   10    4      1.23      0.00
    2  -10    2      0.19      0.00
   -2    8   11     -0.40      0.00
   -2    8    6     -1.15      0.00
   -2    7    9      0.38      0.00
   -2    7    8     -0.53      0.00
   -2    7    7      0.83      0.00
   -2    7    6      1.16      0.00
   -2    6   13     -0.29      0.00
   -2    6   12      0.41      0.00
   -2    6   10     -0.54      0.00
   -2    6    9     -0.40      0.00
   -2    6    8     -2.08      0.00
   -2    6    7     -1.85      0.00
   -2    6    6     -0.73      0.00
   -2    5   13      1.58      0.00
   -2    5   12      0.72      0.00
   -2    5   11      1.72      0.00
   -2    5   10      0.67      0.00
   -2    5    9      1.50      0.00
   -2    5    8      1.23      0.00
   -2    5    7      2.18      0.00
   -2    5    6      5.46      0.00
   -2    5    5      2.94      0.00
   -2    5    4      0.73      0.00
   -2    5    3     -2.92      0.00
   -2    5    2     -2.78      0.00
    2   -5    2      0.50      0.00
    2   -5    3     -3.07      0.00
    2   -5    4     -0.64      0.00
   -2    4   14     -0.07      0.00
   -2    4   13      0.51      0.00
   -2    4   12     -0.83      0.00
   -2    4   11      0.08      0.00
   -2    4   10     -0.73      0.00
   -2    4    9     -1.20      0.00
   -2    4    8     -2.76      0.00
   -2    4    7     -3.49      0.00
   -2    4    6      2.02      0.00
   -2    4    5      0.94      0.00
   -2    4    4     -3.53      0.00
    2   -4    1     -6.32      0.00
    2   -4    4    -10.30      0.00
   -2    3   15      0.73      0.00
   -2    3   14      0.38      0.00
   -2    3   13      0.57      0.00
   -2    3   12     -1.37      0.00
   -2    3   11     -0.77      0.00
   -2    3   10     -0.69      0.00
   -2    3    9     -0.90      0.00
   -2    3    8     -1.61      0.00
   -2    3    7     -4.51      0.00
   -2    3    6      0.12      0.00
   -2    3    5     -0.94      0.00
    2   -3    1     -5.83      0.00
   -2    2   16     -0.02      0.00
   -2    2   15      0.27      0.00
   -2    2   14     -0.44      0.00
   -2    2   13     -0.53      0.00
   -2    2   12     -2.60      0.00
   -2    2   11     -2.58      0.00
   -2    2   10     -2.54      0.00
   -2    2    9     -4.30      0.00
   -2    2    8     -4.65      0.00
   -2    2    7     -9.33      0.00
   -2    2    6     -6.96      0.00
   -2    2    0    -16.19      0.00
    2   -2    1    -31.65      0.00
   -2    1   16     -0.07      0.00
   -2    1   15      0.51      0.00
   -2    1   14      0.72      0.00
   -2    1   13      1.90      0.00
   -2    1   12      1.01      0.00
   -2    1   11      0.78      0.00
   -2    1   10      2.18      0.00
   -2    1    9      0.60      0.00
   -2    1    8      1.52      0.00
   -2    1    7     -3.52      0.00
   -2    1    6     -6.34      0.00
   -2    0   16      0.83      0.00
   -2    0   15      0.09      0.00
   -2    0   14     -0.97      0.00
   -2    0   13     -0.02      0.00
   -2    0   12      0.07      0.00
   -2    0   11     -1.61      0.00
   -2    0   10     -0.47      0.00
   -2    0    9     -1.56      0.00
   -2    0    8      0.82      0.00
   -2    0    7     -0.62      0.00
    2    0    0     12.49      0.00
   -2   -1   15     -0.49      0.00
   -2   -1   14     -1.51      0.00
   -2   -1   13     -0.80      0.00
   -2   -1   12      0.26      0.00
   -2   -1   11     -2.66      0.00
   -2   -1   10     -3.61      0.00
   -2   -1    9     -5.48      0.00
   -2   -1    8     -4.54      0.00
   -2   -1    7     -5.38      0.00
   -2   -1    5    -11.60      0.00
   -2   -2   15     -0.74      0.00
   -2   -2   14     -1.82      0.00
   -2   -2   13     -1.29      0.00
   -2   -2   12      0.83      0.00
   -2   -2   11     -0.24      0.00
   -2   -2   10     -0.29      0.00
   -2   -2    9     -0.49      0.00
   -2   -2    8      0.45      0.00
   -2   -2    7      2.21      0.00
   -2   -2    6     -2.65      0.00
   -2   -2    5     -3.45      0.00
   -2   -2    3      1.66      0.00
   -2   -3   15      0.08      0.00
   -2   -3   14     -0.31      0.00
   -2   -3   13     -0.12      0.00
   -2   -3   12      0.02      0.00
   -2   -3   11     -2.64      0.00
   -2   -3   10     -4.65      0.00
   -2   -3    9     -5.75      0.00
   -2   -3    8     -7.21      0.00
   -2   -3    7     -5.23      0.00
   -2   -3    5     -8.04      0.00
   -2   -3    4     -7.66      0.00
   -2   -4   15      0.14      0.00
   -2   -4   14     -0.23      0.00
   -2   -4   13      0.38      0.00
   -2   -4   12      1.50      0.00
   -2   -4   11      1.51      0.00
   -2   -4   10      2.32      0.00
   -2   -4    9      4.24      0.00
   -2   -4    8      3.06      0.00
   -2   -4    3      0.24      0.00
   -2   -5   15      0.33      0.00
   -2   -5   14      0.75      0.00
   -2   -5   13      0.37      0.00
   -2   -5   12     -0.48      0.00
   -2   -5   11     -2.22      0.00
   -2   -5   10     -3.77      0.00
   -2   -5    9     -3.63      0.00
   -2   -5    8     -5.49      0.00
    2    5    0     -5.37      0.00
   -2   -6   14      1.16      0.00
   -2   -6   13      0.99      0.00
   -2   -6   12      0.74      0.00
   -2   -6   11      1.23      0.00
   -2   -6   10      2.08      0.00
   -2   -6    9      3.58      0.00
   -2   -6    8      2.89      0.00
   -2   -6    7      1.67      0.00
    2    6    0      0.16      0.00
   -2   -7   14     -0.01      0.00
   -2   -7   13      0.24      0.00
   -2   -7   12     -0.46      0.00
   -2   -7   11     -1.04      0.00
   -2   -7   10     -1.54      0.00
   -2   -7    9     -1.36      0.00
   -2   -7    8     -2.17      0.00
   -2   -7    7     -2.99      0.00
   -2   -7    6     -2.44      0.00
   -2   -7    5     -1.70      0.00
   -2   -7    1     -1.63      0.00
    2    7    0     -2.04      0.00
   -2   -8   12      0.90      0.00
   -2   -8   11      0.79      0.00
   -2   -8   10      0.51      0.00
   -2   -8    9      1.16      0.00
   -2   -8    8      1.33      0.00
   -2   -8    7      0.39      0.00
   -2   -8    6      0.26      0.00
   -2   -8    4      0.76      0.00
   -2   -8    3      0.44      0.00
   -2   -8    2     -0.53      0.00
   -2   -8    1      1.11      0.00
    2    8    2      2.74      0.00
   -2   -9   10      0.12      0.00
   -2   -9    9      0.12      0.00
   -2   -9    8      0.84      0.00
   -2   -9    6     -0.03      0.00
   -2  -10    9      0.31      0.00
   -2  -10    8      1.06      0.00
   -2  -10    7      0.69      0.00
   -2  -11    6     -0.23      0.00
   -2  -11    5      0.28      0.00
   -2  -11    4      0.82      0.00
    2   11    2      0.01      0.00
   -3   10    5      2.01      0.00
   -3    8   11      0.74      0.00
   -3    8    8     -0.85      0.00
   -3    8    7      0.21      0.00
   -3    8    6     -0.05      0.00
   -3    7   10     -0.22      0.00
   -3    7    9      0.26      0.00
   -3    7    8     -1.17      0.00
   -3    7    7      0.24      0.00
   -3    7    6      0.43      0.00
   -3    6   13      0.54      0.00
   -3    6   12      0.94      0.00
   -3    6   11      1.13      0.00
   -3    6   10     -0.09      0.00
   -3    6    9      0.14      0.00
   -3    6    8     -1.90      0.00
   -3    6    7     -0.51      0.00
   -3    6    6      2.28      0.00
   -3    5   13      0.53      0.00
   -3    5   12     -0.06      0.00
   -3    5   11      1.01      0.00
   -3    5   10      0.77      0.00
   -3    5    9      2.28      0.00
   -3    5    8      1.06      0.00
   -3    5    7      1.48      0.00
   -3    5    6      5.00      0.00
   -3    5    5      3.64      0.00
   -3    5    4      1.10      0.00
    3   -5    1      5.23      0.00
   -3    4   14     -0.13      0.00
   -3    4   13      0.17      0.00
   -3    4   12     -1.07      0.00
   -3    4   11     -0.08      0.00
   -3    4   10     -0.67      0.00
   -3    4    9      0.23      0.00
   -3    4    8     -0.07      0.00
   -3    4    7      0.36      0.00
   -3    4    6      6.43      0.00
    3   -4    1     -0.08      0.00
   -3    3   15      0.18      0.00
   -3    3   14     -0.15      0.00
   -3    3   13     -0.18      0.00
   -3    3   12     -1.86      0.00
   -3    3   11     -0.69      0.00
   -3    3   10     -0.89      0.00
   -3    3    9     -0.93      0.00
   -3    3    8     -0.85      0.00
   -3    3    7     -2.89      0.00
    3   -3    1     -0.48      0.00
   -3    2   15     -0.80      0.00
   -3    2   14     -1.36      0.00
   -3    2   13     -1.15      0.00
   -3    2   12     -2.71      0.00
   -3    2   11     -1.85      0.00
   -3    2   10     -1.55      0.00
   -3    2    9     -2.61      0.00
   -3    2    8     -1.34      0.00
   -3    2    7     -3.83      0.00
   -3    1   16      0.08      0.00
   -3    1   15      0.49      0.00
   -3    1   14      0.78      0.00
   -3    1   13      2.17      0.00
   -3    1   12      1.50      0.00
   -3    1   11      1.49      0.00
   -3    1   10      2.58      0.00
   -3    1    9      1.16      0.00
   -3    1    8      2.59      0.00
   -3    1    7     -0.38      0.00
   -3    0   16     -0.19      0.00
   -3    0   15     -1.23      0.00
   -3    0   14     -1.74      0.00
   -3    0   13     -0.20      0.00
   -3    0   12      0.29      0.00
   -3    0   11     -0.99      0.00
   -3    0   10      0.00      0.00
   -3    0    9     -0.78      0.00
   -3    0    8      1.13      0.00
   -3    0    7     -0.57      0.00
    3    0    0      0.16      0.00
   -3   -1   15     -0.60      0.00
   -3   -1   14     -0.84      0.00
   -3   -1   13      0.21      0.00
   -3   -1   12      0.92      0.00
   -3   -1   11     -1.54      0.00
   -3   -1   10     -1.77      0.00
   -3   -1    9     -2.23      0.00
   -3   -1    8     -0.63      0.00
   -3   -1    7     -1.15      0.00
   -3   -2   15     -1.83      0.00
   -3   -2   14     -1.78      0.00
   -3   -2   13     -0.32      0.00
   -3   -2   12      1.19      0.00
   -3   -2   11     -0.12      0.00
   -3   -2   10     -0.35      0.00
   -3   -2    9     -0.93      0.00
   -3   -2    8     -1.34      0.00
   -3   -2    7     -2.01      0.00
   -3   -2    6     -6.62      0.00
   -3   -2    5     -7.12      0.00
   -3   -2    4     -8.02      0.00
   -3   -3   15      0.59      0.00
   -3   -3   14      0.33      0.00
   -3   -3   13      0.67      0.00
   -3   -3   12      0.09      0.00
   -3   -3   11     -2.16      0.00
   -3   -3   10     -2.66      0.00
   -3   -3    9     -2.11      0.00
   -3   -3    8     -2.32      0.00
   -3   -3    6     -1.71      0.00
   -3   -3    5     -0.80      0.00
   -3   -4   15      0.38      0.00
   -3   -4   14      0.12      0.00
   -3   -4   13      0.88      0.00
   -3   -4   12      1.59      0.00
   -3   -4   11      1.44      0.00
   -3   -4   10      1.88      0.00
   -3   -4    9      2.53      0.00
   -3   -4    8      0.35      0.00
   -3   -4    5     -1.39      0.00
   -3   -4    4     -2.63      0.00
   -3   -5   15      1.90      0.00
   -3   -5   14      1.79      0.00
   -3   -5   13      0.57      0.00
   -3   -5   12     -0.75      0.00
   -3   -5   11     -1.77      0.00
   -3   -5   10     -2.12      0.00
   -3   -5    9     -1.40      0.00
   -3   -5    8     -2.10      0.00
   -3   -6   14      1.31      0.00
   -3   -6   13      0.87      0.00
   -3   -6   12      0.60      0.00
   -3   -6   11      1.44      0.00
   -3   -6   10      2.33      0.00
   -3   -6    9      2.83      0.00
   -3   -6    8      1.55      0.00
   -3   -6    7      0.48      0.00
   -3   -7   13      0.62      0.00
   -3   -7   12     -0.40      0.00
   -3   -7   11     -0.84      0.00
   -3   -7   10     -0.84      0.00
   -3   -7    9     -0.37      0.00
   -3   -7    8     -0.76      0.00
   -3   -7    7     -1.06      0.00
   -3   -8   11      0.74      0.00
   -3   -8   10      0.52      0.00
   -3   -8    9      1.00      0.00
   -3   -8    8      0.95      0.00
   -3   -8    7     -0.04      0.00
   -3   -8    6     -0.08      0.00
    3    8    2      1.92      0.00
   -3   -9   11      0.89      0.00
   -3   -9   10      0.38      0.00
   -3   -9    9      0.47      0.00
   -3   -9    8      1.10      0.00
   -3   -9    7      0.39      0.00
   -3   -9    6     -0.16      0.00
   -3  -10    8      0.83      0.00
   -3  -10    7      0.37      0.00
   -3  -10    6     -0.21      0.00
    3   10    2      0.45      0.00
   -3  -11    3      1.86      0.00
   -3  -11    2      1.06      0.00
   -4   10    6      0.43      0.00
   -4    9    6     -1.35      0.00
   -4    8    8     -1.30      0.00
   -4    8    7      0.45      0.00
   -4    8    6      0.96      0.00
   -4    7   12      0.45      0.00
   -4    7   10      0.52      0.00
   -4    7    9     -0.13      0.00
   -4    7    8     -2.38      0.00
   -4    7    7     -0.85      0.00
   -4    7    6     -0.10      0.00
   -4    6   13      1.50      0.00
   -4    6   12      1.49      0.00
   -4    6   11      1.01      0.00
   -4    6   10      0.63      0.00
   -4    6    9      1.12      0.00
   -4    6    8     -1.03      0.00
   -4    6    7      1.19      0.00
   -4    6    6      5.00      0.00
   -4    5   13      0.72      0.00
   -4    5   12      0.54      0.00
   -4    5   11      1.05      0.00
   -4    5   10      0.78      0.00
   -4    5    9      2.20      0.00
   -4    5    8      0.13      0.00
   -4    5    7      0.28      0.00
   -4    5    6      4.23      0.00
   -4    4   14      1.00      0.00
   -4    4   13      1.01      0.00
   -4    4   12      0.38      0.00
   -4    4   11      1.42      0.00
   -4    4   10      0.88      0.00
   -4    4    9      2.80      0.00
   -4    4    8      3.51      0.00
   -4    4    7      4.32      0.00
   -4    3   15      0.28      0.00
   -4    3   14     -0.01      0.00
   -4    3   13     -0.43      0.00
   -4    3   12     -1.73      0.00
   -4    3   11     -0.60      0.00
   -4    3   10     -1.57      0.00
   -4    3    9     -1.50      0.00
   -4    3    8     -0.47      0.00
   -4    3    7     -1.33      0.00
   -4    2   15     -0.23      0.00
   -4    2   14     -0.27      0.00
   -4    2   13      0.13      0.00
   -4    2   12     -0.73      0.00
   -4    2   11      0.63      0.00
   -4    2   10      0.94      0.00
   -4    2    9      0.74      0.00
   -4    2    8      3.17      0.00
   -4    2    7      2.20      0.00
   -4    1   16      0.30      0.00
   -4    1   15      0.80      0.00
   -4    1   14      1.13      0.00
   -4    1   13      1.96      0.00
   -4    1   12      1.21      0.00
   -4    1   11      1.23      0.00
   -4    1   10      2.05      0.00
   -4    1    9      1.43      0.00
   -4    1    8      3.64      0.00
   -4    1    7      2.56      0.00
   -4    1    0     11.70      0.00
   -4    0   15     -0.96      0.00
   -4    0   14     -0.31      0.00
   -4    0   13      1.19      0.00
   -4    0   12      1.52      0.00
   -4    0   11      0.60      0.00
   -4    0   10      1.59      0.00
   -4    0    9      1.47      0.00
   -4    0    8      3.40      0.00
   -4    0    7      2.26      0.00
    4    0    0      6.47      0.00
   -4   -1   16      0.46      0.00
   -4   -1   15     -0.67      0.00
   -4   -1   14     -0.06      0.00
   -4   -1   13      0.79      0.00
   -4   -1   12      0.98      0.00
   -4   -1   11     -0.49      0.00
   -4   -1   10      0.48      0.00
   -4   -1    9      1.37      0.00
   -4   -1    8      3.38      0.00
   -4   -2   15     -1.70      0.00
   -4   -2   14     -0.47      0.00
   -4   -2   13      1.15      0.00
   -4   -2   12      1.63      0.00
   -4   -2   11      0.09      0.00
   -4   -2   10     -0.13      0.00
   -4   -2    9     -0.70      0.00
   -4   -2    8     -1.43      0.00
   -4   -2    5     -2.57      0.00
   -4   -3   15      0.52      0.00
   -4   -3   14      0.37      0.00
   -4   -3   13      0.66      0.00
   -4   -3   12      0.18      0.00
   -4   -3   11     -0.72      0.00
   -4   -3   10      0.38      0.00
   -4   -3    9      2.08      0.00
   -4   -3    8      2.41      0.00
   -4   -3    7      3.82      0.00
   -4   -3    6      3.85      0.00
   -4   -3    5      5.24      0.00
   -4   -4   15      0.67      0.00
   -4   -4   14      0.55      0.00
   -4   -4   13      0.74      0.00
   -4   -4   12      0.80      0.00
   -4   -4   11      0.44      0.00
   -4   -4   10      0.18      0.00
   -4   -4    9     -0.08      0.00
   -4   -4    8     -2.24      0.00
   -4   -4    6     -1.93      0.00
   -4   -4    5     -0.61      0.00
   -4   -5   14      1.83      0.00
   -4   -5   13      0.08      0.00
   -4   -5   12     -1.01      0.00
   -4   -5   11     -0.64      0.00
   -4   -5   10      0.08      0.00
   -4   -5    9      1.22      0.00
   -4   -5    8      1.09      0.00
   -4   -5    4      2.00      0.00
   -4   -6   14      0.66      0.00
   -4   -6   13     -0.12      0.00
   -4   -6   12     -0.72      0.00
   -4   -6   11      0.08      0.00
   -4   -6   10      0.56      0.00
   -4   -6    9      0.51      0.00
   -4   -6    8     -0.62      0.00
   -4   -6    7     -1.15      0.00
   -4   -7   12     -0.89      0.00
   -4   -7   11     -0.95      0.00
   -4   -7   10     -0.52      0.00
   -4   -7    9      0.36      0.00
   -4   -7    8      0.47      0.00
   -4   -7    7      0.10      0.00
   -4   -7    6      0.51      0.00
   -4   -8   12     -0.58      0.00
   -4   -8   11     -0.82      0.00
   -4   -8   10     -1.14      0.00
   -4   -8    9     -0.75      0.00
   -4   -8    8     -0.50      0.00
   -4   -8    7     -1.27      0.00
   -4   -8    6     -1.11      0.00
   -4   -8    5     -0.37      0.00
   -4   -9   10     -0.16      0.00
   -4   -9    9     -0.12      0.00
   -4   -9    8      0.40      0.00
   -4   -9    7     -0.33      0.00
   -4   -9    6     -1.00      0.00
   -4   -9    5     -0.95      0.00
   -4  -10    6     -0.87      0.00
   -4  -10    5     -0.17      0.00
   -4  -10    4      0.92      0.00
   -5    9    7     -1.03      0.00
   -5    8    9     -1.66      0.00
   -5    8    8     -1.85      0.00
   -5    8    7      0.21      0.00
   -5    8    6      0.76      0.00
   -5    7   11     -0.36      0.00
   -5    7   10     -0.18      0.00
   -5    7    9     -1.54      0.00
   -5    7    8     -3.78      0.00
   -5    7    7     -1.80      0.00
   -5    6   12      0.81      0.00
   -5    6   11      0.04      0.00
   -5    6   10      0.49      0.00
   -5    6    9      1.03      0.00
   -5    6    8     -1.19      0.00
   -5    6    7      0.69      0.00
   -5    5   13      0.31      0.00
   -5    5   12      0.15      0.00
   -5    5   11     -0.14      0.00
   -5    5   10     -0.54      0.00
   -5    5    9      0.63      0.00
   -5    5    8     -1.40      0.00
   -5    5    7     -1.19      0.00
   -5    5    6      2.36      0.00
   -5    4   14      1.71      0.00
   -5    4   13      1.44      0.00
   -5    4   12      1.33      0.00
   -5    4   11      2.00      0.00
   -5    4   10      1.27      0.00
   -5    4    9      3.04      0.00
   -5    4    8      3.43      0.00
   -5    4    7      3.27      0.00
   -5    3   14     -0.45      0.00
   -5    3   13     -1.37      0.00
   -5    3   12     -2.32      0.00
   -5    3   11     -1.77      0.00
   -5    3   10     -3.20      0.00
   -5    3    9     -2.95      0.00
   -5    3    8     -1.68      0.00
   -5    3    7     -2.13      0.00
   -5    2   15      1.05      0.00
   -5    2   14      1.03      0.00
   -5    2   13      1.12      0.00
   -5    2   12      0.69      0.00
   -5    2   11      1.67      0.00
   -5    2   10      1.50      0.00
   -5    2    9      1.52      0.00
   -5    2    8      3.35      0.00
   -5    2    7      2.16      0.00
   -5    1   15      0.59      0.00
   -5    1   14      0.50      0.00
   -5    1   13      0.25      0.00
   -5    1   12     -0.66      0.00
   -5    1   11     -0.79      0.00
   -5    1   10     -0.35      0.00
   -5    1    9     -0.51      0.00
   -5    1    8      1.20      0.00
   -5    1    7      0.23      0.00
   -5    1    0      3.73      0.00
   -5    0   15     -0.12      0.00
   -5    0   14      1.05      0.00
   -5    0   13      1.64      0.00
   -5    0   12      1.39      0.00
   -5    0   11      0.65      0.00
   -5    0   10      1.55      0.00
   -5    0    9      1.76      0.00
   -5    0    8      3.15      0.00
    5    0    0      8.34      0.00
   -5   -1   15     -1.39      0.00
   -5   -1   14     -0.61      0.00
   -5   -1   13     -0.47      0.00
   -5   -1   12     -0.69      0.00
   -5   -1   11     -1.43      0.00
   -5   -1   10     -0.03      0.00
   -5   -1    9      0.83      0.00
   -5   -1    8      1.78      0.00
   -5   -2   15     -0.88      0.00
   -5   -2   14      0.67      0.00
   -5   -2   13      1.53      0.00
   -5   -2   12      1.27      0.00
   -5   -2   11     -0.21      0.00
   -5   -2   10     -0.29      0.00
   -5   -2    9     -0.59      0.00
   -5   -2    8     -1.10      0.00
   -5   -3   15     -0.59      0.00
   -5   -3   14     -0.81      0.00
   -5   -3   13     -0.95      0.00
   -5   -3   12     -0.82      0.00
   -5   -3   11     -0.62      0.00
   -5   -3   10      0.74      0.00
   -5   -3    9      2.03      0.00
   -5   -3    8      1.71      0.00
   -5   -3    5      3.76      0.00
   -5   -4   15      1.08      0.00
   -5   -4   13      0.36      0.00
   -5   -4   12      0.05      0.00
   -5   -4   11     -0.21      0.00
   -5   -4   10     -0.97      0.00
   -5   -4    9     -1.56      0.00
   -5   -4    8     -3.10      0.00
   -5   -4    6     -0.53      0.00
   -5   -4    5      0.80      0.00
   -5   -4    4      0.04      0.00
   -5   -5   13     -1.14      0.00
   -5   -5   12     -1.67      0.00
   -5   -5   11     -0.31      0.00
   -5   -5   10      0.55      0.00
   -5   -5    9      1.25      0.00
   -5   -5    8      0.68      0.00
   -5   -5    7      0.99      0.00
   -5   -5    4      0.75      0.00
   -5   -6   13     -0.23      0.00
   -5   -6   12     -0.96      0.00
   -5   -6   11     -0.32      0.00
   -5   -6   10     -0.23      0.00
   -5   -6    9     -0.36      0.00
   -5   -6    8     -1.25      0.00
   -5   -6    7     -1.53      0.00
   -5   -7   12     -1.22      0.00
   -5   -7   11     -1.04      0.00
   -5   -7   10     -0.62      0.00
   -5   -7    9      0.26      0.00
   -5   -7    8      0.28      0.00
   -5   -7    7     -0.61      0.00
   -5   -7    6     -0.30      0.00
   -5   -7    5      0.26      0.00
    5    7    3     -0.20      0.00
   -5   -8   10     -1.57      0.00
   -5   -8    9     -1.14      0.00
   -5   -8    8     -0.71      0.00
   -5   -8    7     -1.46      0.00
   -5   -8    6     -1.33      0.00
   -5   -8    5     -0.45      0.00
   -5   -9    7     -1.55      0.00
   -5   -9    6     -2.07      0.00
   -5   -9    5     -1.59      0.00
   -5   -9    4     -0.45      0.00
   -5  -10    5     -0.21      0.00
   -5  -10    3      0.66      0.00
   -5  -10    2     -0.79      0.00
   -5  -10    1     -1.97      0.00
   -6   10    4     -0.28      0.00
    6  -10    1     -1.22      0.00
   -6    9    8     -1.17      0.00
   -6    8    9     -1.89      0.00
   -6    8    8     -1.91      0.00
   -6    8    7     -0.37      0.00
   -6    8    6     -0.42      0.00
   -6    7   11     -1.27      0.00
   -6    7   10     -0.84      0.00
   -6    7    9     -2.02      0.00
   -6    7    8     -3.47      0.00
   -6    7    7     -1.46      0.00
   -6    6   11     -1.30      0.00
   -6    6   10     -0.45      0.00
   -6    6    9     -0.18      0.00
   -6    6    8     -2.21      0.00
   -6    6    7     -1.30      0.00
   -6    5   12     -0.97      0.00
   -6    5   11     -1.28      0.00
   -6    5   10     -1.25      0.00
   -6    5    9     -0.17      0.00
   -6    5    8     -1.41      0.00
   -6    5    7     -1.12      0.00
   -6    4   13      0.20      0.00
   -6    4   12      0.33      0.00
   -6    4   11      0.53      0.00
   -6    4   10     -0.19      0.00
   -6    4    9      0.81      0.00
   -6    4    8      0.50      0.00
   -6    4    7     -0.49      0.00
   -6    3   14     -1.69      0.00
   -6    3   13     -2.45      0.00
   -6    3   12     -2.70      0.00
   -6    3   11     -2.42      0.00
   -6    3   10     -3.41      0.00
   -6    3    9     -2.81      0.00
   -6    3    8     -1.90      0.00
   -6    3    7     -2.48      0.00
   -6    2   14      0.57      0.00
   -6    2   13      0.39      0.00
   -6    2   12      0.33      0.00
   -6    2   11      0.74      0.00
   -6    2   10      0.30      0.00
   -6    2    9      0.27      0.00
   -6    2    8      0.78      0.00
   -6    2    7     -1.06      0.00
   -6    1   15      0.06      0.00
   -6    1   14     -0.45      0.00
   -6    1   13     -1.14      0.00
   -6    1   12     -1.70      0.00
   -6    1   11     -1.71      0.00
   -6    1   10     -1.36      0.00
   -6    1    9     -1.53      0.00
   -6    1    8     -1.10      0.00
   -6    1    7     -2.61      0.00
   -6    0   15      0.19      0.00
   -6    0   14      0.99      0.00
   -6    0   13      0.78      0.00
   -6    0   12      0.32      0.00
   -6    0   11     -0.10      0.00
   -6    0   10      0.95      0.00
   -6    0    9      1.12      0.00
   -6    0    8      1.42      0.00
   -6   -1   14     -1.24      0.00
   -6   -1   13     -1.45      0.00
   -6   -1   12     -1.47      0.00
   -6   -1   11     -1.89      0.00
   -6   -1   10     -0.78      0.00
   -6   -1    9     -0.75      0.00
   -6   -1    8     -1.34      0.00
   -6   -2   14      0.90      0.00
   -6   -2   13      0.89      0.00
   -6   -2   12      0.85      0.00
   -6   -2   11     -0.15      0.00
   -6   -2   10      0.04      0.00
   -6   -2    9      0.15      0.00
   -6   -2    8     -0.14      0.00
   -6   -3   14     -1.37      0.00
   -6   -3   13     -1.81      0.00
   -6   -3   12     -0.83      0.00
   -6   -3   11     -0.17      0.00
   -6   -3   10      0.38      0.00
   -6   -3    9      0.57      0.00
   -6   -3    8     -0.55      0.00
   -6   -4   14      1.42      0.00
   -6   -4   13      0.13      0.00
   -6   -4   12      0.05      0.00
   -6   -4   11      0.22      0.00
   -6   -4   10     -0.49      0.00
   -6   -4    9     -0.84      0.00
   -6   -4    8     -1.67      0.00
   -6   -4    7     -0.22      0.00
   -6   -4    4      0.47      0.00
   -6   -5   13     -1.25      0.00
   -6   -5   12     -1.15      0.00
   -6   -5   11      0.44      0.00
   -6   -5   10      0.88      0.00
   -6   -5    9      0.92      0.00
   -6   -5    8     -0.26      0.00
   -6   -5    7     -0.21      0.00
   -6   -5    5      0.27      0.00
   -6   -5    4     -0.49      0.00
   -6   -6   12      0.35      0.00
   -6   -6   11      0.93      0.00
   -6   -6   10      0.97      0.00
   -6   -6    9      1.10      0.00
   -6   -6    8      0.36      0.00
   -6   -6    7      0.05      0.00
   -6   -6    6      1.07      0.00
   -6   -6    5      1.04      0.00
   -6   -6    4      0.17      0.00
   -6   -7   10      0.25      0.00
   -6   -7    9      0.95      0.00
   -6   -7    8      0.62      0.00
   -6   -7    7     -0.53      0.00
   -6   -7    6     -0.20      0.00
   -6   -7    5      0.54      0.00
   -6   -7    4      1.05      0.00
   -6   -8    7     -0.13      0.00
   -6   -8    6     -0.16      0.00
   -6   -8    5      0.33      0.00
   -6   -8    4      0.66      0.00
   -6   -9    4      0.05      0.00
   -6   -9    3      0.62      0.00
   -7    9    6      0.29      0.00
    7   -9    1      0.13      0.00
   -7    8    8     -1.33      0.00
   -7    8    7     -0.45      0.00
   -7    8    6     -0.75      0.00
   -7    7   10      0.05      0.00
   -7    7    9     -0.55      0.00
   -7    7    8     -1.24      0.00
   -7    7    7      0.07      0.00
   -7    6   10     -0.85      0.00
   -7    6    9     -0.78      0.00
   -7    6    8     -2.01      0.00
   -7    6    7     -1.70      0.00
   -7    5   12     -0.48      0.00
   -7    5   11     -0.21      0.00
   -7    5   10      0.31      0.00
   -7    5    9      1.15      0.00
   -7    5    8      0.74      0.00
   -7    5    7      0.88      0.00
   -7    4   12     -0.94      0.00
   -7    4   11     -1.04      0.00
   -7    4   10     -1.39      0.00
   -7    4    9     -0.89      0.00
   -7    4    8     -1.21      0.00
   -7    4    7     -1.97      0.00
   -7    3   13     -1.73      0.00
   -7    3   12     -1.22      0.00
   -7    3   11     -0.90      0.00
   -7    3   10     -1.06      0.00
   -7    3    9     -0.23      0.00
   -7    3    8      0.26      0.00
   -7    3    7     -0.40      0.00
   -7    2   14     -0.58      0.00
   -7    2   13     -0.73      0.00
   -7    2   12     -0.56      0.00
   -7    2   11     -0.37      0.00
   -7    2   10     -0.60      0.00
   -7    2    9     -0.62      0.00
   -7    2    8     -0.78      0.00
   -7    2    7     -2.43      0.00
   -7    1   14     -0.24      0.00
   -7    1   13     -0.46      0.00
   -7    1   12     -0.45      0.00
   -7    1   11     -0.08      0.00
   -7    1   10      0.53      0.00
   -7    1    9      0.13      0.00
   -7    1    8     -0.28      0.00
   -7    1    7     -1.55      0.00
   -7    0   14      0.34      0.00
   -7    0   13     -0.03      0.00
   -7    0   12     -0.31      0.00
   -7    0   11     -0.40      0.00
   -7    0   10      0.95      0.00
   -7    0    9      0.84      0.00
   -7    0    8      0.18      0.00
   -7    0    7     -1.07      0.00
   -7   -1   13     -0.62      0.00
   -7   -1   12     -0.12      0.00
   -7   -1   11     -0.56      0.00
   -7   -1   10      0.17      0.00
   -7   -1    9     -0.33      0.00
   -7   -1    8     -1.60      0.00
   -7   -1    7     -2.68      0.00
   -7   -2   13     -0.07      0.00
   -7   -2   12      0.54      0.00
   -7   -2   11      0.04      0.00
   -7   -2   10      0.45      0.00
   -7   -2    9      0.85      0.00
   -7   -2    8      0.72      0.00
   -7   -2    7      1.03      0.00
   -7   -3   13     -1.04      0.00
   -7   -3   12      0.39      0.00
   -7   -3   11      0.87      0.00
   -7   -3   10      0.62      0.00
   -7   -3    9      0.13      0.00
   -7   -3    8     -0.99      0.00
   -7   -3    7     -0.52      0.00
   -7   -4   13     -0.43      0.00
   -7   -4   12     -0.21      0.00
   -7   -4   11      0.22      0.00
   -7   -4   10     -0.04      0.00
   -7   -4    9      0.06      0.00
   -7   -4    8     -0.27      0.00
   -7   -4    7      1.19      0.00
   -7   -4    6      1.91      0.00
   -7   -5   11      0.95      0.00
   -7   -5   10      1.06      0.00
   -7   -5    9      0.88      0.00
   -7   -5    8     -0.35      0.00
   -7   -5    7     -0.22      0.00
   -7   -5    6      0.58      0.00
   -7   -5    5     -0.17      0.00
   -7   -5    4     -0.72      0.00
   -7   -6   10      1.51      0.00
   -7   -6    9      2.01      0.00
   -7   -6    8      1.44      0.00
   -7   -6    7      1.13      0.00
   -7   -6    6      1.71      0.00
   -7   -6    5      1.28      0.00
   -7   -6    4      0.46      0.00
   -7   -6    3      0.39      0.00
   -7   -7    8      1.37      0.00
   -7   -7    7      0.47      0.00
   -7   -7    6      0.78      0.00
   -7   -7    5      1.22      0.00
   -7   -7    4      1.48      0.00
   -7   -7    3      1.09      0.00
   -7   -7    2      1.29      0.00
   -7   -8    5      0.68      0.00
   -7   -8    4      0.84      0.00
   -7   -8    3      0.44      0.00
   -7   -8    2      0.25      0.00
   -8    8    7      0.16      0.00
   -8    8    6      0.07      0.00
   -8    7    9      0.79      0.00
   -8    7    8      0.52      0.00
   -8    7    7      0.99      0.00
   -8    7    6      1.09      0.00
   -8    6    9      0.04      0.00
   -8    6    8     -0.26      0.00
   -8    6    7     -0.19      0.00
   -8    5   11      1.37      0.00
   -8    5   10      1.86      0.00
   -8    5    9      2.23      0.00
   -8    5    8      2.18      0.00
   -8    4   11     -1.02      0.00
   -8    4   10     -0.89      0.00
   -8    4    9     -0.48      0.00
   -8    4    8     -0.47      0.00
   -8    4    7     -0.69      0.00
   -8    3   12      0.44      0.00
   -8    3   11      0.69      0.00
   -8    3   10      0.87      0.00
   -8    3    9      1.56      0.00
   -8    3    8      1.82      0.00
   -8    2   13     -1.00      0.00
   -8    2   12     -0.83      0.00
   -8    2   11     -0.52      0.00
   -8    2   10     -0.47      0.00
   -8    2    9     -0.62      0.00
   -8    2    8     -0.78      0.00
   -8    2    6     -1.92      0.00
   -8    1   13      0.62      0.00
   -8    1   12      0.72      0.00
   -8    1   11      1.30      0.00
   -8    1   10      2.08      0.00
   -8    1    9      1.33      0.00
   -8    1    8      0.83      0.00
   -8    1    7      0.51      0.00
   -8    0   13     -0.27      0.00
   -8    0   12     -0.39      0.00
   -8    0   11     -0.32      0.00
   -8    0   10      1.03      0.00
   -8    0    9      0.39      0.00
   -8    0    8     -0.81      0.00
   -8    0    7     -1.49      0.00
   -8   -1   13      0.35      0.00
   -8   -1   12      0.99      0.00
   -8   -1   11      0.35      0.00
   -8   -1   10      0.81      0.00
   -8   -1    9      0.27      0.00
   -8   -1    8     -0.69      0.00
   -8   -1    7     -0.88      0.00
   -8   -2   13     -0.82      0.00
   -8   -2   12      0.08      0.00
   -8   -2   11     -0.17      0.00
   -8   -2   10      0.23      0.00
   -8   -2    9      0.51      0.00
   -8   -2    8      0.37      0.00
   -8   -2    7      0.50      0.00
   -8   -3   11      0.72      0.00
   -8   -3   10      0.19      0.00
   -8   -3    9     -0.38      0.00
   -8   -3    8     -0.98      0.00
   -8   -3    7     -0.07      0.00
   -8   -3    6     -0.21      0.00
   -8   -3    5     -0.43      0.00
   -8   -3    4      0.14      0.00
   -8   -3    3      0.52      0.00
   -8   -3    2     -0.78      0.00
   -8   -3    1     -1.43      0.00
    8    3    0      0.21      0.00
   -8   -4   11     -0.65      0.00
   -8   -4   10     -0.49      0.00
   -8   -4    9     -0.21      0.00
   -8   -4    8     -0.57      0.00
   -8   -4    7      0.43      0.00
   -8   -4    6      0.45      0.00
   -8   -4    5     -1.09      0.00
   -8   -4    4     -1.38      0.00
   -8   -4    3     -0.20      0.00
   -8   -4    2     -0.60      0.00
   -8   -4    1     -1.71      0.00
    8    4    0      0.76      0.00
   -8   -5   10      0.01      0.00
   -8   -5    9     -0.05      0.00
   -8   -5    8     -0.98      0.00
   -8   -5    7     -0.68      0.00
   -8   -5    6      0.04      0.00
   -8   -5    5     -0.60      0.00
   -8   -5    4     -1.06      0.00
   -8   -5    3     -0.20      0.00
   -8   -5    2     -0.24      0.00
   -8   -5    1     -2.44      0.00
    8    5    0     -1.63      0.00
   -8   -6    9      1.00      0.00
   -8   -6    8      0.57      0.00
   -8   -6    7      0.31      0.00
   -8   -6    6      0.56      0.00
   -8   -6    5      0.22      0.00
   -8   -6    4     -0.27      0.00
   -8   -6    3     -0.11      0.00
   -8   -6    2      0.80      0.00
   -8   -6    1      0.16      0.00
   -8   -7    6      0.67      0.00
   -8   -7    5      0.78      0.00
   -9    7    6      0.39      0.00
   -9    6    8      0.75      0.00
   -9    6    7      0.53      0.00
   -9    5    9      1.27      0.00
   -9    5    8      1.15      0.00
   -9    5    7      0.88      0.00
   -9    4   10      0.14      0.00
   -9    4    9      0.42      0.00
   -9    4    8      0.43      0.00
   -9    4    7      0.39      0.00
   -9    3   11      0.53      0.00
   -9    3   10      0.51      0.00
   -9    3    9      0.81      0.00
   -9    3    8      1.00      0.00
   -9    2   11      0.05      0.00
   -9    2   10      0.01      0.00
   -9    2    9     -0.51      0.00
   -9    2    8     -0.41      0.00
    9   -2    1      0.13      0.00
   -9    1   11      0.87      0.00
   -9    1   10      1.46      0.00
   -9    1    9      0.40      0.00
   -9    1    8      0.18      0.00
   -9    1    7      0.77      0.00
   -9    1    6      1.65      0.00
   -9    1    2     -0.53      0.00
   -9    1    0     -2.31      0.00
    9   -1    1     -1.36      0.00
   -9    0   12     -0.04      0.00
   -9    0   11      0.03      0.00
   -9    0   10      0.91      0.00
   -9    0    9     -0.21      0.00
   -9    0    8     -1.38      0.00
   -9    0    7     -1.36      0.00
   -9    0    6     -0.24      0.00
    9    0    1     -1.29      0.00
   -9   -1   11      0.05      0.00
   -9   -1   10      0.32      0.00
   -9   -1    9     -0.06      0.00
   -9   -1    8     -0.36      0.00
   -9   -1    7      0.08      0.00
   -9   -2   11     -0.12      0.00
   -9   -2   10      0.14      0.00
   -9   -2    9      0.03      0.00
   -9   -2    8     -0.12      0.00
   -9   -2    7      0.02      0.00
    9    2    1     -0.54      0.00
   -9   -3    9     -0.87      0.00
   -9   -3    8     -1.02      0.00
   -9   -3    7      0.14      0.00
   -9   -3    3      0.50      0.00
   -9   -3    2     -1.33      0.00
   -9   -3    1     -1.72      0.00
    9    3    0      0.04      0.00
    9    3    1     -0.40      0.00
   -9   -4    9     -0.35      0.00
   -9   -4    8     -0.97      0.00
   -9   -4    7     -0.44      0.00
   -9   -4    3      0.13      0.00
   -9   -4    2     -0.74      0.00
   -9   -4    1     -1.72      0.00
    9    4    0      0.47      0.00
    9    4    4     -0.32      0.00
    9    4    5     -0.36      0.00
   -9   -5    8     -1.37      0.00
   -9   -5    7     -1.01      0.00
   -9   -5    6     -0.31      0.00
   -9   -5    3     -0.37      0.00
   -9   -6    5     -0.20      0.00
  -10    6    6     -0.12      0.00
  -10    6    5      0.06      0.00
  -10    5    6     -0.22      0.00
  -10    4    8      0.19      0.00
  -10    4    7      0.28      0.00
  -10    3    9     -0.39      0.00
  -10    3    8     -0.12      0.00
  -10    3    7     -0.17      0.00
  -10    2    9     -0.65      0.00
  -10    2    8     -0.17      0.00
  -10    2    7      0.48      0.00
  -10    1   10      0.40      0.00
  -10    1    9     -0.65      0.00
  -10    1    8     -0.57      0.00
  -10    0    9     -0.55      0.00
  -10    0    8     -1.14      0.00
  -10    0    6      0.67      0.00
   10    0    1     -0.81      0.00
  -10   -1    9     -0.25      0.00
  -10   -1    8     -0.06      0.00
  -10   -1    7      0.38      0.00
  -10   -1    6      0.77      0.00
   10    1    1     -1.02      0.00
  -10   -2    9      0.04      0.00
  -10   -2    8      0.03      0.00
  -10   -2    7      0.38      0.00
  -10   -2    6     -0.01      0.00
   10    2    1     -0.09      0.00
   10    2    4     -0.26      0.00
   10    2    5     -0.55      0.00
  -10   -3    8     -0.54      0.00
  -10   -3    7      0.41      0.00
  -10   -3    6      0.23      0.00
   10    3    1      0.46      0.00
  -10   -4    6     -0.05      0.00
  -10   -4    5     -0.48      0.00
   10    4    0      0.63      0.00
  -11    3    6      0.20      0.00
  -11    2    6      1.34      0.00
  -11    1    7      0.34      0.00
  -11    0    7     -0.01      0.00
  -11   -2    5      0.64      0.00
   11    3    0      1.07      0.00
   10    5    0     -0.29      0.00
  -11    6    0     -0.11      0.00
    9    6    0     -0.36      0.00
  -10    7    0     -0.07      0.00
    9    7    0     -0.85      0.00
  -10    8    0      0.50      0.00
   -9    8    0      1.76      0.00
    8    8    0      1.04      0.00
   -9    9    0      0.56      0.00
    7    9    0      0.80      0.00
   -8   10    0      0.74      0.00
   -6   11    0      0.01      0.00
    4   11    0     -0.47      0.00
   -4   12    0      0.26      0.00
   -3   12    0      0.17      0.00
   -2   12    0     -0.05      0.00
   -1   12    0      0.10      0.00
    0   12    0      0.16      0.00
    1   12    0     -0.14      0.00
   -1  -12    1     -0.31      0.00
    0  -12    1     -0.02      0.00
    2  -12    1      0.12      0.00
    3  -12    1      0.34      0.00
    4  -12    1      0.23      0.00
   -4  -11    1     -0.63      0.00
    5  -11    1     -0.73      0.00
    6  -11    1     -0.28      0.00
   -6  -10    1     -1.07      0.00
    7  -10    1     -0.32      0.00
    8  -10    1      0.42      0.00
   -7   -9    1      0.63      0.00
    9   -9    1      0.06      0.00
   -8   -8    1      0.84      0.00
   -9   -7    1     -0.84      0.00
   10   -7    1     -0.10      0.00
   11   -6    1     -0.29      0.00
  -10   -5    1     -1.37      0.00
   11   -5    1     -0.38      0.00
  -11   -3    1      0.02      0.00
   -2    0    1      2.40      0.00
   11    3    1      0.84      0.00
  -11    5    1     -0.38      0.00
   10    5    1      0.51      0.00
  -11    6    1     -0.38      0.00
  -10    8    1      0.19      0.00
    8    8    1      1.05      0.00
   -9    9    1      0.28      0.00
    7    9    1      0.25      0.00
   -8   10    1      0.16      0.00
    5   10    1     -1.57      0.00
   -6   11    1      0.20      0.00
    1   11    1      0.34      0.00
    4   11    1      0.03      0.00
   -4   12    1      0.70      0.00
   -3   12    1      0.17      0.00
   -2   12    1     -0.25      0.00
   -1   12    1     -0.13      0.00
    0   12    1     -0.05      0.00
    1   12    1     -0.11      0.00
   -1  -12    2     -0.23      0.00
    0  -12    2      0.09      0.00
    1  -12    2      0.53      0.00
    2  -12    2      1.04      0.00
    3  -12    2      1.33      0.00
    4  -12    2      1.06      0.00
   -4  -11    2      0.73      0.00
    4  -11    2     -0.06      0.00
    6  -11    2      0.49      0.00
   -6  -10    2     -0.62      0.00
    8  -10    2      0.55      0.00
   -7   -9    2      0.37      0.00
    9   -9    2      0.28      0.00
   -8   -8    2      0.00      0.00
   -9   -7    2     -0.77      0.00
   10   -7    2     -0.32      0.00
  -10   -5    2     -0.40      0.00
   11   -5    2     -0.74      0.00
  -11   -3    2     -0.55      0.00
   11    2    2      0.08      0.00
   10    5    2     -0.38      0.00
  -11    6    2     -0.58      0.00
    9    6    2     -0.11      0.00
   -9    9    2      0.29      0.00
   -8   10    2     -0.51      0.00
    5   10    2     -1.61      0.00
   -6   11    2     -0.39      0.00
    3   11    2     -0.09      0.00
   -3   12    2     -0.08      0.00
   -2   12    2     -0.18      0.00
   -1   12    2      0.01      0.00
    0   12    2     -0.09      0.00
   -1  -12    3     -0.20      0.00
    0  -12    3     -0.01      0.00
    1  -12    3      0.36      0.00
    2  -12    3      0.63      0.00
    3  -12    3      0.55      0.00
    4  -12    3      0.20      0.00
   -4  -11    3      1.53      0.00
    6  -11    3     -0.08      0.00
   -6  -10    3      0.23      0.00
    7  -10    3     -0.48      0.00
   -7   -9    3      0.89      0.00
    8   -9    3      0.07      0.00
   -8   -8    3      0.00      0.00
    9   -8    3      1.34      0.00
   -9   -7    3     -0.58      0.00
   -8   -7    3      0.02      0.00
   10   -7    3     -0.24      0.00
  -10   -5    3      0.10      0.00
   11   -5    3     -0.10      0.00
   11   -4    3      0.58      0.00
  -11   -3    3      0.29      0.00
   11    1    3      1.14      0.00
   11    2    3      0.44      0.00
   10    4    3     -1.13      0.00
  -11    5    3      0.18      0.00
  -11    6    3     -0.02      0.00
    9    6    3     -1.01      0.00
  -10    7    3      0.49      0.00
    8    7    3      0.22      0.00
   -9    9    3      0.92      0.00
    6    9    3     -0.99      0.00
   -7   10    3     -0.74      0.00
    4   10    3     -1.30      0.00
    5   10    3     -1.40      0.00
   -6   11    3      0.47      0.00
   -5   11    3      1.23      0.00
    2   11    3     -0.36      0.00
    3   11    3     -0.32      0.00
   -2   12    3      0.27      0.00
   -1   12    3      0.31      0.00
   -1  -12    4     -0.21      0.00
    0  -12    4     -0.17      0.00
    1  -12    4      0.18      0.00
    2  -12    4      0.33      0.00
    3  -12    4      0.11      0.00
   -4  -11    4      1.49      0.00
   -3  -11    4      1.68      0.00
    3  -11    4     -2.13      0.00
    5  -11    4     -0.40      0.00
    6  -11    4     -0.09      0.00
   -6  -10    4      0.20      0.00
   -5  -10    4      0.42      0.00
    7  -10    4     -0.24      0.00
   -7   -9    4      0.61      0.00
    8   -9    4     -0.43      0.00
   -8   -8    4      0.18      0.00
    9   -8    4      0.30      0.00
   -9   -7    4      0.10      0.00
   -8   -7    4      0.74      0.00
   10   -7    4     -0.10      0.00
   10   -6    4      0.14      0.00
  -10   -5    4     -0.31      0.00
   11   -4    4      1.16      0.00
  -11   -3    4      0.31      0.00
   11   -3    4      0.48      0.00
  -11   -2    4      1.36      0.00
   11   -2    4      0.05      0.00
   11   -1    4     -0.72      0.00
   11    0    4      0.32      0.00
   11    1    4      0.58      0.00
   10    3    4      0.37      0.00
   10    4    4     -0.37      0.00
  -11    5    4      0.38      0.00
    9    5    4     -0.71      0.00
  -10    7    4      0.35      0.00
    8    7    4      0.60      0.00
   -9    8    4      1.10      0.00
    6    8    4      0.20      0.00
    7    8    4      0.75      0.00
   -8    9    4      0.63      0.00
    6    9    4     -0.93      0.00
   -7   10    4     -0.59      0.00
    4   10    4     -1.26      0.00
   -5   11    4      1.51      0.00
   -4   11    4      1.13      0.00
   -2   11    4      0.03      0.00
    2   11    4     -0.67      0.00
   -1  -12    5     -0.19      0.00
    0  -12    5      0.03      0.00
    1  -12    5      0.69      0.00
    2  -12    5      0.91      0.00
   -4  -11    5      1.24      0.00
   -3  -11    5      1.30      0.00
    2  -11    5     -1.04      0.00
    3  -11    5     -1.01      0.00
    4  -11    5     -0.49      0.00
    5  -11    5      0.05      0.00
    6  -10    5      0.49      0.00
    7  -10    5      0.62      0.00
   -7   -9    5      0.10      0.00
   -6   -9    5     -0.99      0.00
    7   -9    5      0.72      0.00
    8   -9    5      0.52      0.00
   -8   -8    5      0.08      0.00
    9   -8    5     -0.07      0.00
   -9   -7    5      0.24      0.00
   10   -6    5      0.22      0.00
  -10   -5    5      0.00      0.00
   10   -5    5      0.51      0.00
  -11   -3    5     -0.37      0.00
   11   -3    5      0.39      0.00
   11   -2    5      0.14      0.00
   11   -1    5     -0.81      0.00
   11    0    5     -0.06      0.00
   10    3    5      0.03      0.00
  -11    4    5      0.93      0.00
  -11    5    5     -0.11      0.00
    9    5    5     -0.39      0.00
    8    6    5      0.32      0.00
  -10    7    5     -0.30      0.00
   -9    8    5      0.36      0.00
   -8    9    5      0.30      0.00
   -7    9    5     -0.15      0.00
    5    9    5     -0.68      0.00
   -7   10    5     -0.83      0.00
   -6   10    5     -0.35      0.00
    4   10    5     -0.55      0.00
   -5   11    5      1.08      0.00
   -4   11    5      0.96      0.00
   -3   11    5      0.53      0.00
    0   11    5      0.04      0.00
    1   11    5     -0.62      0.00
   -3  -11    6      0.74      0.00
    1  -11    6     -0.53      0.00
    4  -11    6     -0.40      0.00
    5  -11    6     -0.01      0.00
   -5  -10    6     -0.89      0.00
    5  -10    6      0.40      0.00
    6  -10    6      0.18      0.00
   -6   -9    6     -1.64      0.00
    7   -9    6      0.93      0.00
    8   -9    6      0.71      0.00
   -8   -8    6      0.25      0.00
   -7   -8    6      0.63      0.00
    8   -8    6      0.50      0.00
    9   -7    6     -0.20      0.00
   -9   -6    6     -0.27      0.00
  -10   -5    6      0.09      0.00
   10   -5    6      0.02      0.00
   10   -4    6      0.93      0.00
  -11   -3    6      0.03      0.00
  -11   -2    6      0.14      0.00
  -11   -1    6      0.16      0.00
   10   -1    6     -0.60      0.00
  -11    0    6      0.84      0.00
  -11    1    6      0.50      0.00
   10    1    6      0.17      0.00
   10    2    6     -0.66      0.00
  -11    4    6      0.75      0.00
    9    4    6     -0.56      0.00
  -11    5    6     -0.30      0.00
    8    6    6      0.03      0.00
    7    7    6      1.24      0.00
   -9    8    6      0.28      0.00
    6    8    6      0.43      0.00
   -8    9    6      0.58      0.00
    4    9    6      0.13      0.00
    5    9    6      0.08      0.00
   -6   10    6     -0.11      0.00
    2   10    6     -0.37      0.00
    3   10    6      0.45      0.00
   -4   11    6      0.26      0.00
   -3   11    6     -0.15      0.00
   -2   11    6     -0.21      0.00
   -1   11    6      0.00      0.00
    0   11    6     -0.18      0.00
   -3  -11    7      0.60      0.00
   -2  -11    7     -0.11      0.00
    0  -11    7     -1.09      0.00
    3  -11    7     -0.71      0.00
    4  -11    7     -0.12      0.00
   -5  -10    7     -1.11      0.00
   -4  -10    7     -0.82      0.00
    4  -10    7      0.66      0.00
    5  -10    7      0.71      0.00
    6  -10    7      0.23      0.00
   -6   -9    7     -1.48      0.00
    6   -9    7      0.67      0.00
    7   -9    7      0.28      0.00
   -7   -8    7      0.73      0.00
    8   -8    7     -0.28      0.00
   -8   -7    7      0.46      0.00
    9   -7    7      0.38      0.00
   -9   -6    7     -0.43      0.00
  -10   -5    7     -0.40      0.00
  -10   -4    7     -0.30      0.00
   10   -4    7      0.24      0.00
   10   -3    7     -0.66      0.00
  -11   -2    7      0.39      0.00
  -11   -1    7      0.34      0.00
   10   -1    7      0.24      0.00
   10    0    7      0.86      0.00
   10    1    7      0.92      0.00
  -11    2    7      0.99      0.00
  -11    3    7      0.08      0.00
    8    3    7     -0.67      0.00
    9    3    7     -0.43      0.00
  -11    4    7      0.12      0.00
    9    4    7     -0.32      0.00
  -10    5    7     -0.55      0.00
   -8    5    7      2.04      0.00
    8    5    7     -0.85      0.00
  -10    6    7     -0.17      0.00
   -9    7    7      0.39      0.00
   -7    9    7      0.42      0.00
    4    9    7      0.27      0.00
   -6   10    7      0.03      0.00
   -5   10    7     -0.17      0.00
    1   10    7     -0.78      0.00
    2   10    7      0.49      0.00
   -2  -11    8     -0.22      0.00
   -1  -11    8     -1.03      0.00
    0  -11    8     -1.29      0.00
    1  -11    8     -0.90      0.00
    2  -11    8     -0.51      0.00
    3  -11    8     -0.29      0.00
   -4  -10    8     -0.63      0.00
    3  -10    8      0.40      0.00
    4  -10    8      0.81      0.00
    5  -10    8      0.72      0.00
   -6   -9    8     -0.67      0.00
   -5   -9    8     -0.71      0.00
    6   -9    8      0.86      0.00
    7   -9    8      0.22      0.00
   -7   -8    8      1.50      0.00
   -6   -8    8      0.74      0.00
    8   -8    8     -1.27      0.00
   -8   -7    8      0.84      0.00
   -9   -6    8     -0.29      0.00
    9   -6    8      0.03      0.00
  -10   -4    8     -0.58      0.00
   10   -3    8     -0.43      0.00
   10   -2    8      0.00      0.00
  -11   -1    8      0.23      0.00
   10   -1    8      0.12      0.00
  -11    0    8     -0.60      0.00
  -11    1    8     -0.35      0.00
    9    1    8      1.29      0.00
  -11    2    8      0.11      0.00
    9    2    8     -0.45      0.00
  -11    3    8     -0.02      0.00
    9    3    8     -0.18      0.00
  -10    5    8     -0.40      0.00
    8    5    8     -0.51      0.00
    7    6    8     -0.08      0.00
   -9    7    8      0.39      0.00
    6    7    8      0.78      0.00
   -8    8    8     -0.39      0.00
    5    8    8     -0.03      0.00
   -7    9    8     -0.19      0.00
    3    9    8      0.25      0.00
   -5   10    8     -0.55      0.00
   -4   10    8     -0.13      0.00
   -3   10    8      0.53      0.00
   -2   10    8      0.08      0.00
   -1   10    8     -0.97      0.00
    0   10    8     -1.02      0.00
    1   10    8     -0.09      0.00
   -1  -11    9     -1.18      0.00
    0  -11    9     -1.09      0.00
    1  -11    9     -0.21      0.00
    2  -11    9      0.37      0.00
   -4  -10    9     -0.77      0.00
   -3  -10    9      0.41      0.00
    2  -10    9      0.43      0.00
    3  -10    9      0.54      0.00
    4  -10    9      0.27      0.00
    5  -10    9     -0.06      0.00
   -5   -9    9     -0.85      0.00
    5   -9    9      0.86      0.00
    6   -9    9      1.08      0.00
   -7   -8    9      1.46      0.00
   -6   -8    9      0.47      0.00
    7   -8    9     -1.21      0.00
   -8   -7    9      1.13      0.00
   -7   -7    9      1.77      0.00
    8   -7    9     -0.59      0.00
    8   -6    9     -1.24      0.00
   -9   -5    9     -0.84      0.00
    9   -5    9     -0.79      0.00
    9   -4    9      0.01      0.00
  -10   -3    9     -0.52      0.00
    9    0    9     -0.28      0.00
    9    1    9      0.76      0.00
  -10    4    9      0.29      0.00
    8    4    9      0.26      0.00
  -10    5    9     -0.14      0.00
    7    5    9     -0.67      0.00
   -9    6    9      0.74      0.00
    5    7    9      0.41      0.00
   -7    8    9     -1.24      0.00
    3    8    9      0.93      0.00
    4    8    9     -0.09      0.00
   -6    9    9     -1.31      0.00
    0    9    9      1.54      0.00
    1    9    9      0.53      0.00
    2    9    9      0.06      0.00
   -3   10    9      0.72      0.00
   -2   10    9      0.22      0.00
   -1   10    9     -0.55      0.00
   -3  -10   10      0.66      0.00
   -2  -10   10      0.53      0.00
    1  -10   10      0.52      0.00
    2  -10   10      1.00      0.00
    3  -10   10      0.51      0.00
    4  -10   10     -0.23      0.00
   -5   -9   10     -0.66      0.00
    4   -9   10     -0.09      0.00
    5   -9   10      0.67      0.00
   -6   -8   10     -0.05      0.00
    6   -8   10     -0.45      0.00
   -7   -7   10      1.13      0.00
    7   -7   10      0.93      0.00
   -8   -6   10      0.43      0.00
    7   -6   10     -0.98      0.00
    8   -6   10     -0.62      0.00
   -9   -5   10     -0.91      0.00
    8   -5   10     -0.35      0.00
   -9   -4   10     -0.51      0.00
   -9   -3   10     -0.50      0.00
    9   -3   10      0.29      0.00
  -10   -2   10      0.37      0.00
    9   -2   10      0.14      0.00
  -10   -1   10     -0.02      0.00
    9   -1   10      0.32      0.00
  -10    0   10      0.55      0.00
  -10    2   10      0.05      0.00
    8    2   10     -0.46      0.00
  -10    3   10     -0.42      0.00
    8    3   10      0.04      0.00
  -10    4   10      0.23      0.00
    7    4   10      0.44      0.00
   -9    5   10      1.33      0.00
   -8    6   10     -0.16      0.00
   -8    7   10      0.87      0.00
   -6    8   10     -0.92      0.00
    3    8   10     -0.13      0.00
   -5    9   10     -0.29      0.00
   -4    9   10      0.27      0.00
   -3    9   10      0.30      0.00
   -2    9   10      0.64      0.00
   -1    9   10      1.34      0.00
    0    9   10      0.93      0.00
    1    9   10     -0.21      0.00
   -2  -10   11      0.78      0.00
   -1  -10   11     -0.14      0.00
    0  -10   11     -0.42      0.00
    1  -10   11      0.15      0.00
    2  -10   11      0.50      0.00
   -4   -9   11      0.21      0.00
   -2   -9   11      0.71      0.00
    3   -9   11     -0.37      0.00
    4   -9   11      0.13      0.00
   -5   -8   11     -1.24      0.00
    5   -8   11     -1.18      0.00
    6   -8   11     -1.01      0.00
   -7   -7   11      0.87      0.00
   -6   -7   11     -0.02      0.00
   -7   -6   11      1.31      0.00
    6   -6   11      0.08      0.00
    7   -6   11      0.08      0.00
   -8   -5   11      0.09      0.00
   -9   -4   11     -0.85      0.00
    8   -4   11     -0.05      0.00
   -9   -3   11     -0.24      0.00
    8   -3   11      1.28      0.00
    8   -2   11     -0.05      0.00
  -10   -1   11     -0.16      0.00
    8   -1   11      1.02      0.00
  -10    0   11      0.30      0.00
    8    0   11     -0.34      0.00
  -10    1   11      0.17      0.00
    8    1   11      0.62      0.00
  -10    2   11      0.38      0.00
    7    2   11     -0.35      0.00
    7    3   11     -0.35      0.00
   -9    4   11     -0.16      0.00
    6    5   11     -0.49      0.00
   -8    6   11     -0.51      0.00
   -7    6   11     -1.52      0.00
    5    6   11     -0.44      0.00
   -7    7   11     -0.50      0.00
    3    7   11     -0.54      0.00
   -5    8   11     -0.46      0.00
   -4    8   11      0.69      0.00
   -1    8   11     -1.14      0.00
    0    8   11     -0.70      0.00
    1    8   11      0.18      0.00
    2    8   11      0.35      0.00
   -2    9   11     -0.08      0.00
   -3   -9   12      0.71      0.00
   -2   -9   12      0.37      0.00
   -1   -9   12     -0.35      0.00
    0   -9   12     -0.44      0.00
    1   -9   12     -0.20      0.00
    2   -9   12     -0.04      0.00
    3   -9   12      0.34      0.00
   -5   -8   12     -1.00      0.00
   -3   -8   12      0.84      0.00
    4   -8   12     -0.52      0.00
    5   -8   12     -1.01      0.00
   -6   -7   12     -0.30      0.00
    6   -7   12     -0.01      0.00
   -7   -6   12      0.91      0.00
    5   -6   12     -1.41      0.00
    6   -6   12     -0.77      0.00
   -8   -5   12     -0.16      0.00
   -7   -5   12     -0.15      0.00
    7   -5   12      1.26      0.00
   -8   -4   12     -0.88      0.00
    7   -4   12      0.37      0.00
   -9   -3   12      0.25      0.00
   -8   -3   12      0.81      0.00
   -9   -2   12      0.03      0.00
   -9   -1   12      0.73      0.00
    7    0   12     -0.65      0.00
   -9    1   12      0.29      0.00
    7    1   12      0.53      0.00
   -9    2   12     -0.49      0.00
    7    2   12     -0.27      0.00
   -9    3   12      0.48      0.00
    6    3   12     -0.48      0.00
   -8    4   12     -0.93      0.00
   -8    5   12      0.74      0.00
    5    5   12     -0.33      0.00
   -7    6   12     -1.39      0.00
   -6    6   12     -0.73      0.00
    4    6   12     -0.83      0.00
   -6    7   12     -0.81      0.00
   -5    7   12      0.13      0.00
   -3    7   12     -0.17      0.00
   -2    7   12      0.35      0.00
    0    7   12      0.30      0.00
    2    7   12     -1.62      0.00
   -4    8   12      1.04      0.00
   -3    8   12      0.93      0.00
   -2    8   12     -0.20      0.00
   -1    8   12     -0.81      0.00
    0    8   12     -0.40      0.00
   -1   -9   13     -0.57      0.00
    0   -9   13     -0.36      0.00
   -4   -8   13     -0.17      0.00
   -3   -8   13      1.02      0.00
   -2   -8   13      1.10      0.00
    2   -8   13      0.69      0.00
    3   -8   13      0.23      0.00
   -5   -7   13     -0.40      0.00
   -4   -7   13      0.18      0.00
    4   -7   13      0.64      0.00
    5   -7   13      0.42      0.00
   -6   -6   13      0.73      0.00
    5   -6   13     -1.37      0.00
   -7   -5   13     -0.59      0.00
    6   -5   13     -0.15      0.00
    6   -4   13      0.08      0.00
   -8   -3   13     -0.26      0.00
    6   -3   13      0.68      0.00
    6   -2   13     -0.69      0.00
    7   -2   13     -0.72      0.00
    7   -1   13     -0.38      0.00
   -9    0   13     -0.02      0.00
    6    1   13     -0.29      0.00
    6    2   13     -0.41      0.00
   -8    3   13     -0.18      0.00
    5    3   13     -0.46      0.00
   -8    4   13     -0.69      0.00
   -7    4   13     -0.95      0.00
    5    4   13      0.11      0.00
   -7    5   13     -0.64      0.00
   -6    5   13     -0.87      0.00
    4    5   13      0.05      0.00
   -6    6   13     -0.16      0.00
   -5    6   13      1.22      0.00
   -1    6   13     -0.76      0.00
    1    6   13     -0.28      0.00
    2    6   13      0.11      0.00
   -4    7   13     -0.14      0.00
   -3    7   13     -0.92      0.00
   -2    7   13     -0.31      0.00
   -1    7   13      0.46      0.00
    0    7   13     -0.31      0.00
    1    7   13     -1.20      0.00
   -2   -8   14      0.93      0.00
   -1   -8   14     -0.07      0.00
    0   -8   14     -0.79      0.00
    1   -8   14     -0.60      0.00
   -4   -7   14      0.64      0.00
   -3   -7   14      0.79      0.00
    3   -7   14     -0.01      0.00
   -5   -6   14      0.53      0.00
    2   -6   14      0.67      0.00
    4   -6   14     -0.28      0.00
   -6   -5   14      0.03      0.00
   -5   -5   14      0.67      0.00
    5   -5   14      0.10      0.00
   -7   -4   14      0.87      0.00
   -5   -4   14      1.09      0.00
    5   -4   14     -0.79      0.00
   -7   -3   14     -0.67      0.00
    6   -3   14     -0.23      0.00
   -7   -2   14      0.41      0.00
    4   -2   14     -0.31      0.00
    5   -2   14     -0.47      0.00
    6   -2   14     -0.32      0.00
   -8   -1   14      0.03      0.00
   -7   -1   14     -0.65      0.00
    6   -1   14     -0.09      0.00
   -8    0   14     -0.18      0.00
    5    0   14      0.20      0.00
   -8    1   14      0.33      0.00
    5    1   14      0.88      0.00
    5    2   14      0.13      0.00
   -7    3   14     -1.85      0.00
    4    3   14      0.06      0.00
   -7    4   14     -0.83      0.00
   -6    4   14      0.51      0.00
    3    4   14     -0.13      0.00
   -6    5   14     -0.45      0.00
   -5    5   14      0.69      0.00
   -4    5   14      0.90      0.00
   -3    5   14      0.76      0.00
   -2    5   14      1.62      0.00
    2    5   14     -1.36      0.00
   -4    6   14      1.59      0.00
   -3    6   14      0.66      0.00
   -2    6   14     -0.14      0.00
   -1    6   14     -0.55      0.00
    0    6   14     -0.47      0.00
    1    6   14      0.07      0.00
   -2   -7   15     -0.95      0.00
   -1   -7   15     -0.98      0.00
    0   -7   15     -0.26      0.00
    1   -7   15     -0.17      0.00
   -4   -6   15      0.11      0.00
   -3   -6   15      0.57      0.00
   -2   -6   15      0.34      0.00
   -1   -6   15     -0.56      0.00
    0   -6   15     -1.00      0.00
    2   -6   15      0.29      0.00
    3   -6   15      0.09      0.00
   -5   -5   15      1.16      0.00
   -4   -5   15      2.29      0.00
    3   -5   15      1.22      0.00
    4   -5   15      1.49      0.00
   -6   -4   15      1.32      0.00
    4   -4   15      0.86      0.00
   -6   -3   15     -1.17      0.00
   -7   -2   15      0.43      0.00
   -6   -2   15     -0.06      0.00
    3   -2   15     -0.48      0.00
    4   -2   15     -0.49      0.00
    5   -2   15     -0.65      0.00
   -7   -1   15     -0.77      0.00
   -6   -1   15     -1.71      0.00
    4   -1   15     -0.11      0.00
    5   -1   15     -0.39      0.00
   -7    0   15      0.33      0.00
    4    0   15      0.12      0.00
   -7    1   15      0.20      0.00
    3    1   15      1.46      0.00
    4    1   15      1.65      0.00
   -6    2   15      1.05      0.00
    4    2   15      0.73      0.00
   -6    3   15     -0.31      0.00
   -5    3   15      0.36      0.00
    3    3   15      0.21      0.00
   -5    4   15      1.37      0.00
   -4    4   15      0.29      0.00
   -3    4   15     -0.60      0.00
   -2    4   15     -0.19      0.00
    1    4   15      0.33      0.00
    2    4   15      0.51      0.00
   -4    5   15      0.07      0.00
   -3    5   15      0.04      0.00
   -2    5   15      1.00      0.00
   -1    5   15      1.18      0.00
    0    5   15     -0.02      0.00
   -3   -5   16      0.35      0.00
   -2   -5   16     -0.81      0.00
   -1   -5   16     -0.70      0.00
    0   -5   16      0.26      0.00
    1   -5   16      0.46      0.00
    2   -5   16      0.34      0.00
   -4   -4   16      0.26      0.00
   -3   -4   16      0.23      0.00
   -2   -4   16      0.14      0.00
   -1   -4   16      0.12      0.00
    2   -4   16      1.40      0.00
   -5   -3   16      0.49      0.00
   -4   -3   16      1.61      0.00
   -3   -3   16      1.42      0.00
   -2   -3   16      0.57      0.00
    3   -3   16      2.07      0.00
   -5   -2   16     -0.10      0.00
   -4   -2   16     -0.15      0.00
   -3   -2   16     -0.03      0.00
   -2   -2   16      0.62      0.00
   -1   -2   16      1.14      0.00
    0   -2   16      0.77      0.00
    1   -2   16      0.24      0.00
    2   -2   16      0.46      0.00
    3   -2   16      0.86      0.00
   -6   -1   16     -1.03      0.00
   -5   -1   16     -0.28      0.00
   -3   -1   16      0.37      0.00
   -2   -1   16      0.22      0.00
    3   -1   16      0.22      0.00
   -6    0   16     -0.60      0.00
   -5    0   16     -0.48      0.00
   -4    0   16     -0.50      0.00
    2    0   16     -1.02      0.00
    3    0   16     -0.45      0.00
   -5    1   16      0.07      0.00
    2    1   16     -0.37      0.00
    3    1   16      0.48      0.00
   -5    2   16      0.17      0.00
   -4    2   16     -0.53      0.00
   -3    2   16     -0.70      0.00
    0    2   16     -0.50      0.00
    1    2   16     -0.52      0.00
    2    2   16     -0.01      0.00
   -4    3   16      0.12      0.00
   -3    3   16      0.02      0.00
   -2    3   16      0.14      0.00
   -1    3   16     -0.39      0.00
    0    3   16     -1.43      0.00
    1    3   16     -1.73      0.00
   -2    4   16     -0.05      0.00
   -1    4   16      0.02      0.00
    0    0    0      0.00      0.00
# SQUEEZE RESULTS (Version =  71116)
# Note: Data are Listed for all Voids in the P1 Unit Cell
# i.e. Centre of Gravity, Solvent Accessible Volume,
# Recovered number of Electrons in the Void and
# Details about the Squeezed Material
loop_
  _platon_squeeze_void_nr
  _platon_squeeze_void_average_x
  _platon_squeeze_void_average_y
  _platon_squeeze_void_average_z
  _platon_squeeze_void_volume
  _platon_squeeze_void_count_electrons
  _platon_squeeze_void_content
   1  0.000  0.047  0.000       212        65 ' '
# Missing Reflections Below sin(th)/lambda = 0.25
loop_
  _platon_missing_refln_index_h
  _platon_missing_refln_index_k
  _platon_missing_refln_index_l
  _platon_missing_refln_theta
   -2    0    1     9.911
_platon_squeeze_void_probe_radius                  1.20
_platon_squeeze_details
)
TITL SIR92 run in space group  P-1
CELL    9.2411    9.5189   13.3940     94.71     96.18     96.11
SPGR P-1
# Solvent Accessible Volume =       212
# Electrons Found in S.A.V. =        65
# Note: Atoms in Void as Cxxx and Qxxx all others
Q101 0.808 0.028 0.019 !       4.72 eA-3
Q102 0.166 0.447 0.007 !       4.69 eA-3
Q103 0.029 0.803 0.013 !       3.23 eA-3
Q104 0.119 0.489 0.052 !       2.91 eA-3
C105 0.064 0.059 0.157 !       2.75 eA-3
Q106 0.186 0.561 0.077 !       2.54 eA-3
Q107 0.014 0.873 0.251 !       2.46 eA-3
C108 0.019 0.901 0.291 !       2.35 eA-3
Q109 0.951 0.882 0.235 !       2.34 eA-3
Q110 0.255 0.774 0.256 !       2.31 eA-3
Q111 0.029 0.906 0.410 !       2.25 eA-3
Q112 0.552 0.278 0.279 !       2.13 eA-3
Q113 0.842 0.822 0.149 !       2.12 eA-3
Q114 0.568 0.777 0.122 !       1.88 eA-3
Q115 0.201 0.689 0.212 !       1.84 eA-3
Q116 0.140 0.471 0.139 !       1.83 eA-3
Q117 0.088 0.335 0.115 !       1.78 eA-3
Q118 0.740 0.726 0.045 !       1.72 eA-3
Q119 0.035 0.973 0.227 !       1.71 eA-3
Q120 0.617 0.284 0.222 !       1.61 eA-3
Q121 0.526 0.964 0.182 !       1.54 eA-3
Q122 0.504 0.219 0.395 !       1.41 eA-3
Q123 0.712 0.443 0.394 !       1.40 eA-3
Q124 0.626 0.866 0.434 !       1.28 eA-3
Q125 0.594 0.282 0.007 !       1.28 eA-3
Q126 0.772 0.807 0.095 !       1.26 eA-3
Q127 0.119 0.376 0.465 !       1.25 eA-3
Q128 0.563 0.622 0.196 !       1.25 eA-3
Q129 0.656 0.343 0.261 !       1.24 eA-3
Q130 0.137 0.115 0.211 !       1.22 eA-3
Q131 0.260 0.292 0.173 !       1.22 eA-3
Q132 0.212 0.476 0.425 !       1.19 eA-3
Q133 0.832 0.960 0.099 !       1.17 eA-3
Q134 0.738 0.343 0.246 !       1.14 eA-3
Q135 0.603 0.290 0.160 !       1.11 eA-3
Q136 0.936 0.406 0.187 !       1.08 eA-3
Q137 0.591 0.496 0.219 !       1.07 eA-3
Q138 0.560 0.066 0.209 !       1.05 eA-3
Q139 0.845 0.870 0.105 !       1.05 eA-3
Q140 0.544 0.287 0.484 !       1.04 eA-3
Q141 0.835 0.561 0.377 !       1.03 eA-3
Q142 0.831 0.363 0.215 !       1.03 eA-3
Q143 0.468 0.717 0.443 !       1.02 eA-3
Q144 0.390 0.131 0.375 !       0.99 eA-3
Q145 0.851 0.099 0.380 !       0.95 eA-3
Q146 0.526 0.781 0.424 !       0.92 eA-3
Q147 0.385 0.290 0.207 !       0.92 eA-3
Q148 0.790 0.193 0.323 !       0.91 eA-3
Q149 0.601 0.287 0.088 !       0.89 eA-3
Q150 0.896 0.655 0.442 !       0.88 eA-3
Q151 0.670 0.414 0.486 !       0.82 eA-3
Q152 0.314 0.059 0.475 !       0.82 eA-3
Q153 0.369 0.123 0.474 !       0.65 eA-3
C154 0.102 1.005 0.102 !       0.60 eA-3
Q155 0.049 0.190 0.057 !       0.60 eA-3
Q156 0.500 0.304 0.186 !       0.54 eA-3
Q157 0.743 0.941 0.376 !       0.53 eA-3
)
;
_shelx_fab_checksum              22368
loop_
_space_group_symop_operation_xyz
'x, y, z'
'-x, -y, -z'
loop_
_atom_site_label
_atom_site_type_symbol
_atom_site_fract_x
_atom_site_fract_y
_atom_site_fract_z
_atom_site_U_iso_or_equiv
_atom_site_adp_type
_atom_site_occupancy
_atom_site_site_symmetry_order
_atom_site_calc_flag
_atom_site_refinement_flags_posn
_atom_site_refinement_flags_adp
_atom_site_refinement_flags_occupancy
_atom_site_disorder_assembly
_atom_site_disorder_group
W1 W 0.61913(2) 0.29748(2) 0.26161(2) 0.02598(11) Uani 1 1 d . . . . .
O1 O 0.7912(4) 0.2917(4) -0.2040(3) 0.0323(8) Uani 1 1 d . . . . .
N1 N 0.5085(6) 0.2327(6) 0.3919(3) 0.0381(12) Uani 1 1 d . . . . .
N2 N 0.7171(6) 0.4452(6) 0.3942(4) 0.0426(13) Uani 1 1 d . . . . .
N6 N 0.5893(8) 0.2626(6) 0.0133(4) 0.0483(14) Uani 1 1 d . . . . .
N5 N 0.2690(7) 0.3002(9) 0.1873(6) 0.068(2) Uani 1 1 d . . . . .
N3 N 0.9351(7) 0.3928(7) 0.1830(5) 0.0572(16) Uani 1 1 d . . . . .
N4 N 0.8603(7) 0.1160(6) 0.3795(5) 0.0491(14) Uani 1 1 d . . . . .
N7 N 0.5203(6) -0.0395(5) 0.1857(4) 0.0392(11) Uani 1 1 d . . . . .
N8 N 0.5611(7) 0.6140(5) 0.1937(4) 0.0406(12) Uani 1 1 d . . . . .
C11 C 0.8255(7) 0.3599(7) 0.2109(5) 0.0385(13) Uani 1 1 d . . . . .
C14 C 0.5987(7) 0.2737(6) 0.0996(4) 0.0324(12) Uani 1 1 d . . . . .
C3 C 0.8154(8) 0.5572(7) 0.3907(6) 0.0523(19) Uani 1 1 d . . . . .
H3 H 0.841255 0.581383 0.327013 0.063 Uiso 1 1 calc R U . . .
C10 C 0.3959(8) 0.1287(7) 0.3862(5) 0.0453(16) Uani 1 1 d . . . . .
H10 H 0.357397 0.083332 0.321555 0.054 Uiso 1 1 calc R U . . .
C4 C 0.8814(11) 0.6398(10) 0.4775(6) 0.0751(18) Uani 1 1 d . . . . .
H4 H 0.951983 0.718742 0.473676 0.090 Uiso 1 1 calc R U . . .
C6 C 0.7423(11) 0.4935(10) 0.5752(7) 0.0751(18) Uani 1 1 d . . . . .
H6 H 0.715872 0.469431 0.638814 0.090 Uiso 1 1 calc R U . . .
C1 C 0.5634(9) 0.2976(8) 0.4853(4) 0.0481(18) Uani 1 1 d . . . . .
C9 C 0.3331(10) 0.0842(10) 0.4693(6) 0.064(2) Uani 1 1 d . . . . .
H9 H 0.252623 0.011737 0.460779 0.077 Uiso 1 1 calc R U . . .
C12 C 0.7789(7) 0.1770(6) 0.3372(4) 0.0354(13) Uani 1 1 d . . . . .
C2 C 0.6769(9) 0.4126(8) 0.4862(5) 0.052(2) Uani 1 1 d . . . . .
C15 C 0.5556(6) 0.0778(6) 0.2109(4) 0.0280(10) Uani 1 1 d . . . . .
C16 C 0.5826(7) 0.5060(6) 0.2188(4) 0.0326(12) Uani 1 1 d . . . . .
C7 C 0.5001(13) 0.2530(12) 0.5711(5) 0.078(4) Uani 1 1 d . . . . .
H7 H 0.536708 0.299159 0.635890 0.094 Uiso 1 1 calc R U . . .
C8 C 0.3872(12) 0.1448(11) 0.5629(7) 0.070(3) Uani 1 1 d . . . . .
H8 H 0.348271 0.113322 0.621031 0.084 Uiso 1 1 calc R U . . .
C5 C 0.8412(11) 0.6036(10) 0.5700(6) 0.0751(18) Uani 1 1 d . . . . .
H5 H 0.885058 0.658417 0.630236 0.090 Uiso 1 1 calc R U . . .
C13 C 0.3903(7) 0.2989(7) 0.2151(5) 0.0391(13) Uani 1 1 d . . . . .
Li1 Li 0.5716(19) 0.2400(16) -0.1413(11) 0.068(4) Uani 1 1 d . . . . .
Li2 Li 0.2167(18) 0.2016(15) -0.1063(16) 0.083(6) Uani 1 1 d . . . . .
loop_
_atom_site_aniso_label
_atom_site_aniso_U_11
_atom_site_aniso_U_22
_atom_site_aniso_U_33
_atom_site_aniso_U_23
_atom_site_aniso_U_13
_atom_site_aniso_U_12
W1 0.03809(16) 0.02436(15) 0.01533(14) -0.00286(9) -0.00290(9) 0.01265(10)
O1 0.045(2) 0.037(2) 0.0164(17) 0.0058(15) -0.0007(15) 0.0131(17)
N1 0.060(3) 0.040(3) 0.021(2) 0.007(2) 0.008(2) 0.031(2)
N2 0.058(3) 0.039(3) 0.027(2) -0.017(2) -0.018(2) 0.026(2)
N6 0.087(4) 0.036(3) 0.025(3) 0.001(2) 0.003(3) 0.023(3)
N5 0.044(3) 0.089(5) 0.078(5) 0.046(4) 0.004(3) 0.015(3)
N3 0.043(3) 0.061(4) 0.068(4) 0.003(3) 0.006(3) 0.011(3)
N4 0.057(3) 0.039(3) 0.048(3) 0.000(2) -0.016(3) 0.015(3)
N7 0.056(3) 0.032(3) 0.029(2) 0.001(2) -0.002(2) 0.009(2)
N8 0.064(3) 0.031(3) 0.027(2) 0.002(2) 0.001(2) 0.014(2)
C11 0.036(3) 0.039(3) 0.042(3) 0.000(3) 0.005(2) 0.011(2)
C14 0.052(3) 0.029(3) 0.015(2) 0.001(2) 0.000(2) 0.009(2)
C3 0.056(4) 0.033(3) 0.061(4) -0.019(3) -0.023(3) 0.020(3)
C10 0.064(4) 0.040(3) 0.041(3) 0.017(3) 0.017(3) 0.027(3)
C4 0.092(4) 0.067(3) 0.059(3) -0.037(3) -0.042(3) 0.054(3)
C6 0.092(4) 0.067(3) 0.059(3) -0.037(3) -0.042(3) 0.054(3)
C1 0.077(5) 0.058(4) 0.016(3) -0.003(3) 0.002(3) 0.048(4)
C9 0.083(6) 0.073(5) 0.057(5) 0.035(4) 0.040(4) 0.054(5)
C12 0.047(3) 0.034(3) 0.025(3) -0.005(2) -0.009(2) 0.021(3)
C2 0.081(5) 0.053(4) 0.023(3) -0.014(3) -0.017(3) 0.050(4)
C15 0.041(3) 0.027(3) 0.016(2) 0.0004(19) -0.0005(19) 0.010(2)
C16 0.049(3) 0.029(3) 0.020(2) -0.002(2) -0.002(2) 0.017(2)
C7 0.129(9) 0.106(8) 0.020(3) 0.013(4) 0.013(4) 0.092(7)
C8 0.095(7) 0.087(7) 0.053(5) 0.039(5) 0.042(5) 0.067(6)
C5 0.092(4) 0.067(3) 0.059(3) -0.037(3) -0.042(3) 0.054(3)
C13 0.039(3) 0.046(3) 0.037(3) 0.016(3) 0.001(2) 0.016(3)
Li1 0.094(11) 0.051(8) 0.054(8) 0.002(6) -0.005(7) 0.009(7)
Li2 0.071(9) 0.047(7) 0.147(16) 0.009(8) 0.083(11) 0.004(6)
loop_
_atom_type_symbol
_atom_type_description
_atom_type_scat_dispersion_real
_atom_type_scat_dispersion_imag
_atom_type_scat_source
C C 0.0181 0.0091 'International Tables Vol C Tables 4.2.6.8 and 6.1.1.4'
H H 0.0000 0.0000 'International Tables Vol C Tables 4.2.6.8 and 6.1.1.4'
Li Li 0.0008 0.0003 'International Tables Vol C Tables 4.2.6.8 and 6.1.1.4'
N N 0.0311 0.0180 'International Tables Vol C Tables 4.2.6.8 and 6.1.1.4'
O O 0.0492 0.0322 'International Tables Vol C Tables 4.2.6.8 and 6.1.1.4'
W W -5.4734 5.5774 'International Tables Vol C Tables 4.2.6.8 and 6.1.1.4'
loop_
_geom_angle_atom_site_label_1
_geom_angle_atom_site_label_2
_geom_angle_atom_site_label_3
_geom_angle
_geom_angle_site_symmetry_1
_geom_angle_site_symmetry_3
_geom_angle_publ_flag
C11 W1 C13 139.3(2) . . ?
C11 W1 C15 108.2(2) . . ?
C13 W1 C15 79.1(2) . . ?
C11 W1 C14 70.1(2) . . ?
C13 W1 C14 75.1(2) . . ?
C15 W1 C14 71.4(2) . . ?
C11 W1 C16 80.3(2) . . ?
C13 W1 C16 71.2(2) . . ?
C15 W1 C16 140.3(2) . . ?
C14 W1 C16 75.8(2) . . ?
C11 W1 C12 72.8(2) . . ?
C13 W1 C12 143.7(2) . . ?
C15 W1 C12 72.8(2) . . ?
C14 W1 C12 115.6(2) . . ?
C16 W1 C12 143.8(2) . . ?
C11 W1 N1 144.9(2) . . ?
C13 W1 N1 75.0(2) . . ?
C15 W1 N1 81.0(2) . . ?
C14 W1 N1 142.5(2) . . ?
C16 W1 N1 114.71(19) . . ?
C12 W1 N1 78.2(2) . . ?
C11 W1 N2 81.4(2) . . ?
C13 W1 N2 116.9(2) . . ?
C15 W1 N2 143.56(19) . . ?
C14 W1 N2 142.1(2) . . ?
C16 W1 N2 75.2(2) . . ?
C12 W1 N2 77.10(19) . . ?
N1 W1 N2 73.0(2) . . ?
C10 N1 C1 117.8(6) . . ?
C10 N1 W1 124.5(4) . . ?
C1 N1 W1 117.5(5) . . ?
C3 N2 C2 118.9(6) . . ?
C3 N2 W1 124.6(5) . . ?
C2 N2 W1 116.4(5) . . ?
C14 N6 Li1 179.3(7) . . ?
C15 N7 Li1 171.8(7) . 2_655 ?
C16 N8 Li1 153.9(7) . 2_665 ?
N3 C11 W1 179.4(7) . . ?
N6 C14 W1 179.0(6) . . ?
N2 C3 C4 122.0(9) . . ?
N2 C3 H3 119.0 . . ?
C4 C3 H3 119.0 . . ?
N1 C10 C9 123.7(8) . . ?
N1 C10 H10 118.1 . . ?
C9 C10 H10 118.1 . . ?
C5 C4 C3 118.2(10) . . ?
C5 C4 H4 120.9 . . ?
C3 C4 H4 120.9 . . ?
C5 C6 C2 119.7(10) . . ?
C5 C6 H6 120.2 . . ?
C2 C6 H6 120.2 . . ?
N1 C1 C7 119.0(9) . . ?
N1 C1 C2 115.4(6) . . ?
C7 C1 C2 125.5(8) . . ?
C8 C9 C10 119.6(10) . . ?
C8 C9 H9 120.2 . . ?
C10 C9 H9 120.2 . . ?
N4 C12 W1 177.7(6) . . ?
N2 C2 C6 120.3(9) . . ?
N2 C2 C1 116.7(5) . . ?
C6 C2 C1 122.9(8) . . ?
N7 C15 W1 178.5(5) . . ?
N8 C16 W1 178.0(5) . . ?
C8 C7 C1 121.6(8) . . ?
C8 C7 H7 119.2 . . ?
C1 C7 H7 119.2 . . ?
C9 C8 C7 118.1(7) . . ?
C9 C8 H8 121.0 . . ?
C7 C8 H8 121.0 . . ?
C6 C5 C4 120.8(8) . . ?
C6 C5 H5 119.6 . . ?
C4 C5 H5 119.6 . . ?
N5 C13 W1 177.9(6) . . ?
N7 Li1 N6 106.8(7) 2_655 . ?
N7 Li1 N8 111.1(8) 2_655 2_665 ?
N6 Li1 N8 107.7(8) . 2_665 ?
N7 Li1 O1 112.3(7) 2_655 . ?
N6 Li1 O1 113.3(8) . . ?
N8 Li1 O1 105.7(7) 2_665 . ?
N7 Li1 Li2 69.3(6) 2_655 . ?
N6 Li1 Li2 79.8(7) . . ?
N8 Li1 Li2 60.9(6) 2_665 . ?
O1 Li1 Li2 164.5(7) . . ?
loop_
_geom_bond_atom_site_label_1
_geom_bond_atom_site_label_2
_geom_bond_distance
_geom_bond_site_symmetry_2
_geom_bond_publ_flag
W1 C11 2.134(6) . ?
W1 C13 2.141(6) . ?
W1 C15 2.144(5) . ?
W1 C14 2.148(5) . ?
W1 C16 2.160(5) . ?
W1 C12 2.179(5) . ?
W1 N1 2.213(5) . ?
W1 N2 2.219(5) . ?
O1 Li1 2.300(18) . ?
N1 C10 1.349(9) . ?
N1 C1 1.369(8) . ?
N2 C3 1.332(10) . ?
N2 C2 1.375(10) . ?
N6 C14 1.145(8) . ?
N6 Li1 2.051(16) . ?
N5 C13 1.144(9) . ?
N3 C11 1.138(9) . ?
N4 C12 1.131(8) . ?
N7 C15 1.142(7) . ?
N7 Li1 2.019(16) 2_655 ?
N8 C16 1.138(8) . ?
N8 Li1 2.066(17) 2_665 ?
C3 C4 1.392(10) . ?
C3 H3 0.9500 . ?
C10 C9 1.384(9) . ?
C10 H10 0.9500 . ?
C4 C5 1.390(15) . ?
C4 H4 0.9500 . ?
C6 C5 1.327(16) . ?
C6 C2 1.405(10) . ?
C6 H6 0.9500 . ?
C1 C7 1.420(12) . ?
C1 C2 1.431(12) . ?
C9 C8 1.356(14) . ?
C9 H9 0.9500 . ?
C7 C8 1.374(16) . ?
C7 H7 0.9500 . ?
C8 H8 0.9500 . ?
C5 H5 0.9500 . ?
Li1 Li2 3.35(2) . ?
loop_
_geom_hbond_atom_site_label_D
_geom_hbond_atom_site_label_H
_geom_hbond_atom_site_label_A
_geom_hbond_distance_DH
_geom_hbond_distance_HA
_geom_hbond_distance_DA
_geom_hbond_angle_DHA
_geom_hbond_site_symmetry_A
C7 H7 N8 0.95 2.65 3.425(9) 139.4 2_666
C7 H7 N8 0.95 2.65 3.425(9) 139.4 2_666
loop_
_geom_torsion_atom_site_label_1
_geom_torsion_atom_site_label_2
_geom_torsion_atom_site_label_3
_geom_torsion_atom_site_label_4
_geom_torsion
_geom_torsion_site_symmetry_1
_geom_torsion_site_symmetry_2
_geom_torsion_site_symmetry_3
_geom_torsion_site_symmetry_4
_geom_torsion_publ_flag
C2 N2 C3 C4 1.7(9) . . . . ?
W1 N2 C3 C4 -174.9(5) . . . . ?
C1 N1 C10 C9 0.0(9) . . . . ?
W1 N1 C10 C9 176.3(5) . . . . ?
N2 C3 C4 C5 -0.6(10) . . . . ?
C10 N1 C1 C7 0.1(8) . . . . ?
W1 N1 C1 C7 -176.6(4) . . . . ?
C10 N1 C1 C2 -176.5(5) . . . . ?
W1 N1 C1 C2 6.9(7) . . . . ?
N1 C10 C9 C8 -1.3(10) . . . . ?
C3 N2 C2 C6 -2.0(9) . . . . ?
W1 N2 C2 C6 174.9(5) . . . . ?
C3 N2 C2 C1 175.6(5) . . . . ?
W1 N2 C2 C1 -7.5(7) . . . . ?
C5 C6 C2 N2 1.3(10) . . . . ?
C5 C6 C2 C1 -176.2(6) . . . . ?
N1 C1 C2 N2 0.5(8) . . . . ?
C7 C1 C2 N2 -175.9(6) . . . . ?
N1 C1 C2 C6 178.1(6) . . . . ?
C7 C1 C2 C6 1.7(10) . . . . ?
N1 C1 C7 C8 1.2(10) . . . . ?
C2 C1 C7 C8 177.4(7) . . . . ?
C10 C9 C8 C7 2.5(10) . . . . ?
C1 C7 C8 C9 -2.5(11) . . . . ?
C2 C6 C5 C4 -0.2(11) . . . . ?
C3 C4 C5 C6 -0.2(11) . . . . ?
