#------------------------------------------------------------------------------
#$Date: 2020-11-06 15:19:06 +0200 (Fri, 06 Nov 2020) $
#$Revision: 258985 $
#$URL: file:///home/coder/svn-repositories/cod/cif/7/24/09/7240949.cif $
#------------------------------------------------------------------------------
#
# This file is available in the Crystallography Open Database (COD),
# http://www.crystallography.net/
#
# All data on this site have been placed in the public domain by the
# contributors.
#
data_7240949
loop_
_publ_author_name
'Richardson, Jonathan G.'
'Benjamin, Helen'
'Moggach, Stephen A.'
'Warren, Lisette R.'
'Warren, Mark R.'
'Allan, David R.'
'Saunders, Lucy K.'
'Morrison, Carole A.'
'Robertson, Neil'
_publ_section_title
;
 Probing the structural and electronic response of Magnus green salt
 compounds [Pt(NH<sub>2</sub>R)<sub>4</sub>][PtCl<sub>4</sub>] (R = H,
 CH<sub>3</sub>) to pressure.
;
_journal_issue                   31
_journal_name_full               'Physical chemistry chemical physics : PCCP'
_journal_page_first              17668
_journal_page_last               17676
_journal_paper_doi               10.1039/d0cp03280h
_journal_volume                  22
_journal_year                    2020
_chemical_formula_moiety         'C4 H20 N4 Pt, Cl4 Pt'
_chemical_formula_sum            'C4 H20 Cl4 N4 Pt2'
_chemical_formula_weight         656.22
_space_group_IT_number           128
_space_group_name_Hall           '-P 4 2n'
_space_group_name_H-M_alt        'P 4/m n c'
_symmetry_cell_setting           tetragonal
_symmetry_space_group_name_Hall  '-P 4 2n'
_symmetry_space_group_name_H-M   'P 4/m n c'
_atom_sites_solution_hydrogens   difmap
_atom_sites_solution_primary     direct
_audit_creation_date             2020-06-11
_audit_creation_method           CRYSTALS_ver_14.61_build_6999
_audit_update_record
;
2020-06-15 deposited with the CCDC.	2020-07-24 downloaded from the CCDC.
;
_cell_angle_alpha                90
_cell_angle_beta                 90
_cell_angle_gamma                90
_cell_formula_units_Z            2
_cell_length_a                   10.35151(12)
_cell_length_b                   10.35151(12)
_cell_length_c                   6.4977(2)
_cell_measurement_reflns_used    1175
_cell_measurement_temperature    293
_cell_measurement_theta_max      74
_cell_measurement_theta_min      6
_cell_volume                     696.25(2)
_computing_cell_refinement
; 
 CrysAlisPro (Rigaku Oxford Diffraction, 2017) 
;
_computing_data_collection       'SuperNova, (Oxford Diffraction, 2010)'
_computing_data_reduction
; 
 CrysAlisPro (Rigaku Oxford Diffraction, 2017) 
;
_computing_molecular_graphics    'CAMERON (Watkin et al., 1996)'
_computing_publication_material  'CRYSTALS (Betteridge et al., 2003)'
_computing_structure_refinement  'CRYSTALS (Betteridge et al., 2003)'
_computing_structure_solution    'SIR92 (Altomare et al., 1994)'
_diffrn_ambient_pressure         101
_diffrn_ambient_temperature      293
_diffrn_measured_fraction_theta_full 0.997
_diffrn_measured_fraction_theta_max 0.995
_diffrn_measurement_device       Area
_diffrn_measurement_device_type  'Oxford Diffraction SuperNova'
_diffrn_measurement_method       \w
_diffrn_radiation_monochromator  'focussing mirrors'
_diffrn_radiation_type           'Cu K\a'
_diffrn_radiation_wavelength     1.54178
_diffrn_reflns_av_R_equivalents  0.077
_diffrn_reflns_av_unetI/netI     0.061
_diffrn_reflns_limit_h_max       13
_diffrn_reflns_limit_h_min       -12
_diffrn_reflns_limit_k_max       12
_diffrn_reflns_limit_k_min       -12
_diffrn_reflns_limit_l_max       6
_diffrn_reflns_limit_l_min       -8
_diffrn_reflns_number            3522
_diffrn_reflns_theta_full        74.277
_diffrn_reflns_theta_max         75.793
_diffrn_reflns_theta_min         6.046
_diffrn_standards_number         0
_exptl_absorpt_coefficient_mu    43.900
_exptl_absorpt_correction_T_max  0.80
_exptl_absorpt_correction_T_min  0.09
_exptl_absorpt_correction_type   multi-scan
_exptl_absorpt_process_details
; 
 CrysAlisPro (Rigaku Oxford Diffraction, 2017) 
;
_exptl_crystal_colour            green
_exptl_crystal_density_diffrn    3.130
_exptl_crystal_density_meas      ?
_exptl_crystal_density_method    'not measured'
_exptl_crystal_description       needle
_exptl_crystal_F_000             592
_exptl_crystal_size_max          0.100
_exptl_crystal_size_mid          0.010
_exptl_crystal_size_min          0.005
_refine_diff_density_max         2.90
_refine_diff_density_min         -2.64
_refine_ls_extinction_method     None
_refine_ls_goodness_of_fit_ref   0.9642
_refine_ls_hydrogen_treatment    constr
_refine_ls_matrix_type           full
_refine_ls_number_parameters     25
_refine_ls_number_reflns         394
_refine_ls_number_restraints     3
_refine_ls_R_factor_all          0.0578
_refine_ls_R_factor_gt           0.0501
_refine_ls_shift/su_max          0.0005849
_refine_ls_shift/su_mean         0.0000374
_refine_ls_structure_factor_coef Fsqd
_refine_ls_weighting_details
;
 Method= Modified Sheldrick 
 w=1/[\s^2^(F^2^) + ( 0.09P)^2^ + 4.03P] 
 ,where P=(max(Fo^2^,0) + 2Fc^2^)/3 
;
_refine_ls_weighting_scheme      calc
_refine_ls_wR_factor_all         0.1428
_refine_ls_wR_factor_gt          0.1243
_refine_ls_wR_factor_ref         0.1428
_reflns_limit_h_max              9
_reflns_limit_h_min              0
_reflns_limit_k_max              12
_reflns_limit_k_min              0
_reflns_limit_l_max              8
_reflns_limit_l_min              0
_reflns_number_gt                285
_reflns_number_total             397
_reflns_threshold_expression     I>2.0\s(I)
_oxford_diffrn_Wilson_B_factor   0.00
_oxford_diffrn_Wilson_scale      0.00
_oxford_refine_ls_r_factor_ref   0.0578
_oxford_refine_ls_scale          0.2870(13)
_oxford_reflns_number_all        394
_iucr_refine_instructions_details
;
#
# Punched on 11/06/20 at 14:37:55
#
#LIST     12                                                                    
BLOCK SCALE X'S  U'S 
RIDE N   (   1,X'S) H   (  13,X'S) 
RIDE C   (   1,X'S) H   (  12,X'S) H   (  11,X'S) 
END                                                                             
#
# Punched on 11/06/20 at 14:37:55
#
#LIST     16                                                                    
NO 
REM   HREST   START (DO NOT REMOVE THIS LINE) 
REM   HREST   END (DO NOT REMOVE THIS LINE) 
END                                                                             
;
_cod_data_source_file            d0cp03280h2.cif
_cod_data_source_block           MagNMe_ambient
_cod_depositor_comments
;
The following automatic conversions were performed:

data item '_exptl_crystal_density_meas' value 'not measured' was
changed to '?' -- the value is perceived as not measured.

Automatic conversion script
Id: cif_fix_values 7556 2019-12-06 15:28:31Z antanas 

 Adding full bibliography for 7240937--7240954.cif.
;
_cod_original_cell_volume        696.25(3)
_cod_original_sg_symbol_Hall     '-P 4 2n '
_cod_original_sg_symbol_H-M      'P 4/m n c '
_cod_database_code               7240949
_oxford_refine_reflns_threshold_expression_ref I>-3.0\s(I)
_iucr_refine_reflections_details
; 
 
# Data was input as F-squared 
# punching LIST  6 as LIST  6 with all keys set 
# NBGNXT=    36 
#LIST   6 
READ NCOEF= 8 TYPE=FIX, F'S = FSQ UNIT=DATA, CHECK=NO L30=NO ARCH=NO 
STORE  NCOEF= 6 
OUTPUT INDICES     /FO/        SIGMA(/FO/) RATIO/JCODE CORRECTIONS SERIAL 
CONT 
INPUT  H           K           L           /FO/        SIGMA(/FO/) JCODE 
CONT   CORRECTIONS SERIAL 
FOR (I4,I4,I4,F10.2,F8.2,F4.0,F7.4,F7.0) 
END 
   0   0  -1      0.10    0.10  0. 1.0000     0. 
   0   0   1      0.50    0.90  0. 1.0000     0. 
   0   0  -1      0.60    0.90  0. 1.0000     0. 
   0   0   2   9936.01  107.89  0. 1.0000     0. 
   0   0  -2   9999.00   99.29  0. 1.0000     0. 
   0   0   3      0.80    1.90  0. 1.0000     0. 
   0   0  -3     -0.50    0.50  0. 1.0000     0. 
   0   0   3      0.30    3.40  0. 1.0000     0. 
   0   0   4   5702.63  129.89  0. 1.0000     0. 
   0   0  -4   5884.01  111.79  0. 1.0000     0. 
   0   0  -5      1.50    1.20  0. 1.0000     0. 
   0   0  -6   1996.90  105.99  0. 1.0000     0. 
   0   0  -8    933.91   54.29  0. 1.0000     0. 
   0  -1   0     -0.40    0.70  0. 1.0000     0. 
   1   0   0     -0.20    0.60  0. 1.0000     0. 
   1   0  -1     27.00    4.00  0. 1.0000     0. 
   1   0  -1     28.80    4.40  0. 1.0000     0. 
   0   1  -1     26.80    4.80  0. 1.0000     0. 
   0  -1   1     29.80    5.80  0. 1.0000     0. 
   0   1   1     35.30    3.90  0. 1.0000     0. 
   0   1   1     30.90    3.10  0. 1.0000     0. 
  -1   0   1     33.80    8.00  0. 1.0000     0. 
   1   0   1     26.20    4.50  0. 1.0000     0. 
   0   1  -1     27.90    2.10  0. 1.0000     0. 
   1   0   2     -0.10    0.50  0. 1.0000     0. 
   0   1   2     -2.80    1.60  0. 1.0000     0. 
  -1   0   2      2.40    2.10  0. 1.0000     0. 
   1   0   2      0.20    1.10  0. 1.0000     0. 
   0   1   2     -2.00    1.60  0. 1.0000     0. 
   0   1  -2      0.20    0.50  0. 1.0000     0. 
   0  -1  -2      0.20    1.60  0. 1.0000     0. 
   1   0  -2     -0.90    1.30  0. 1.0000     0. 
   0  -1   2      1.50    1.30  0. 1.0000     0. 
   1   0  -2      0.80    0.20  0. 1.0000     0. 
   0   1  -2      0.20    1.20  0. 1.0000     0. 
   1   0   3     37.00    8.20  0. 1.0000     0. 
   0   1   3     23.90    5.60  0. 1.0000     0. 
   1   0  -3     33.10    7.80  0. 1.0000     0. 
   0  -1   3     38.90   10.20  0. 1.0000     0. 
   0   1   3     39.20    7.60  0. 1.0000     0. 
  -1   0   3     34.60    9.40  0. 1.0000     0. 
   0   1  -3     43.80    7.30  0. 1.0000     0. 
   1   0   3     35.50    8.50  0. 1.0000     0. 
   0  -1   3     32.90    8.70  0. 1.0000     0. 
   0  -1  -3     27.70    7.40  0. 1.0000     0. 
   0   1  -3     26.20    7.90  0. 1.0000     0. 
  -1   0  -3     38.10    7.80  0. 1.0000     0. 
   0  -1   4      0.70    2.90  0. 1.0000     0. 
   0  -1  -4      5.00    3.40  0. 1.0000     0. 
   0  -1   4      1.70    1.30  0. 1.0000     0. 
   1   0  -4      4.90    3.30  0. 1.0000     0. 
  -1   0   4     -1.40    3.90  0. 1.0000     0. 
   1   0   4     -1.50    2.20  0. 1.0000     0. 
  -1   0   4      3.80    2.70  0. 1.0000     0. 
   0  -1   5     30.40   11.30  0. 1.0000     0. 
   1   0  -5      1.00    2.10  0. 1.0000     0. 
   0  -1   5     42.40   14.10  0. 1.0000     0. 
   0   1  -5     18.10    9.20  0. 1.0000     0. 
   0  -1  -5     11.00    6.90  0. 1.0000     0. 
  -1   0  -5     22.50   10.60  0. 1.0000     0. 
   0   1  -5     46.60   16.40  0. 1.0000     0. 
   0   1  -6     -1.20    1.90  0. 1.0000     0. 
   1   0  -6     -3.60    6.50  0. 1.0000     0. 
   0  -1  -6     -2.30    3.50  0. 1.0000     0. 
  -1   0  -6      3.70    6.90  0. 1.0000     0. 
   0  -1  -7      5.60    6.60  0. 1.0000     0. 
  -1   0  -7     -0.80    3.20  0. 1.0000     0. 
   0  -1  -8     -1.80    4.30  0. 1.0000     0. 
   1   0  -8    -12.10    6.00  0. 1.0000     0. 
  -1   1   0   4383.46   41.20  0. 1.0000     0. 
  -1  -1   0   4473.85   72.19  0. 1.0000     0. 
   1  -1   1     -1.40    1.30  0. 1.0000     0. 
  -1   1  -1     -0.30    0.30  0. 1.0000     0. 
   1   1  -1      0.30    0.80  0. 1.0000     0. 
   1  -1   1     -1.40    1.40  0. 1.0000     0. 
  -1  -1   1     -0.60    1.20  0. 1.0000     0. 
   1   1   1     -0.10    0.60  0. 1.0000     0. 
   1   1  -2   5221.28   65.59  0. 1.0000     0. 
   1  -1   2   4986.00   91.69  0. 1.0000     0. 
  -1   1   2   4550.54   93.29  0. 1.0000     0. 
   1   1  -2   4590.64   84.79  0. 1.0000     0. 
   1  -1   2   4772.22   86.69  0. 1.0000     0. 
   1  -1  -2   4834.52   83.79  0. 1.0000     0. 
   1   1   2   4909.01   77.29  0. 1.0000     0. 
  -1   1  -2   4760.42   83.79  0. 1.0000     0. 
  -1  -1   2   4456.35  107.79  0. 1.0000     0. 
   1  -1  -3      0.10    1.10  0. 1.0000     0. 
   1  -1   3      0.20    0.70  0. 1.0000     0. 
  -1   1   3     -0.10    0.30  0. 1.0000     0. 
   1   1   3      2.50    1.90  0. 1.0000     0. 
   1  -1   3      1.50    1.30  0. 1.0000     0. 
  -1   1   3     -3.20    2.90  0. 1.0000     0. 
   1   1  -3      1.80    2.80  0. 1.0000     0. 
  -1  -1   3      1.90    1.60  0. 1.0000     0. 
   1   1  -3      0.60    2.00  0. 1.0000     0. 
  -1   1  -3     -2.00    1.60  0. 1.0000     0. 
  -1  -1  -3     -0.10    1.10  0. 1.0000     0. 
  -1  -1   4   3002.30  110.99  0. 1.0000     0. 
   1  -1  -4   3127.79   93.19  0. 1.0000     0. 
  -1  -1  -4   3217.08   95.49  0. 1.0000     0. 
   1   1   4   3213.98   87.19  0. 1.0000     0. 
   1  -1   4   3444.76  106.39  0. 1.0000     0. 
  -1   1   4   3757.92  101.99  0. 1.0000     0. 
   1  -1   4   3006.70  102.69  0. 1.0000     0. 
  -1  -1   4   3410.26  107.59  0. 1.0000     0. 
   1   1  -5     -4.00    4.20  0. 1.0000     0. 
  -1  -1  -5     -0.30    2.00  0. 1.0000     0. 
  -1   1  -5     -0.50    2.80  0. 1.0000     0. 
   1  -1   5      7.00    5.60  0. 1.0000     0. 
   1  -1  -5     -9.20    6.60  0. 1.0000     0. 
   1  -1  -6   1206.38   84.49  0. 1.0000     0. 
   1   1  -6   1203.38   80.49  0. 1.0000     0. 
  -1   1  -6   1326.67   83.99  0. 1.0000     0. 
  -1  -1  -6   1242.68   83.59  0. 1.0000     0. 
  -1   1  -7      1.30    4.20  0. 1.0000     0. 
  -1  -1  -7      0.80    2.60  0. 1.0000     0. 
   1  -1  -8    617.44   47.20  0. 1.0000     0. 
   0  -2   0   3310.07   48.30  0. 1.0000     0. 
   0   2   0   3414.46   86.39  0. 1.0000     0. 
   2   0   0   3230.78   66.09  0. 1.0000     0. 
   0  -2   1     -1.10    1.70  0. 1.0000     0. 
  -2   0   1      2.80    3.00  0. 1.0000     0. 
   2   0   1     -3.00    2.60  0. 1.0000     0. 
   2   0  -1     -0.30    1.30  0. 1.0000     0. 
   0   2   1     -0.90    0.70  0. 1.0000     0. 
   0   2  -1     -0.30    1.20  0. 1.0000     0. 
   2   0  -1      1.50    1.40  0. 1.0000     0. 
   0   2  -2   3111.69   77.39  0. 1.0000     0. 
   2   0  -2   3218.58   72.99  0. 1.0000     0. 
   0  -2  -2   3110.29   75.99  0. 1.0000     0. 
   0   2   2   3608.54   46.00  0. 1.0000     0. 
   2   0  -2   3329.77   69.69  0. 1.0000     0. 
   2   0   2   3255.47   78.09  0. 1.0000     0. 
   0  -2   2   2920.41   80.29  0. 1.0000     0. 
  -2   0   2   2891.91  106.79  0. 1.0000     0. 
   2   0  -3      3.30    3.00  0. 1.0000     0. 
  -2   0   3     -1.70    2.90  0. 1.0000     0. 
   0   2   3     -3.90    2.10  0. 1.0000     0. 
   2   0   3      4.30    4.10  0. 1.0000     0. 
   0  -2  -3     -7.00    4.10  0. 1.0000     0. 
   0   2  -3      0.40    2.60  0. 1.0000     0. 
  -2   0  -3      0.50    1.40  0. 1.0000     0. 
   0  -2   3      7.50    4.70  0. 1.0000     0. 
   0  -2   3      2.60    3.50  0. 1.0000     0. 
   0  -2  -4   2160.38   86.49  0. 1.0000     0. 
   2   0  -4   2431.66   85.29  0. 1.0000     0. 
  -2   0   4   2357.26  100.59  0. 1.0000     0. 
   2   0   4   2219.78   85.99  0. 1.0000     0. 
   0  -2   4   2201.98   93.39  0. 1.0000     0. 
   0  -2   4   2143.09   95.19  0. 1.0000     0. 
   0  -2  -5      5.70    4.90  0. 1.0000     0. 
  -2   0  -5     -1.00    5.00  0. 1.0000     0. 
   0  -2  -5     -5.20    4.90  0. 1.0000     0. 
   0   2  -5      5.20    4.70  0. 1.0000     0. 
   2   0  -5      8.40    6.30  0. 1.0000     0. 
   0   2  -5      5.80    7.90  0. 1.0000     0. 
   0  -2   5      0.10    0.70  0. 1.0000     0. 
   0  -2   5     13.90    8.40  0. 1.0000     0. 
   0   2  -6    921.81   68.89  0. 1.0000     0. 
  -2   0  -6    925.71   71.29  0. 1.0000     0. 
   0   2  -6   1067.59   83.39  0. 1.0000     0. 
   0  -2  -6    924.31   72.69  0. 1.0000     0. 
   0  -2  -7     -3.40    7.10  0. 1.0000     0. 
  -2   0  -7      3.40    5.70  0. 1.0000     0. 
   0  -2  -8    490.05   46.60  0. 1.0000     0. 
   2   1   0      8.50    3.90  0. 1.0000     0. 
   1  -2   0      8.30    2.30  0. 1.0000     0. 
   1   2   0     13.70    6.80  0. 1.0000     0. 
   2  -1   0      6.90    2.70  0. 1.0000     0. 
   1  -2   0      8.00    2.40  0. 1.0000     0. 
  -1   2   0      6.90    2.20  0. 1.0000     0. 
   2  -1   0      9.60    3.70  0. 1.0000     0. 
  -2  -1   0      4.80    3.50  0. 1.0000     0. 
  -1  -2   0     12.30    3.70  0. 1.0000     0. 
  -2  -1   1      0.30    0.40  0. 1.0000     0. 
   1   2   1      0.40    1.70  0. 1.0000     0. 
   2   1   1     -1.30    1.30  0. 1.0000     0. 
   2   1  -1      0.30    0.50  0. 1.0000     0. 
  -1  -2   1     -0.20    1.80  0. 1.0000     0. 
   1   2  -1      0.30    1.70  0. 1.0000     0. 
   1  -2   1     -0.60    0.20  0. 1.0000     0. 
  -1   2  -1      0.70    0.80  0. 1.0000     0. 
  -2   1  -1      2.50    1.60  0. 1.0000     0. 
   2  -1   1      0.60    1.10  0. 1.0000     0. 
  -2   1   1     -3.00    4.00  0. 1.0000     0. 
   1  -2   1     -0.50    2.10  0. 1.0000     0. 
   1  -2   2      6.60    4.70  0. 1.0000     0. 
  -1   2  -2      7.30    3.40  0. 1.0000     0. 
   2  -1   2      4.70    4.10  0. 1.0000     0. 
  -1  -2   2      5.00    3.90  0. 1.0000     0. 
  -1   2   2      8.40    1.40  0. 1.0000     0. 
   1   2   2      3.00    1.80  0. 1.0000     0. 
  -1   2   2      2.60    0.40  0. 1.0000     0. 
   2   1  -2      4.60    2.50  0. 1.0000     0. 
   2  -1  -2      4.80    3.00  0. 1.0000     0. 
   1   2  -2      7.90    4.30  0. 1.0000     0. 
   2   1  -2      3.80    2.10  0. 1.0000     0. 
   1  -2   2      6.40    3.80  0. 1.0000     0. 
  -2  -1   2      2.80    3.60  0. 1.0000     0. 
   2   1   2      4.90    2.90  0. 1.0000     0. 
   1  -2  -2      6.60    3.70  0. 1.0000     0. 
  -2   1   2     15.50    9.20  0. 1.0000     0. 
   1   2  -3     10.70    5.20  0. 1.0000     0. 
  -1   2  -3      4.90    4.20  0. 1.0000     0. 
  -2  -1  -3      6.00    3.90  0. 1.0000     0. 
   1   2   3     10.10    4.00  0. 1.0000     0. 
   1  -2   3      6.00    4.40  0. 1.0000     0. 
   2  -1  -3      8.60    5.20  0. 1.0000     0. 
  -2   1  -3      4.90    2.50  0. 1.0000     0. 
   2   1   3      0.20    1.50  0. 1.0000     0. 
   2  -1   3      3.10    3.30  0. 1.0000     0. 
   2   1  -3      7.80    3.90  0. 1.0000     0. 
   1  -2  -3      3.70    2.50  0. 1.0000     0. 
  -1   2   3     10.90    4.30  0. 1.0000     0. 
  -2   1   3      4.80    4.40  0. 1.0000     0. 
   1  -2   3      5.70    4.30  0. 1.0000     0. 
  -1  -2  -3      1.00    0.70  0. 1.0000     0. 
  -2  -1   3      9.70    6.90  0. 1.0000     0. 
  -1  -2   3      3.20    1.20  0. 1.0000     0. 
   2   1  -3      5.80    2.80  0. 1.0000     0. 
  -1  -2   4      5.30    4.10  0. 1.0000     0. 
  -2   1   4     15.60    7.10  0. 1.0000     0. 
  -1  -2   4      2.90    7.20  0. 1.0000     0. 
   1  -2   4      2.30    3.00  0. 1.0000     0. 
   2   1   4     -6.90    4.30  0. 1.0000     0. 
  -2  -1  -4     -1.40    2.10  0. 1.0000     0. 
  -1  -2  -4      8.10    6.00  0. 1.0000     0. 
   2  -1   4      1.30    2.30  0. 1.0000     0. 
   1  -2  -4      0.50    1.30  0. 1.0000     0. 
   1  -2   4      6.00    4.80  0. 1.0000     0. 
   2  -1  -4     10.00    6.30  0. 1.0000     0. 
  -2  -1   4     10.60    7.10  0. 1.0000     0. 
   1  -2   5     -0.50    1.60  0. 1.0000     0. 
  -2  -1  -5      7.60    5.40  0. 1.0000     0. 
   2  -1  -5     -0.70    3.20  0. 1.0000     0. 
  -1  -2   5     11.10    7.00  0. 1.0000     0. 
   1  -2  -5      6.60    4.20  0. 1.0000     0. 
   1   2  -5     -6.10    5.90  0. 1.0000     0. 
   2   1  -5      1.20    2.70  0. 1.0000     0. 
  -1  -2   5     -4.30    4.80  0. 1.0000     0. 
  -1  -2  -5      8.50    6.30  0. 1.0000     0. 
   2  -1   5      7.00    6.00  0. 1.0000     0. 
  -2  -1   5      3.70    5.30  0. 1.0000     0. 
   1   2  -5      6.40    5.40  0. 1.0000     0. 
  -2   1  -5     -4.30    4.30  0. 1.0000     0. 
  -1   2  -5      3.30    4.20  0. 1.0000     0. 
   1  -2  -5     22.00    9.60  0. 1.0000     0. 
  -1   2  -6      3.10    4.10  0. 1.0000     0. 
  -2   1  -6      8.80    7.80  0. 1.0000     0. 
  -2   1  -6      3.50    4.80  0. 1.0000     0. 
  -2  -1  -6      3.20    6.80  0. 1.0000     0. 
   1   2  -6      2.00    5.60  0. 1.0000     0. 
  -1   2  -6     -0.80    4.00  0. 1.0000     0. 
  -1  -2  -6      6.50    6.30  0. 1.0000     0. 
   1  -2  -6      3.50    5.90  0. 1.0000     0. 
  -2  -1  -7      1.40    4.00  0. 1.0000     0. 
  -2   1  -7      2.80    2.60  0. 1.0000     0. 
   2   1  -7     -1.90    2.70  0. 1.0000     0. 
  -1   2  -7      3.50    4.70  0. 1.0000     0. 
  -1  -2  -7     -1.90    1.90  0. 1.0000     0. 
   2  -1  -8      1.70    1.70  0. 1.0000     0. 
   1  -2  -8     -1.10    4.60  0. 1.0000     0. 
  -1  -2  -8      5.60    4.10  0. 1.0000     0. 
  -2  -2   0   3049.79   75.99  0. 1.0000     0. 
  -2   2   0   3105.09   43.20  0. 1.0000     0. 
   2  -2   0   2899.01   54.69  0. 1.0000     0. 
   2  -2   0   3085.39   61.49  0. 1.0000     0. 
   2  -2   1     -0.80    1.90  0. 1.0000     0. 
   2  -2  -1      0.10    0.60  0. 1.0000     0. 
   2   2  -1     -0.80    0.80  0. 1.0000     0. 
  -2  -2  -1     -1.10    1.40  0. 1.0000     0. 
   2   2   1      1.00    2.80  0. 1.0000     0. 
  -2   2  -1     -0.20    1.10  0. 1.0000     0. 
  -2   2  -2   2609.84   67.19  0. 1.0000     0. 
  -2  -2   2   2340.27   98.79  0. 1.0000     0. 
  -2   2   2   2354.06   98.49  0. 1.0000     0. 
   2   2   2   2594.94   67.39  0. 1.0000     0. 
   2   2  -2   2690.53   75.99  0. 1.0000     0. 
   2  -2   2   2357.36   70.59  0. 1.0000     0. 
   2  -2  -2   2438.26   69.79  0. 1.0000     0. 
   2  -2  -3     -6.00    4.00  0. 1.0000     0. 
  -2  -2   3      2.30    7.20  0. 1.0000     0. 
  -2  -2  -3     -3.70    3.20  0. 1.0000     0. 
   2   2  -3     -2.60    3.60  0. 1.0000     0. 
   2   2   3      1.30    2.10  0. 1.0000     0. 
   2  -2   3     -1.70    2.20  0. 1.0000     0. 
  -2   2   3      0.60    2.50  0. 1.0000     0. 
   2   2  -4   1734.33   84.69  0. 1.0000     0. 
  -2  -2  -4   1905.51   87.19  0. 1.0000     0. 
   2  -2   4   1879.61   87.49  0. 1.0000     0. 
  -2  -2   4   2020.00  110.69  0. 1.0000     0. 
   2  -2  -4   1703.83   78.79  0. 1.0000     0. 
  -2  -2   5     -7.80    5.70  0. 1.0000     0. 
  -2   2  -5      2.90    4.70  0. 1.0000     0. 
  -2  -2   5      1.70    3.30  0. 1.0000     0. 
  -2  -2  -5     -5.00    4.90  0. 1.0000     0. 
   2  -2  -5    -10.40    6.70  0. 1.0000     0. 
   2  -2   5     -5.60    5.60  0. 1.0000     0. 
   2  -2  -5      2.20    3.40  0. 1.0000     0. 
  -2  -2  -6    759.52   66.59  0. 1.0000     0. 
  -2   2  -6    972.80   69.59  0. 1.0000     0. 
  -2   2  -6    940.41   78.89  0. 1.0000     0. 
   2  -2  -6    832.02   70.99  0. 1.0000     0. 
   2   2  -6   1076.19   87.69  0. 1.0000     0. 
  -2  -2  -7      3.80    5.00  0. 1.0000     0. 
  -2   2  -7     -3.40    4.90  0. 1.0000     0. 
   2   2  -7     11.40    6.00  0. 1.0000     0. 
   3   0   0      1.40    1.10  0. 1.0000     0. 
   0   3   0      2.10    2.70  0. 1.0000     0. 
   3   0   0      2.30    2.20  0. 1.0000     0. 
   0  -3   0      0.60    1.20  0. 1.0000     0. 
   0  -3   0     -0.30    0.30  0. 1.0000     0. 
  -3   0   1    294.47   30.40  0. 1.0000     0. 
   0  -3   1    410.06   12.10  0. 1.0000     0. 
   0  -3   1    306.87   24.20  0. 1.0000     0. 
   3   0  -1    274.87   20.40  0. 1.0000     0. 
   0   3  -1    324.17   25.40  0. 1.0000     0. 
   0  -3  -1    319.27   23.80  0. 1.0000     0. 
   3   0  -1    373.96   15.40  0. 1.0000     0. 
   3   0   1    280.27   22.20  0. 1.0000     0. 
  -3   0   2     -3.10    5.50  0. 1.0000     0. 
   3   0  -2     -1.10    2.70  0. 1.0000     0. 
   0   3  -2     -0.20    1.70  0. 1.0000     0. 
   0  -3  -2     -0.80    1.90  0. 1.0000     0. 
   0  -3   2     -2.20    4.60  0. 1.0000     0. 
   3   0   2     -2.30    2.50  0. 1.0000     0. 
   0   3  -3    126.19   21.00  0. 1.0000     0. 
  -3   0   3    132.09   29.60  0. 1.0000     0. 
   0  -3  -3    118.69   19.60  0. 1.0000     0. 
   3   0   3    130.49   21.10  0. 1.0000     0. 
   3   0  -3    137.99   19.90  0. 1.0000     0. 
   0  -3   3    116.39   21.50  0. 1.0000     0. 
   0  -3  -4     -6.00    4.90  0. 1.0000     0. 
   0  -3   4     -0.70    1.00  0. 1.0000     0. 
   0  -3   4     -0.50    1.50  0. 1.0000     0. 
  -3   0   4      1.20    1.10  0. 1.0000     0. 
   3   0  -4     -2.00    3.00  0. 1.0000     0. 
   3   0   4    -10.90    6.40  0. 1.0000     0. 
   0   3  -4     10.50    6.70  0. 1.0000     0. 
   0   3  -5     52.99   17.50  0. 1.0000     0. 
  -3   0  -5     53.19   17.00  0. 1.0000     0. 
   0  -3  -5     55.29   17.20  0. 1.0000     0. 
   0   3  -5     64.69   17.20  0. 1.0000     0. 
   0  -3  -5     58.59   17.80  0. 1.0000     0. 
   0  -3   5     47.80   16.00  0. 1.0000     0. 
   3   0   5     62.59   16.70  0. 1.0000     0. 
   0  -3   5     67.69   20.40  0. 1.0000     0. 
   0  -3  -6      3.00    7.80  0. 1.0000     0. 
   0   3  -6    -14.90    9.70  0. 1.0000     0. 
  -3   0  -6     -0.80    4.10  0. 1.0000     0. 
   0  -3  -7     15.10    8.20  0. 1.0000     0. 
   0   3  -7     14.60    9.40  0. 1.0000     0. 
  -3   0  -7      7.30    6.60  0. 1.0000     0. 
   3   0  -7      3.10    5.00  0. 1.0000     0. 
  -1  -3   0   3055.39   67.29  0. 1.0000     0. 
   3   1   0   3263.57   70.49  0. 1.0000     0. 
   1  -3   0   3073.89   53.19  0. 1.0000     0. 
   3  -1   0   2856.11   70.99  0. 1.0000     0. 
  -3  -1   0   2843.62   81.79  0. 1.0000     0. 
  -1   3   0   2811.82   76.19  0. 1.0000     0. 
   3   1   0   2944.71   93.19  0. 1.0000     0. 
   1   3   0   3073.59   96.59  0. 1.0000     0. 
   1  -3   0   2952.50   55.49  0. 1.0000     0. 
   3   1   1    686.43   38.90  0. 1.0000     0. 
   1   3  -1    724.93   45.80  0. 1.0000     0. 
  -1  -3   1    672.23   42.00  0. 1.0000     0. 
   1  -3   1    647.04   35.00  0. 1.0000     0. 
   3  -1  -1    603.94   32.50  0. 1.0000     0. 
  -1   3  -1    623.44   31.10  0. 1.0000     0. 
   3  -1   1    592.54   32.00  0. 1.0000     0. 
   1  -3   1    762.62   17.60  0. 1.0000     0. 
   3   1  -1    634.24   26.00  0. 1.0000     0. 
  -3  -1   1    606.74   43.60  0. 1.0000     0. 
   1  -3  -1    652.83   33.00  0. 1.0000     0. 
   1  -3   1    647.64   33.10  0. 1.0000     0. 
   1  -3   2   2369.76   81.09  0. 1.0000     0. 
  -1  -3   2   2101.99   84.99  0. 1.0000     0. 
   1  -3  -2   2339.77   73.89  0. 1.0000     0. 
   1  -3   2   2376.46   74.59  0. 1.0000     0. 
   3  -1   2   2379.76   75.49  0. 1.0000     0. 
  -1   3   2   2900.91   56.89  0. 1.0000     0. 
  -1   3  -2   2588.84   76.79  0. 1.0000     0. 
   3  -1  -2   2572.54   76.69  0. 1.0000     0. 
  -3  -1   2   2414.06  106.49  0. 1.0000     0. 
   1   3   2   2456.85   55.49  0. 1.0000     0. 
   3   1   2   2444.86   74.99  0. 1.0000     0. 
   1   3  -2   2408.16   81.29  0. 1.0000     0. 
  -3   1   2   2752.92  129.69  0. 1.0000     0. 
  -1  -3  -2   2039.80   70.99  0. 1.0000     0. 
   3   1  -2   2434.56   62.99  0. 1.0000     0. 
   3   1   3    264.97   27.80  0. 1.0000     0. 
   3   1  -3    212.38   22.50  0. 1.0000     0. 
   1   3  -3    269.57   31.90  0. 1.0000     0. 
  -3   1   3    312.37   42.50  0. 1.0000     0. 
  -3  -1   3    301.57   45.00  0. 1.0000     0. 
  -1   3  -3    235.58   27.70  0. 1.0000     0. 
   3  -1  -3    271.67   28.40  0. 1.0000     0. 
   3  -1   3    245.08   28.40  0. 1.0000     0. 
  -1  -3   3    220.68   31.10  0. 1.0000     0. 
   1  -3   3    207.38   25.80  0. 1.0000     0. 
  -1  -3  -3    240.18   28.60  0. 1.0000     0. 
   1  -3  -3    226.88   26.90  0. 1.0000     0. 
   1  -3   3    227.58   29.20  0. 1.0000     0. 
  -3  -1  -4   1972.30   86.59  0. 1.0000     0. 
   1  -3   4   1741.03   88.69  0. 1.0000     0. 
   3  -1   4   1873.91   91.09  0. 1.0000     0. 
  -3   1   4   1882.81   92.19  0. 1.0000     0. 
   3  -1  -4   1797.52   82.19  0. 1.0000     0. 
   1  -3   4   1845.52   95.19  0. 1.0000     0. 
   1  -3  -4   1676.93   84.99  0. 1.0000     0. 
  -1  -3  -4   1615.14   83.09  0. 1.0000     0. 
  -1  -3   4   1678.83   96.99  0. 1.0000     0. 
   1   3  -4   1669.73   90.49  0. 1.0000     0. 
   3   1   4   1735.93   76.99  0. 1.0000     0. 
  -3  -1   4   1839.62  117.79  0. 1.0000     0. 
  -1  -3   4   1682.43   86.59  0. 1.0000     0. 
  -3   1  -5     88.69   20.50  0. 1.0000     0. 
  -1  -3   5     70.89   18.50  0. 1.0000     0. 
   1   3  -5     79.79   22.60  0. 1.0000     0. 
   1  -3  -5     74.79   20.10  0. 1.0000     0. 
  -1   3  -5     69.49   20.00  0. 1.0000     0. 
  -1   3  -5    122.49   23.30  0. 1.0000     0. 
   1  -3  -5     89.69   21.80  0. 1.0000     0. 
   3  -1   5    121.19   25.90  0. 1.0000     0. 
   1  -3   5     85.89   23.50  0. 1.0000     0. 
  -1  -3   5    118.89   28.60  0. 1.0000     0. 
  -3  -1  -5     61.39   18.60  0. 1.0000     0. 
  -1  -3  -5     96.09   23.50  0. 1.0000     0. 
  -3  -1   5    109.19   26.20  0. 1.0000     0. 
  -1  -3  -5     62.59   18.00  0. 1.0000     0. 
   1  -3  -6    798.62   68.39  0. 1.0000     0. 
  -3   1  -6    825.52   64.79  0. 1.0000     0. 
   1   3  -6    952.50   81.29  0. 1.0000     0. 
  -1  -3  -6    684.93   62.29  0. 1.0000     0. 
  -1   3  -6    978.00   70.59  0. 1.0000     0. 
  -3  -1  -6    787.82   68.79  0. 1.0000     0. 
  -1   3  -6    887.71   75.59  0. 1.0000     0. 
   3  -1  -7     17.80    8.70  0. 1.0000     0. 
  -1   3  -7      8.90    6.90  0. 1.0000     0. 
   1   3  -7     14.40    8.40  0. 1.0000     0. 
  -3  -1  -7     18.90   10.80  0. 1.0000     0. 
  -3   1  -7     12.50    7.20  0. 1.0000     0. 
  -3   1  -7     30.40   13.70  0. 1.0000     0. 
  -1  -3  -7      9.20    4.80  0. 1.0000     0. 
   3   1  -7     20.70    8.90  0. 1.0000     0. 
   3  -2   0    170.68   17.70  0. 1.0000     0. 
   3   2   0    169.88   19.00  0. 1.0000     0. 
   2   3   0    153.08   21.10  0. 1.0000     0. 
   2  -3   0    152.28   13.10  0. 1.0000     0. 
   2  -3   0    149.39   14.50  0. 1.0000     0. 
  -3  -2   0    163.68   20.20  0. 1.0000     0. 
  -2   3   0    139.39   13.10  0. 1.0000     0. 
  -2  -3   0    205.18   22.50  0. 1.0000     0. 
   3  -2   0    151.18   15.70  0. 1.0000     0. 
  -3   2   0    179.88    7.20  0. 1.0000     0. 
   3  -2  -1     -0.50    0.90  0. 1.0000     0. 
   2  -3  -1      1.50    2.60  0. 1.0000     0. 
   3  -2   1      0.10    0.90  0. 1.0000     0. 
  -3  -2   1     -1.30    2.50  0. 1.0000     0. 
  -2   3  -1      1.80    1.90  0. 1.0000     0. 
   2  -3   1     -0.90    2.00  0. 1.0000     0. 
  -3  -2  -1      1.40    0.80  0. 1.0000     0. 
   3   2   1      2.30    1.90  0. 1.0000     0. 
  -2  -3  -1      4.50    1.80  0. 1.0000     0. 
   3  -2  -1     -0.90    4.60  0. 1.0000     0. 
   2   3  -1      0.70    2.80  0. 1.0000     0. 
  -2  -3   1     -1.00    2.40  0. 1.0000     0. 
  -3   2  -1      0.80    0.90  0. 1.0000     0. 
   3   2  -1     -1.40    2.40  0. 1.0000     0. 
   2  -3  -2     85.79   14.80  0. 1.0000     0. 
  -2   3   2    131.09   21.10  0. 1.0000     0. 
   3   2   2     89.69   14.90  0. 1.0000     0. 
   2   3   2     79.09   12.80  0. 1.0000     0. 
  -2  -3   2     80.39   19.20  0. 1.0000     0. 
   3  -2  -2     79.29   14.00  0. 1.0000     0. 
  -2   3  -2     93.39   14.10  0. 1.0000     0. 
  -3   2   2    142.69   32.60  0. 1.0000     0. 
   2   3  -2    102.09   18.40  0. 1.0000     0. 
   2  -3   2     90.49   15.20  0. 1.0000     0. 
   3  -2   2     81.19   14.40  0. 1.0000     0. 
  -3  -2   2     83.69   20.20  0. 1.0000     0. 
   3   2  -2    108.69   16.00  0. 1.0000     0. 
   2   3  -3      3.00    3.10  0. 1.0000     0. 
   3   2   3     -2.00    2.30  0. 1.0000     0. 
  -3  -2   3      7.10    6.10  0. 1.0000     0. 
  -3   2   3      1.10    4.00  0. 1.0000     0. 
  -2   3  -3      1.90    3.10  0. 1.0000     0. 
   2  -3  -3     -0.70    1.50  0. 1.0000     0. 
  -2  -3  -3     -5.50    4.40  0. 1.0000     0. 
   3  -2   3      0.40    2.20  0. 1.0000     0. 
   3  -2  -3      4.60    4.60  0. 1.0000     0. 
   3   2  -3      0.30    2.70  0. 1.0000     0. 
  -2  -3   3      2.30    5.00  0. 1.0000     0. 
   2  -3   3      1.00    2.70  0. 1.0000     0. 
  -2  -3   4     55.59   20.20  0. 1.0000     0. 
   2   3  -4     37.60   13.80  0. 1.0000     0. 
   2  -3   4     42.40   13.50  0. 1.0000     0. 
   3  -2  -4     28.80   10.40  0. 1.0000     0. 
  -2  -3  -4     29.70   11.70  0. 1.0000     0. 
  -3  -2   4     46.60   18.60  0. 1.0000     0. 
   2  -3  -4     36.40   12.80  0. 1.0000     0. 
   3  -2   4     28.20   10.70  0. 1.0000     0. 
  -3  -2  -4     52.49   15.50  0. 1.0000     0. 
  -3   2  -5      3.60    4.50  0. 1.0000     0. 
  -3  -2  -5     -1.20    5.90  0. 1.0000     0. 
   2  -3  -5     15.80    9.10  0. 1.0000     0. 
  -2  -3  -5     -0.30    2.10  0. 1.0000     0. 
  -2   3  -5    -11.20    6.80  0. 1.0000     0. 
   3  -2   5     -6.00    6.10  0. 1.0000     0. 
   2  -3  -5      0.10    3.10  0. 1.0000     0. 
   3  -2  -5    -20.90    9.90  0. 1.0000     0. 
  -2  -3   5     23.00   12.60  0. 1.0000     0. 
  -3  -2   5      0.40   12.40  0. 1.0000     0. 
  -2  -3   5      6.20    1.70  0. 1.0000     0. 
   3   2  -5      3.70    5.10  0. 1.0000     0. 
  -2  -3  -5     32.40   13.00  0. 1.0000     0. 
   2  -3   5     10.40    7.80  0. 1.0000     0. 
   2   3  -5     -1.40    3.00  0. 1.0000     0. 
   2  -3   5     -4.90    4.50  0. 1.0000     0. 
  -3  -2  -6     14.80    9.50  0. 1.0000     0. 
  -3   2  -6      7.50    7.80  0. 1.0000     0. 
   2   3  -6     18.90   11.70  0. 1.0000     0. 
   3   2  -6      9.10    5.80  0. 1.0000     0. 
  -2   3  -6     17.10    8.60  0. 1.0000     0. 
  -3   2  -6     10.80    6.40  0. 1.0000     0. 
  -2  -3  -6      9.10    6.10  0. 1.0000     0. 
  -2   3  -6     11.30    8.10  0. 1.0000     0. 
   3  -2  -7     -1.00    2.80  0. 1.0000     0. 
   2  -3  -7     -4.60    5.40  0. 1.0000     0. 
  -2  -3  -7     -2.40    5.30  0. 1.0000     0. 
  -2   3  -7     -0.60    2.80  0. 1.0000     0. 
  -3  -2  -7      0.50    3.70  0. 1.0000     0. 
  -3   2  -7     -0.30    2.90  0. 1.0000     0. 
   3   2  -7     -0.30    2.40  0. 1.0000     0. 
   3  -3   0   5587.24  100.39  0. 1.0000     0. 
   3   3   0   6193.08  130.39  0. 1.0000     0. 
   3  -3   0   5655.73  107.49  0. 1.0000     0. 
  -3   3   0   6267.77   66.29  0. 1.0000     0. 
  -3  -3   0   6154.78  124.79  0. 1.0000     0. 
  -3   3  -1     -0.40    1.20  0. 1.0000     0. 
   3  -3   1     -0.20    1.70  0. 1.0000     0. 
   3  -3  -1     -0.90    0.50  0. 1.0000     0. 
  -3  -3  -1      2.20    2.00  0. 1.0000     0. 
  -3   3   1     -4.20    2.20  0. 1.0000     0. 
  -3  -3   1     -0.20    3.10  0. 1.0000     0. 
  -3   3  -2   4482.95   91.59  0. 1.0000     0. 
   3  -3   2   4269.87  109.19  0. 1.0000     0. 
  -3  -3   2   4323.77  147.49  0. 1.0000     0. 
   3   3   2   3852.71  107.09  0. 1.0000     0. 
   3  -3  -2   3916.91  105.69  0. 1.0000     0. 
   3   3  -2   4386.36  125.69  0. 1.0000     0. 
   3  -3  -3      3.70    2.70  0. 1.0000     0. 
  -3   3   3     -0.50    1.20  0. 1.0000     0. 
   3  -3   3      1.50    2.20  0. 1.0000     0. 
   3   3   3     -7.50    4.90  0. 1.0000     0. 
   3   3  -3     -1.30    3.60  0. 1.0000     0. 
  -3  -3   3      2.30    3.60  0. 1.0000     0. 
  -3  -3  -4   2507.75  119.49  0. 1.0000     0. 
   3  -3  -4   2622.84  112.69  0. 1.0000     0. 
   3   3  -4   2575.14  120.69  0. 1.0000     0. 
  -3  -3  -4   2574.84  118.99  0. 1.0000     0. 
  -3  -3   4   2505.85  140.89  0. 1.0000     0. 
   3  -3   4   2623.64  114.19  0. 1.0000     0. 
  -3  -3   5     -6.50    5.70  0. 1.0000     0. 
  -3  -3  -5      2.40    5.60  0. 1.0000     0. 
   3  -3   5      2.20    3.10  0. 1.0000     0. 
   3  -3   5     -2.20    3.80  0. 1.0000     0. 
   3   3  -5      6.70    7.10  0. 1.0000     0. 
   3   3  -6   1217.68   92.39  0. 1.0000     0. 
  -3   3  -6   1222.08   90.19  0. 1.0000     0. 
  -3  -3  -7     -0.80    4.10  0. 1.0000     0. 
  -3   3  -7     -3.30    2.40  0. 1.0000     0. 
   3  -3  -7     -0.10    3.00  0. 1.0000     0. 
   0  -4   0   2860.41   66.99  0. 1.0000     0. 
   0   4   0   2646.34   96.69  0. 1.0000     0. 
   4   0   0   2829.82   97.19  0. 1.0000     0. 
   0  -4   1     -0.40    1.10  0. 1.0000     0. 
   0  -4  -1     -1.20    2.20  0. 1.0000     0. 
   0   4  -1     -2.00    3.90  0. 1.0000     0. 
  -4   0   1      0.40    2.10  0. 1.0000     0. 
   4   0   1      0.40    1.80  0. 1.0000     0. 
   0  -4   1      3.60    3.40  0. 1.0000     0. 
   4   0   2   2251.27   82.09  0. 1.0000     0. 
   4   0  -2   2187.18   73.19  0. 1.0000     0. 
  -4   0   2   2380.56  111.69  0. 1.0000     0. 
   0  -4   2   2129.39   86.49  0. 1.0000     0. 
   0  -4  -2   2122.39   80.99  0. 1.0000     0. 
   0   4  -2   2242.08   82.49  0. 1.0000     0. 
   4   0   3     -0.80    1.70  0. 1.0000     0. 
   0   4  -3      5.20    5.20  0. 1.0000     0. 
   0  -4   3     -1.10    2.30  0. 1.0000     0. 
   0  -4  -3      3.40    4.40  0. 1.0000     0. 
   0  -4   3     -1.00    4.30  0. 1.0000     0. 
  -4   0   3     11.10    9.80  0. 1.0000     0. 
   4   0  -3      5.30    5.60  0. 1.0000     0. 
   0   4  -4   1612.94   93.19  0. 1.0000     0. 
   0   4  -4   1803.52   94.59  0. 1.0000     0. 
  -4   0  -4   2163.18  102.99  0. 1.0000     0. 
   4   0   4   1870.31   93.09  0. 1.0000     0. 
   0  -4   4   1573.24   88.99  0. 1.0000     0. 
  -4   0   4   1954.90  130.99  0. 1.0000     0. 
   0  -4  -4   1572.04   88.09  0. 1.0000     0. 
   0  -4   4   1765.02  102.29  0. 1.0000     0. 
   0  -4   5     -2.00    3.70  0. 1.0000     0. 
  -4   0  -5      5.10    5.20  0. 1.0000     0. 
   0  -4  -5     -0.70    4.60  0. 1.0000     0. 
   0   4  -5     -3.80    2.60  0. 1.0000     0. 
   0  -4   5      7.30    6.40  0. 1.0000     0. 
  -4   0  -6    701.93   63.49  0. 1.0000     0. 
   0   4  -6    794.22   71.49  0. 1.0000     0. 
   4   0  -6    710.43   62.49  0. 1.0000     0. 
   0  -4  -6    763.72   67.39  0. 1.0000     0. 
  -4   0  -7     -4.90    4.80  0. 1.0000     0. 
   4   0  -7     -1.10    3.10  0. 1.0000     0. 
  -1   4   0     47.60   11.60  0. 1.0000     0. 
   1  -4   0     47.80    8.30  0. 1.0000     0. 
   1   4   0     47.20   13.00  0. 1.0000     0. 
   1  -4   0     46.30    7.70  0. 1.0000     0. 
   4   1   0     55.99   14.60  0. 1.0000     0. 
   4   1   0     55.39    9.10  0. 1.0000     0. 
  -1  -4   0     48.90    9.30  0. 1.0000     0. 
  -4  -1   0     49.10   13.00  0. 1.0000     0. 
   4  -1   0     51.19   11.60  0. 1.0000     0. 
  -1  -4   1      7.70    5.00  0. 1.0000     0. 
   1  -4   1      7.90    2.10  0. 1.0000     0. 
   1  -4  -1      7.60    3.90  0. 1.0000     0. 
   4   1  -1      6.10    2.20  0. 1.0000     0. 
   4  -1  -1      6.40    4.20  0. 1.0000     0. 
  -1   4  -1      5.20    3.50  0. 1.0000     0. 
  -4  -1   1      1.70    2.50  0. 1.0000     0. 
  -4   1   1      3.90    2.80  0. 1.0000     0. 
   1  -4   1      4.80    3.20  0. 1.0000     0. 
   4  -1   1      2.20    0.80  0. 1.0000     0. 
   1   4  -1     -1.50    4.60  0. 1.0000     0. 
   4   1   1      9.90    5.90  0. 1.0000     0. 
   1   4  -2     34.70   11.50  0. 1.0000     0. 
   1  -4  -2     33.00   10.00  0. 1.0000     0. 
  -4   1   2     27.20   14.30  0. 1.0000     0. 
   4  -1   2     25.80    9.00  0. 1.0000     0. 
  -1  -4   2     31.70   11.50  0. 1.0000     0. 
   4   1  -2     35.90    7.50  0. 1.0000     0. 
  -1   4  -2     28.60    8.90  0. 1.0000     0. 
   1  -4   2     39.50   11.30  0. 1.0000     0. 
   4  -1  -2     33.60    9.90  0. 1.0000     0. 
  -1  -4  -2     24.90    9.00  0. 1.0000     0. 
   1  -4   2     29.50    9.20  0. 1.0000     0. 
  -4  -1   2     34.10   11.90  0. 1.0000     0. 
   4   1   2     32.40   10.10  0. 1.0000     0. 
   4  -1  -3      3.20    3.40  0. 1.0000     0. 
   4  -1   3      1.60    4.00  0. 1.0000     0. 
  -1   4  -3      1.20    0.80  0. 1.0000     0. 
  -1  -4  -3     -3.30    3.70  0. 1.0000     0. 
   1  -4  -3      0.20    2.60  0. 1.0000     0. 
  -1  -4   3      0.90    2.10  0. 1.0000     0. 
   1  -4   3     -8.30    6.00  0. 1.0000     0. 
  -4   1   3      4.80   11.70  0. 1.0000     0. 
   1   4  -3     -4.40    4.50  0. 1.0000     0. 
   1  -4   3     -0.10    3.40  0. 1.0000     0. 
   4   1   3      1.30    2.20  0. 1.0000     0. 
  -4  -1   3     -7.80    9.40  0. 1.0000     0. 
   1  -4   4     21.80   10.30  0. 1.0000     0. 
  -4  -1  -4     20.80    9.60  0. 1.0000     0. 
  -4  -1  -4     26.90   11.90  0. 1.0000     0. 
   1   4  -4     18.60    9.00  0. 1.0000     0. 
   1  -4  -4     21.10   10.90  0. 1.0000     0. 
  -4   1   4     33.80   14.60  0. 1.0000     0. 
  -4  -1   4     10.00    7.90  0. 1.0000     0. 
  -1   4  -4     31.40   12.90  0. 1.0000     0. 
   4  -1  -4     19.90    9.60  0. 1.0000     0. 
   1   4  -4     24.20   13.30  0. 1.0000     0. 
   4  -1   4     18.00    8.80  0. 1.0000     0. 
  -1  -4   4     14.60    6.50  0. 1.0000     0. 
  -1  -4  -4     12.30    7.70  0. 1.0000     0. 
   4   1   4     22.20    9.40  0. 1.0000     0. 
  -1   4  -4     20.60    9.80  0. 1.0000     0. 
  -1  -4   4      4.30    5.10  0. 1.0000     0. 
  -4   1  -5      1.00    2.20  0. 1.0000     0. 
  -4  -1   5     -3.70    5.40  0. 1.0000     0. 
  -1   4  -5      5.90    6.40  0. 1.0000     0. 
   1  -4   5     -0.30    6.30  0. 1.0000     0. 
  -1  -4   5     24.00   13.70  0. 1.0000     0. 
  -1  -4  -5    -23.60   11.50  0. 1.0000     0. 
   1   4  -5      6.40    7.70  0. 1.0000     0. 
   4   1  -5      5.90    2.40  0. 1.0000     0. 
  -1  -4  -5      0.30    1.20  0. 1.0000     0. 
   1  -4  -5    -11.80    8.20  0. 1.0000     0. 
  -1  -4   5    -24.70   11.80  0. 1.0000     0. 
   1  -4  -5      1.10    1.50  0. 1.0000     0. 
  -4  -1  -5     -1.60    3.10  0. 1.0000     0. 
   4  -1   5      3.20    4.30  0. 1.0000     0. 
   4   1  -6      2.00    3.10  0. 1.0000     0. 
   4  -1  -6      5.00    6.50  0. 1.0000     0. 
  -4  -1  -6      2.60    3.90  0. 1.0000     0. 
  -1   4  -6     -1.00    6.80  0. 1.0000     0. 
   1  -4  -6      4.20    5.30  0. 1.0000     0. 
  -4   1  -6     -1.10    2.30  0. 1.0000     0. 
   1   4  -6      1.60    5.00  0. 1.0000     0. 
   4   1  -7     -2.50    4.10  0. 1.0000     0. 
   1  -4  -7     -1.10    1.60  0. 1.0000     0. 
  -1  -4  -7      4.50    7.10  0. 1.0000     0. 
  -1   4  -7      0.40    4.70  0. 1.0000     0. 
  -4   1  -7     -6.90    5.10  0. 1.0000     0. 
   1   4  -7     -2.10    3.10  0. 1.0000     0. 
  -4  -1  -7     -0.40    4.70  0. 1.0000     0. 
  -4   1  -7      4.50    5.20  0. 1.0000     0. 
   4  -1  -7      0.30    5.00  0. 1.0000     0. 
  -2  -4   0   4522.05  104.29  0. 1.0000     0. 
  -4  -2   0   4806.72  127.89  0. 1.0000     0. 
  -2   4   0   4774.02   95.99  0. 1.0000     0. 
   4   2   0   5162.48  104.39  0. 1.0000     0. 
   2  -4   0   5100.69   83.29  0. 1.0000     0. 
   4  -2   0   4533.15  106.59  0. 1.0000     0. 
   2  -4   0   4787.12   91.69  0. 1.0000     0. 
   2   4   0   4703.93  127.59  0. 1.0000     0. 
   4  -2   1    261.07   25.40  0. 1.0000     0. 
  -4  -2  -1    349.07   31.10  0. 1.0000     0. 
  -2   4  -1    269.07   21.50  0. 1.0000     0. 
   2  -4   1    270.87   24.50  0. 1.0000     0. 
   4  -2  -1    272.67   26.90  0. 1.0000     0. 
   4   2   1    326.17   37.20  0. 1.0000     0. 
  -2   4   1    234.18   25.90  0. 1.0000     0. 
   2   4  -1    268.17   36.70  0. 1.0000     0. 
   2  -4  -1    264.57   25.10  0. 1.0000     0. 
  -4  -2   1    287.77   32.30  0. 1.0000     0. 
   4   2  -1    278.67   26.00  0. 1.0000     0. 
  -2  -4   1    344.27   36.40  0. 1.0000     0. 
   4  -2   2   3671.43  109.09  0. 1.0000     0. 
   2  -4   2   3876.71  108.79  0. 1.0000     0. 
  -2   4  -2   3933.31   99.69  0. 1.0000     0. 
   2  -4  -2   3896.41  111.09  0. 1.0000     0. 
  -4   2   2   3950.80  177.18  0. 1.0000     0. 
   4  -2  -2   3838.52  109.39  0. 1.0000     0. 
  -4  -2   2   3687.63  134.49  0. 1.0000     0. 
   4   2   2   3905.41  117.99  0. 1.0000     0. 
   2   4  -2   3614.44  125.19  0. 1.0000     0. 
  -2   4   2   3747.92   95.69  0. 1.0000     0. 
   4   2  -2   3821.82   97.59  0. 1.0000     0. 
   4   2   3    125.89   22.10  0. 1.0000     0. 
  -2   4  -3    130.59   21.20  0. 1.0000     0. 
   2   4  -3    145.69   28.20  0. 1.0000     0. 
   4  -2  -3    134.09   23.10  0. 1.0000     0. 
   4   2  -3    132.19   20.30  0. 1.0000     0. 
  -2  -4   3    100.89   24.60  0. 1.0000     0. 
  -4  -2   3    164.48   33.60  0. 1.0000     0. 
   4  -2   3    137.39   24.00  0. 1.0000     0. 
   2  -4  -3    124.19   22.70  0. 1.0000     0. 
  -4   2   3    136.29   31.30  0. 1.0000     0. 
   2  -4   3    126.29   22.70  0. 1.0000     0. 
  -2  -4  -3    117.79   23.60  0. 1.0000     0. 
   4   2  -4   3641.44  122.79  0. 1.0000     0. 
  -4  -2  -4   2407.96  121.09  0. 1.0000     0. 
  -4  -2   4   2620.94  155.98  0. 1.0000     0. 
   2  -4   4   3150.38  110.09  0. 1.0000     0. 
   4  -2  -4   2490.95  107.89  0. 1.0000     0. 
   4   2   4   2920.51  112.49  0. 1.0000     0. 
  -2  -4  -4   2396.86  118.99  0. 1.0000     0. 
  -2  -4  -4   2917.81  121.99  0. 1.0000     0. 
   4   2  -4   4115.19  176.48  0. 1.0000     0. 
   2  -4   4   2621.04  118.49  0. 1.0000     0. 
   4  -2   4   2674.53  119.59  0. 1.0000     0. 
   2   4  -4   2745.43  128.49  0. 1.0000     0. 
   2  -4  -4   2535.15  115.89  0. 1.0000     0. 
  -2  -4   4   2161.08  125.19  0. 1.0000     0. 
   2   4  -4   2711.23  135.99  0. 1.0000     0. 
  -4  -2  -4   2438.86  115.99  0. 1.0000     0. 
   4   2  -5     43.80   14.20  0. 1.0000     0. 
  -2  -4   5     37.00   17.70  0. 1.0000     0. 
  -2  -4  -5     39.10   15.50  0. 1.0000     0. 
  -4  -2  -5     37.40   15.00  0. 1.0000     0. 
   2  -4  -5     53.09   17.10  0. 1.0000     0. 
   2   4  -5     40.80   16.50  0. 1.0000     0. 
   2  -4   5     64.99   17.70  0. 1.0000     0. 
  -2   4  -5     41.30   15.70  0. 1.0000     0. 
   4   2  -5     44.90   17.40  0. 1.0000     0. 
   4  -2   5     62.79   20.00  0. 1.0000     0. 
  -2  -4   5     40.70   15.20  0. 1.0000     0. 
  -4   2  -5     59.69   16.70  0. 1.0000     0. 
  -4  -2   5     75.89   26.30  0. 1.0000     0. 
   2  -4   5     67.39   20.40  0. 1.0000     0. 
  -2  -4  -6    931.91   76.09  0. 1.0000     0. 
   2   4  -6   1056.69   86.69  0. 1.0000     0. 
   4   2  -6    926.91   62.59  0. 1.0000     0. 
   4  -2  -6    868.71   73.69  0. 1.0000     0. 
  -4  -2  -6    898.01   79.19  0. 1.0000     0. 
  -4   2  -6   1205.68   72.29  0. 1.0000     0. 
  -2   4  -6   1100.99   83.99  0. 1.0000     0. 
   4   2  -7     24.50    8.50  0. 1.0000     0. 
   2   4  -7     14.00    8.40  0. 1.0000     0. 
   4  -2  -7      6.80    5.50  0. 1.0000     0. 
  -4   2  -7     14.90    9.00  0. 1.0000     0. 
  -2   4  -7     16.30    8.70  0. 1.0000     0. 
   2  -4  -7     10.30    8.60  0. 1.0000     0. 
  -2  -4  -7      4.80    2.80  0. 1.0000     0. 
  -4  -2  -7     15.50    9.80  0. 1.0000     0. 
  -4  -3   0     41.90   11.00  0. 1.0000     0. 
   4   3   0     41.90   10.60  0. 1.0000     0. 
   4  -3   0     41.60   10.40  0. 1.0000     0. 
   3   4   0     38.80   11.30  0. 1.0000     0. 
   4  -3   0     49.80   11.30  0. 1.0000     0. 
   3  -4   0     45.30   10.20  0. 1.0000     0. 
  -3   4   0     46.00    7.40  0. 1.0000     0. 
  -3  -4   0     47.10   12.10  0. 1.0000     0. 
   3  -4   0     48.30    9.80  0. 1.0000     0. 
   4   3  -1      0.10    0.50  0. 1.0000     0. 
  -4  -3   1     -2.20    4.40  0. 1.0000     0. 
  -3   4   1      4.00    1.80  0. 1.0000     0. 
   4  -3   1     -7.60    4.60  0. 1.0000     0. 
   4  -3  -1      2.50    4.00  0. 1.0000     0. 
   3  -4  -1      0.80    3.50  0. 1.0000     0. 
  -3  -4   1      0.10    3.60  0. 1.0000     0. 
  -4  -3  -1     -0.40    1.00  0. 1.0000     0. 
  -3   4  -1      0.00    2.10  0. 1.0000     0. 
   3  -4   1      1.50    2.10  0. 1.0000     0. 
   3   4  -1      0.00    3.50  0. 1.0000     0. 
   4  -3  -2     29.70    9.30  0. 1.0000     0. 
   4   3   2     25.40   10.40  0. 1.0000     0. 
   4  -3   2     21.50    9.40  0. 1.0000     0. 
   3  -4  -2     29.80   10.30  0. 1.0000     0. 
  -3   4   2     47.40   18.00  0. 1.0000     0. 
  -4  -3   2     35.60   12.70  0. 1.0000     0. 
   3   4  -2     22.20   10.60  0. 1.0000     0. 
   4   3  -2     37.50   11.80  0. 1.0000     0. 
   3  -4   2     23.50    9.50  0. 1.0000     0. 
  -3  -4   2     45.30   16.10  0. 1.0000     0. 
  -4   3   2     28.80   16.80  0. 1.0000     0. 
  -3   4  -2     29.20    8.40  0. 1.0000     0. 
  -3   4  -3      1.40    2.10  0. 1.0000     0. 
   4  -3   3      2.30    3.20  0. 1.0000     0. 
  -3  -4  -3      1.00    1.80  0. 1.0000     0. 
   3   4  -3     -0.40    1.90  0. 1.0000     0. 
  -3  -4   3     -2.80    6.50  0. 1.0000     0. 
   3  -4  -3      7.30    5.60  0. 1.0000     0. 
   4  -3  -3      2.80    0.40  0. 1.0000     0. 
   3  -4   3      8.10    5.50  0. 1.0000     0. 
   4   3   3      2.40    4.20  0. 1.0000     0. 
   4   3  -3      9.00    7.20  0. 1.0000     0. 
  -4  -3   3      2.20    5.70  0. 1.0000     0. 
  -4   3   3     -8.60    6.70  0. 1.0000     0. 
  -3  -4   4     15.70   11.10  0. 1.0000     0. 
   4  -3  -4     15.10    9.70  0. 1.0000     0. 
   4  -3  -4     45.80   13.00  0. 1.0000     0. 
   4  -3  -4      8.90    7.10  0. 1.0000     0. 
  -4  -3  -4     16.50   11.00  0. 1.0000     0. 
   3   4  -4     14.90    6.00  0. 1.0000     0. 
   3  -4  -4     12.90    7.10  0. 1.0000     0. 
   3  -4   4     20.80   10.00  0. 1.0000     0. 
   4   3  -4     23.80   13.90  0. 1.0000     0. 
  -3  -4  -4     26.50   11.70  0. 1.0000     0. 
  -4  -3   4     15.00   11.80  0. 1.0000     0. 
   3   4  -4     14.30   13.00  0. 1.0000     0. 
   4   3  -4     25.90   15.90  0. 1.0000     0. 
   3  -4  -4     15.50   10.20  0. 1.0000     0. 
  -4  -3  -4     24.80   12.70  0. 1.0000     0. 
   3  -4   4     16.80    9.70  0. 1.0000     0. 
   4  -3   4      5.80    7.80  0. 1.0000     0. 
  -3  -4  -4      4.60    5.60  0. 1.0000     0. 
   4  -3  -5     -6.50    6.50  0. 1.0000     0. 
  -3  -4  -5      2.30    3.80  0. 1.0000     0. 
   4   3  -5     -3.70    5.30  0. 1.0000     0. 
   3  -4   5      1.70    2.90  0. 1.0000     0. 
   3   4  -5      1.20    2.50  0. 1.0000     0. 
  -4  -3  -5     -0.20    2.50  0. 1.0000     0. 
   4  -3   5     -2.60    3.50  0. 1.0000     0. 
   4  -3  -6      0.50    2.70  0. 1.0000     0. 
  -3  -4  -6      2.90    8.10  0. 1.0000     0. 
   3   4  -6      4.10    5.10  0. 1.0000     0. 
   4   3  -6      7.20    7.90  0. 1.0000     0. 
  -3   4  -6     10.40    9.30  0. 1.0000     0. 
  -4  -3  -6      4.40    5.40  0. 1.0000     0. 
  -4   3  -6      8.40    6.20  0. 1.0000     0. 
   4  -3   6     -2.60    3.10  0. 1.0000     0. 
   3  -4  -6      9.60    8.60  0. 1.0000     0. 
   3  -4   6     11.90    9.40  0. 1.0000     0. 
  -4  -3  -7      2.00    3.20  0. 1.0000     0. 
  -3   4  -7     -3.00    3.80  0. 1.0000     0. 
  -3  -4  -7      1.00    2.80  0. 1.0000     0. 
  -4   3  -7     -2.10    3.30  0. 1.0000     0. 
   4  -3  -7      6.70    8.60  0. 1.0000     0. 
   3  -4  -7     -2.50    2.80  0. 1.0000     0. 
  -4  -4   0   3477.65  104.59  0. 1.0000     0. 
   4   4   0   3467.95  109.39  0. 1.0000     0. 
   4  -4   0   3390.16   94.19  0. 1.0000     0. 
   4  -4   0   3148.39   93.99  0. 1.0000     0. 
   4  -4   1     -0.30    2.10  0. 1.0000     0. 
  -4  -4   1     -0.60    2.10  0. 1.0000     0. 
   4  -4  -1      3.50    4.50  0. 1.0000     0. 
   4   4  -1      0.60    2.70  0. 1.0000     0. 
   4   4   1      2.80    1.40  0. 1.0000     0. 
  -4   4   2   2463.35  154.18  0. 1.0000     0. 
   4  -4   2   2799.32  109.19  0. 1.0000     0. 
   4  -4  -2   2506.15   99.49  0. 1.0000     0. 
  -4  -4   2   2692.33  121.39  0. 1.0000     0. 
  -4   4  -2   2738.83   75.79  0. 1.0000     0. 
   4   4  -3     -2.20    1.20  0. 1.0000     0. 
   4  -4  -3      0.50    1.60  0. 1.0000     0. 
  -4  -4   3     -2.00    4.50  0. 1.0000     0. 
   4  -4   3      2.90    2.80  0. 1.0000     0. 
  -4  -4  -4   1394.96  102.99  0. 1.0000     0. 
   4  -4  -4   2036.40   95.49  0. 1.0000     0. 
   4  -4  -4   1674.53  113.39  0. 1.0000     0. 
   4   4  -4   1442.96  107.39  0. 1.0000     0. 
   4  -4  -4   1839.62  108.09  0. 1.0000     0. 
  -4  -4   4   1771.92  118.69  0. 1.0000     0. 
   4  -4   4   1892.61  111.29  0. 1.0000     0. 
   4   4  -4   1747.23  109.79  0. 1.0000     0. 
  -4  -4  -4   1730.53  124.09  0. 1.0000     0. 
   4  -4  -5     -2.30    4.50  0. 1.0000     0. 
  -4  -4  -5      3.20    3.40  0. 1.0000     0. 
   4   4  -5     -3.20    4.80  0. 1.0000     0. 
   4  -4   5     -6.80    5.80  0. 1.0000     0. 
   4   4  -6    817.02   66.79  0. 1.0000     0. 
  -4  -4  -6    623.64   65.49  0. 1.0000     0. 
   4  -4   6    794.42   55.69  0. 1.0000     0. 
   4  -4  -6    919.51   93.19  0. 1.0000     0. 
  -4   4  -6    754.72   67.59  0. 1.0000     0. 
  -4   4  -7     -0.80    1.90  0. 1.0000     0. 
   4  -4  -7      2.50    3.30  0. 1.0000     0. 
   5   0   0     -2.30    1.70  0. 1.0000     0. 
   0  -5   0     -1.20    2.60  0. 1.0000     0. 
   0   5   0     -1.60    4.40  0. 1.0000     0. 
   0  -5   1     16.90    7.10  0. 1.0000     0. 
   0  -5  -1     17.00    7.00  0. 1.0000     0. 
   0   5   1     16.60    8.50  0. 1.0000     0. 
  -5   0   1      4.10    3.70  0. 1.0000     0. 
   5   0   1     16.30    8.00  0. 1.0000     0. 
   0   5  -1     15.40    8.20  0. 1.0000     0. 
   5   0   2      2.20    1.70  0. 1.0000     0. 
   0  -5  -2      0.50    1.00  0. 1.0000     0. 
  -5   0   2     -3.00    3.70  0. 1.0000     0. 
   0   5  -2     -1.20    3.10  0. 1.0000     0. 
   5   0   3      9.90    8.70  0. 1.0000     0. 
   0   5  -3      9.70    7.90  0. 1.0000     0. 
   0  -5  -3      2.10    1.30  0. 1.0000     0. 
   0  -5   3     13.30   10.10  0. 1.0000     0. 
   0  -5   3      3.30    1.30  0. 1.0000     0. 
  -5   0   3     11.80    8.50  0. 1.0000     0. 
  -5   0  -4      2.30    4.50  0. 1.0000     0. 
   0  -5  -4     -9.70    7.40  0. 1.0000     0. 
   0  -5  -4      5.30    4.70  0. 1.0000     0. 
   0   5  -4     -0.70    2.40  0. 1.0000     0. 
   0   5  -4      0.80    1.40  0. 1.0000     0. 
   0  -5   4     -8.80    6.10  0. 1.0000     0. 
   0  -5   4     -3.60    5.30  0. 1.0000     0. 
   5   0   4     11.80    8.10  0. 1.0000     0. 
   5   0  -4      2.20    5.60  0. 1.0000     0. 
   0  -5   4      2.50    3.80  0. 1.0000     0. 
  -5   0   4     -3.70    6.30  0. 1.0000     0. 
   5   0  -5      9.30    9.10  0. 1.0000     0. 
   0   5  -5      2.50    3.90  0. 1.0000     0. 
   0  -5  -5     -5.40    9.00  0. 1.0000     0. 
  -5   0  -5      1.40    3.00  0. 1.0000     0. 
   0   5  -6     -1.80    4.80  0. 1.0000     0. 
   0  -5  -6     -0.20    1.00  0. 1.0000     0. 
  -5   0  -6     -3.90    6.50  0. 1.0000     0. 
   5   0  -6     -2.00    2.30  0. 1.0000     0. 
   0  -5  -7     -1.70    5.20  0. 1.0000     0. 
  -5   0  -7      1.80    2.60  0. 1.0000     0. 
   5   0  -7      2.80    3.30  0. 1.0000     0. 
   1   5   0   3519.45  119.99  0. 1.0000     0. 
   1  -5   0   3946.01   79.99  0. 1.0000     0. 
   5  -1   0   3664.33  121.79  0. 1.0000     0. 
   5   1   0   3898.01  144.99  0. 1.0000     0. 
  -1   5   0   3503.85  116.79  0. 1.0000     0. 
  -5  -1   0   3728.73  127.09  0. 1.0000     0. 
   1  -5   0   3859.31   85.99  0. 1.0000     0. 
  -1  -5   0   3746.43   93.59  0. 1.0000     0. 
  -1  -5   0   3298.27   90.79  0. 1.0000     0. 
  -1  -5   1      8.80    6.30  0. 1.0000     0. 
   1  -5   1      9.60    4.40  0. 1.0000     0. 
   1   5   1      9.90    5.50  0. 1.0000     0. 
  -1   5  -1     10.80    6.30  0. 1.0000     0. 
  -1  -5  -1      5.80    5.20  0. 1.0000     0. 
   5   1   1      4.30    2.60  0. 1.0000     0. 
   1   5  -1     13.00    7.10  0. 1.0000     0. 
   1  -5  -1      6.50    3.50  0. 1.0000     0. 
  -1   5   1      9.20    6.40  0. 1.0000     0. 
   5  -1   1      5.10    4.40  0. 1.0000     0. 
  -5   1   1      4.70    4.90  0. 1.0000     0. 
  -5  -1   1     12.80    8.40  0. 1.0000     0. 
  -5  -1   2   2795.12  119.19  0. 1.0000     0. 
  -1   5  -2   2996.80   99.59  0. 1.0000     0. 
   1  -5   2   2959.40  102.39  0. 1.0000     0. 
  -5   1   2   3186.88  144.49  0. 1.0000     0. 
   5   1   2   3097.29  114.29  0. 1.0000     0. 
   5  -1   2   2812.02  101.29  0. 1.0000     0. 
  -1  -5  -2   2941.31  116.39  0. 1.0000     0. 
   1  -5  -2   2909.51  103.39  0. 1.0000     0. 
  -1  -5   2   2718.13  114.69  0. 1.0000     0. 
   1   5  -2   2895.91  122.79  0. 1.0000     0. 
  -1  -5   3      5.30    5.50  0. 1.0000     0. 
  -1  -5  -3      6.20    6.60  0. 1.0000     0. 
   1  -5  -3      3.90    2.40  0. 1.0000     0. 
   5   1   3      5.20    5.00  0. 1.0000     0. 
   1  -5   3      0.90    5.30  0. 1.0000     0. 
  -5  -1   3     12.90    9.40  0. 1.0000     0. 
  -5   1   3      1.70    8.60  0. 1.0000     0. 
   1   5  -3      5.10    6.70  0. 1.0000     0. 
  -1   5  -3      5.00    4.60  0. 1.0000     0. 
   5  -1   3     12.30    7.60  0. 1.0000     0. 
   5  -1  -3      6.20    5.20  0. 1.0000     0. 
  -1  -5  -4   2769.62  116.69  0. 1.0000     0. 
   1   5  -4   2178.48  128.29  0. 1.0000     0. 
   5   1   4   2413.46  113.39  0. 1.0000     0. 
   5  -1  -4   2064.29  113.19  0. 1.0000     0. 
   1  -5  -4   2909.81  113.49  0. 1.0000     0. 
   1  -5  -4   1913.01  106.49  0. 1.0000     0. 
  -1   5  -4   2081.29  107.09  0. 1.0000     0. 
  -5   1  -4   2782.52  115.59  0. 1.0000     0. 
   1  -5   4   2332.77   99.29  0. 1.0000     0. 
  -1  -5  -4   2898.81  114.09  0. 1.0000     0. 
  -1  -5   4   1936.31  114.29  0. 1.0000     0. 
   5   1  -4   2113.79  104.79  0. 1.0000     0. 
   1   5  -4   1966.50  111.39  0. 1.0000     0. 
   5  -1   4   2355.16  116.79  0. 1.0000     0. 
   1  -5   4   2032.40  110.59  0. 1.0000     0. 
  -5  -1  -4   2182.08  124.09  0. 1.0000     0. 
  -1   5  -4   2024.40  107.59  0. 1.0000     0. 
  -1  -5  -4   1908.61  110.19  0. 1.0000     0. 
  -5   1   4   2333.07  151.58  0. 1.0000     0. 
  -5  -1   4   2713.13  170.68  0. 1.0000     0. 
  -1  -5   4   1953.20  120.89  0. 1.0000     0. 
   5  -1  -5      0.50    4.60  0. 1.0000     0. 
   1  -5  -5    -12.00    8.30  0. 1.0000     0. 
   1   5  -5      6.40    6.20  0. 1.0000     0. 
  -1  -5  -5      5.50    5.80  0. 1.0000     0. 
  -5  -1  -5      2.50    5.00  0. 1.0000     0. 
   1  -5   5     -6.70    5.60  0. 1.0000     0. 
  -1   5  -5     -0.70    2.70  0. 1.0000     0. 
  -5   1  -5     -9.30    6.60  0. 1.0000     0. 
   5   1  -5      0.90    1.20  0. 1.0000     0. 
  -5   1  -6    864.71   63.09  0. 1.0000     0. 
  -5  -1  -6    869.21   76.99  0. 1.0000     0. 
   1   5  -6    759.12   69.19  0. 1.0000     0. 
   5  -1  -6    809.72   72.79  0. 1.0000     0. 
   5  -1   6   1070.19   66.99  0. 1.0000     0. 
  -1  -5  -6    832.22   70.09  0. 1.0000     0. 
  -1   5  -6    877.51   72.89  0. 1.0000     0. 
   5   1  -6    818.02   65.49  0. 1.0000     0. 
   1  -5  -7      4.90    6.00  0. 1.0000     0. 
  -5   1  -7     -5.30    4.30  0. 1.0000     0. 
   1   5  -7      4.10    4.70  0. 1.0000     0. 
  -1   5  -7     -3.40    4.00  0. 1.0000     0. 
  -5  -1  -7     -1.40    4.00  0. 1.0000     0. 
   5  -1  -7     -3.00    5.60  0. 1.0000     0. 
  -5   1  -7      0.80    2.20  0. 1.0000     0. 
   5   1  -7     -3.30    3.30  0. 1.0000     0. 
  -2  -5   0      1.70    1.40  0. 1.0000     0. 
   2  -5   0      3.80    3.00  0. 1.0000     0. 
   2   5   0      2.60    4.50  0. 1.0000     0. 
  -2   5   0      0.30    0.90  0. 1.0000     0. 
  -5  -2   0      9.70    4.90  0. 1.0000     0. 
   5  -2   0      9.50    7.00  0. 1.0000     0. 
   2  -5   0      5.20    3.40  0. 1.0000     0. 
   5   2   0      5.30    2.50  0. 1.0000     0. 
   2   5  -1    127.39   27.90  0. 1.0000     0. 
   2   5   1    112.69   21.20  0. 1.0000     0. 
  -2  -5   1    120.79   21.60  0. 1.0000     0. 
   5   2   1    143.69   28.20  0. 1.0000     0. 
  -2   5   1    120.79   20.20  0. 1.0000     0. 
   2  -5   1    108.19   17.20  0. 1.0000     0. 
   5  -2   1    128.29   20.90  0. 1.0000     0. 
   5   2  -1    152.18   18.10  0. 1.0000     0. 
  -5  -2  -1    138.29   23.10  0. 1.0000     0. 
   2  -5  -1    134.59   19.70  0. 1.0000     0. 
  -5  -2   1    163.68   27.60  0. 1.0000     0. 
  -2   5  -1    115.09   16.50  0. 1.0000     0. 
  -2  -5   2     -0.30    4.50  0. 1.0000     0. 
  -5  -2   2      5.50    5.40  0. 1.0000     0. 
   2  -5  -2      1.50    2.40  0. 1.0000     0. 
  -2  -5  -2     -1.00    5.00  0. 1.0000     0. 
  -5   2   2      3.20    4.70  0. 1.0000     0. 
   2  -5   2      4.50    4.80  0. 1.0000     0. 
   5   2  -2      3.60    2.90  0. 1.0000     0. 
   5  -2   2     -3.10    5.00  0. 1.0000     0. 
   5   2   2      6.70    6.90  0. 1.0000     0. 
   2   5  -2     -1.70    3.10  0. 1.0000     0. 
  -2   5  -2      1.60    1.50  0. 1.0000     0. 
   5  -2  -2     -0.80    1.90  0. 1.0000     0. 
   5  -2  -3     49.90   15.60  0. 1.0000     0. 
  -2  -5   3     25.80   13.30  0. 1.0000     0. 
  -5   2   3     54.69   22.30  0. 1.0000     0. 
   5   2   3     46.50   16.60  0. 1.0000     0. 
  -2   5  -3     50.59   14.50  0. 1.0000     0. 
   5  -2   3     38.90   13.50  0. 1.0000     0. 
   2  -5  -3     56.79   17.10  0. 1.0000     0. 
   2  -5   3     43.10   14.20  0. 1.0000     0. 
  -2  -5  -3     54.49   18.20  0. 1.0000     0. 
  -5  -2   3     65.79   21.00  0. 1.0000     0. 
   2   5  -3     47.00   18.70  0. 1.0000     0. 
   5  -2  -4     -1.60    4.50  0. 1.0000     0. 
  -2  -5   4     19.60   12.00  0. 1.0000     0. 
   5   2  -4    -20.10   11.80  0. 1.0000     0. 
  -2  -5  -4      1.50    2.90  0. 1.0000     0. 
   2   5  -4      8.60    7.90  0. 1.0000     0. 
   2  -5  -4      3.30    4.40  0. 1.0000     0. 
  -5  -2   4      2.00   11.20  0. 1.0000     0. 
  -2   5  -4     -9.40    6.60  0. 1.0000     0. 
  -2  -5  -4      9.00    7.00  0. 1.0000     0. 
  -5  -2  -4     16.80   10.70  0. 1.0000     0. 
  -5  -2  -4     -3.60    5.20  0. 1.0000     0. 
   2   5  -4      6.30    2.70  0. 1.0000     0. 
  -2   5  -4      0.70    6.00  0. 1.0000     0. 
   2  -5   4     -2.10    3.40  0. 1.0000     0. 
   2  -5   4      1.20    2.40  0. 1.0000     0. 
  -2  -5  -4    -10.00    6.90  0. 1.0000     0. 
   5  -2   4    -11.90    8.20  0. 1.0000     0. 
   5   2   4      5.00    5.00  0. 1.0000     0. 
   2  -5  -4     -6.80    5.50  0. 1.0000     0. 
   5   2  -4      2.90    3.90  0. 1.0000     0. 
   5  -2  -4     18.80    9.70  0. 1.0000     0. 
  -5  -2  -5     21.90   11.80  0. 1.0000     0. 
  -2   5  -5     18.20   11.10  0. 1.0000     0. 
   2   5  -5     12.10    8.00  0. 1.0000     0. 
  -2  -5  -5     18.70   10.20  0. 1.0000     0. 
  -5   2  -5     31.00   11.30  0. 1.0000     0. 
   2  -5   5     14.90    7.30  0. 1.0000     0. 
   5   2  -5     26.40   12.20  0. 1.0000     0. 
   5  -2  -5     28.30   16.30  0. 1.0000     0. 
   2  -5  -6      3.20    4.50  0. 1.0000     0. 
  -5   2  -6      1.00    1.90  0. 1.0000     0. 
   2   5  -6      2.20    1.60  0. 1.0000     0. 
  -5  -2  -6     -0.90    3.70  0. 1.0000     0. 
  -2   5  -6     -0.40    2.00  0. 1.0000     0. 
   5  -2   6      2.40    3.20  0. 1.0000     0. 
   5  -2  -6     -2.20    4.70  0. 1.0000     0. 
   5   2  -6      8.00    6.50  0. 1.0000     0. 
  -2   5  -7     12.10    7.50  0. 1.0000     0. 
   2   5  -7      1.60    2.50  0. 1.0000     0. 
  -5  -2  -7      3.10    1.30  0. 1.0000     0. 
  -2  -5  -7      9.80    6.80  0. 1.0000     0. 
   5  -2  -7      3.70    0.80  0. 1.0000     0. 
   2  -5  -7      4.40    5.50  0. 1.0000     0. 
  -3   5   0   3868.11   85.19  0. 1.0000     0. 
   3  -5   0   4150.08   96.39  0. 1.0000     0. 
   5  -3   0   3402.76  111.79  0. 1.0000     0. 
   3   5   0   3533.55  121.09  0. 1.0000     0. 
   5   3   0   4065.79  107.59  0. 1.0000     0. 
   3  -5   0   3883.51  102.89  0. 1.0000     0. 
  -5  -3   0   3649.14  115.39  0. 1.0000     0. 
  -3  -5   0   4125.39  102.99  0. 1.0000     0. 
  -3  -5   1     -9.80    6.20  0. 1.0000     0. 
   5   3  -1      0.70    3.30  0. 1.0000     0. 
   5  -3   1      4.70    5.40  0. 1.0000     0. 
   3   5   1      2.70    0.80  0. 1.0000     0. 
   5   3   1      4.10    3.00  0. 1.0000     0. 
  -3   5   1     12.30    5.10  0. 1.0000     0. 
   3  -5  -1      2.30    3.70  0. 1.0000     0. 
   3  -5   1      3.50    2.60  0. 1.0000     0. 
  -3   5  -1      5.50    3.20  0. 1.0000     0. 
   3   5  -1      8.30    5.40  0. 1.0000     0. 
  -5  -3  -1     -1.30    2.90  0. 1.0000     0. 
  -5  -3   1     11.00    8.60  0. 1.0000     0. 
   5  -3  -1      6.10    5.10  0. 1.0000     0. 
   5   3  -2   2877.61  103.49  0. 1.0000     0. 
  -3   5  -2   3099.69   94.29  0. 1.0000     0. 
   5  -3   2   2960.80  114.39  0. 1.0000     0. 
   5   3   2   2832.22  122.59  0. 1.0000     0. 
   3  -5   2   2991.30  108.79  0. 1.0000     0. 
   5  -3  -2   2806.42  107.29  0. 1.0000     0. 
   3  -5  -2   3008.90  113.69  0. 1.0000     0. 
  -5   3   2   2861.31  157.48  0. 1.0000     0. 
  -5  -3   2   3080.49  133.09  0. 1.0000     0. 
  -3  -5   2   3098.19  128.39  0. 1.0000     0. 
  -3  -5   3      4.60    5.50  0. 1.0000     0. 
   5  -3  -3     -1.40    2.60  0. 1.0000     0. 
  -3  -5  -3     10.50    4.50  0. 1.0000     0. 
   3   5  -3      0.50    2.70  0. 1.0000     0. 
  -3   5  -3      8.50    5.30  0. 1.0000     0. 
   3   5  -3     -9.10    8.00  0. 1.0000     0. 
  -5  -3  -3     15.30    9.50  0. 1.0000     0. 
   3  -5  -3     -3.80    4.00  0. 1.0000     0. 
   3  -5  -3     11.50    7.70  0. 1.0000     0. 
   3  -5   3     14.80    7.70  0. 1.0000     0. 
   3  -5   3      2.70    5.50  0. 1.0000     0. 
   5  -3   3      7.30    5.70  0. 1.0000     0. 
  -5  -3   3      2.40    1.30  0. 1.0000     0. 
   5   3   3      0.30    2.90  0. 1.0000     0. 
   5  -3  -3      9.30   10.40  0. 1.0000     0. 
   3   5  -4   1595.24  110.09  0. 1.0000     0. 
   3  -5  -4   2133.09  117.29  0. 1.0000     0. 
   5  -3  -4   2279.87   98.69  0. 1.0000     0. 
  -3  -5  -4   1970.50  129.99  0. 1.0000     0. 
   3  -5  -4   2146.09  102.09  0. 1.0000     0. 
   3  -5   4   1952.90   98.89  0. 1.0000     0. 
   3   5  -4   1848.72  126.79  0. 1.0000     0. 
  -3  -5  -4   1857.61  111.89  0. 1.0000     0. 
   5  -3   4   2103.39  116.29  0. 1.0000     0. 
   5  -3  -4   1958.20  124.09  0. 1.0000     0. 
   3  -5  -4   2226.28  135.79  0. 1.0000     0. 
   5   3  -4   2272.47  133.09  0. 1.0000     0. 
  -5  -3  -4   1567.64  116.99  0. 1.0000     0. 
   5  -3  -4   2108.59  111.39  0. 1.0000     0. 
   3  -5   4   2115.39  116.79  0. 1.0000     0. 
  -5  -3   4   2301.47  138.19  0. 1.0000     0. 
  -3  -5   4   1884.41  120.79  0. 1.0000     0. 
  -5  -3  -4   2021.80  131.69  0. 1.0000     0. 
   3  -5  -5     -3.80    5.90  0. 1.0000     0. 
   3  -5   5     -2.70    6.90  0. 1.0000     0. 
  -3   5  -5     -0.30    1.30  0. 1.0000     0. 
   5   3  -5     -0.90    3.70  0. 1.0000     0. 
  -5  -3  -5      5.70    9.10  0. 1.0000     0. 
   3   5  -5     -0.10    1.00  0. 1.0000     0. 
  -3  -5  -5      3.60    4.80  0. 1.0000     0. 
   5  -3  -5      1.60    2.90  0. 1.0000     0. 
  -5  -3  -6    533.15   62.39  0. 1.0000     0. 
   3  -5   6    982.80   61.29  0. 1.0000     0. 
   3   5  -6    754.02   66.79  0. 1.0000     0. 
   5  -3  -6    931.91   86.89  0. 1.0000     0. 
   3  -5  -6   1084.29   96.69  0. 1.0000     0. 
   5  -3   6    899.91   60.19  0. 1.0000     0. 
  -3  -5  -6    747.23   66.89  0. 1.0000     0. 
  -3   5  -6    819.22   69.09  0. 1.0000     0. 
  -5  -3  -7      3.40    4.70  0. 1.0000     0. 
  -5   3  -7     -6.70    5.80  0. 1.0000     0. 
   3   5  -7     -4.50    2.80  0. 1.0000     0. 
  -3  -5  -7      5.90    4.50  0. 1.0000     0. 
  -3   5  -7      3.00    2.20  0. 1.0000     0. 
   5  -3  -7     -1.20    5.90  0. 1.0000     0. 
   3  -5  -7     -2.90    3.70  0. 1.0000     0. 
   4  -5   0      4.40    3.70  0. 1.0000     0. 
   4   5   0     12.60    8.70  0. 1.0000     0. 
   5   4   0      4.90    4.10  0. 1.0000     0. 
   5  -4   0     13.60    6.90  0. 1.0000     0. 
  -5  -4   0     -3.10    3.30  0. 1.0000     0. 
   5  -4  -1     51.49   14.60  0. 1.0000     0. 
   4   5  -1     74.79   18.80  0. 1.0000     0. 
   4   5   1     49.80   14.70  0. 1.0000     0. 
   5   4   1     78.49   16.80  0. 1.0000     0. 
   4  -5   1     69.79   16.20  0. 1.0000     0. 
   5  -4   1     69.79   17.00  0. 1.0000     0. 
   4  -5  -1     75.29   17.60  0. 1.0000     0. 
   5   4  -1     71.29   16.20  0. 1.0000     0. 
  -5  -4   1     62.29   16.80  0. 1.0000     0. 
  -4  -5   1     66.79   17.30  0. 1.0000     0. 
  -4  -5   2     16.00    9.10  0. 1.0000     0. 
   4  -5  -2      0.50    1.50  0. 1.0000     0. 
   5   4  -2     -2.90    3.50  0. 1.0000     0. 
   4   5  -2      0.40    2.90  0. 1.0000     0. 
   4  -5   2     12.60    9.50  0. 1.0000     0. 
   5  -4  -2      0.00    7.00  0. 1.0000     0. 
   5  -4   2      2.00    0.50  0. 1.0000     0. 
  -5  -4   2      4.30    4.10  0. 1.0000     0. 
  -4  -5   3     73.39   23.70  0. 1.0000     0. 
   5   4  -3     63.09   21.20  0. 1.0000     0. 
   4  -5  -3     46.50   16.30  0. 1.0000     0. 
  -4  -5  -3     34.00   14.60  0. 1.0000     0. 
   4   5  -3     40.60   17.20  0. 1.0000     0. 
   5  -4  -3     34.80   13.80  0. 1.0000     0. 
   4  -5  -3     63.89   17.60  0. 1.0000     0. 
  -5  -4  -3     65.19   21.90  0. 1.0000     0. 
  -4  -5  -3     71.89   21.20  0. 1.0000     0. 
   4  -5   3     52.79   16.50  0. 1.0000     0. 
   4   5  -3     52.49   18.50  0. 1.0000     0. 
   4  -5   3     53.79   17.30  0. 1.0000     0. 
   5  -4   3     50.99   18.00  0. 1.0000     0. 
   5   4  -3     81.19   20.40  0. 1.0000     0. 
   5  -4  -3     66.29   17.30  0. 1.0000     0. 
   5  -4  -3     79.09   27.70  0. 1.0000     0. 
  -5  -4   3     61.09   21.70  0. 1.0000     0. 
  -4  -5   4      1.10    2.80  0. 1.0000     0. 
  -5  -4  -4     -4.70    8.50  0. 1.0000     0. 
   5   4  -4      5.20    8.40  0. 1.0000     0. 
  -4  -5  -4      4.40    5.80  0. 1.0000     0. 
   4   5  -4     14.10   10.80  0. 1.0000     0. 
   4  -5  -4      0.30    4.30  0. 1.0000     0. 
   4  -5   4      0.30    3.70  0. 1.0000     0. 
   5  -4  -4      0.80    2.00  0. 1.0000     0. 
   4  -5   4      7.50    7.20  0. 1.0000     0. 
   5  -4   4     -5.00    8.30  0. 1.0000     0. 
   5  -4  -4      6.70   10.70  0. 1.0000     0. 
   4  -5  -4     13.70    5.50  0. 1.0000     0. 
  -5  -4  -5     12.90   10.20  0. 1.0000     0. 
  -4  -5  -5     17.70   11.00  0. 1.0000     0. 
   5   4  -5     20.40   11.60  0. 1.0000     0. 
   4   5  -5     21.20   10.10  0. 1.0000     0. 
  -4   5  -5     22.30   12.30  0. 1.0000     0. 
   4  -5   5     11.30    7.70  0. 1.0000     0. 
   4  -5  -5     18.00    8.90  0. 1.0000     0. 
   5  -4   5     16.20    8.90  0. 1.0000     0. 
   5  -4  -5     18.80   15.00  0. 1.0000     0. 
   4  -5  -5     23.90   16.20  0. 1.0000     0. 
   4   5  -6     -0.60    0.60  0. 1.0000     0. 
   4  -5  -6     -6.50    3.80  0. 1.0000     0. 
  -4   5  -6     -2.40    3.00  0. 1.0000     0. 
  -5  -4  -6      0.90    4.40  0. 1.0000     0. 
  -5   4  -6     -1.60    3.00  0. 1.0000     0. 
   4  -5   6      2.40    2.90  0. 1.0000     0. 
   5  -4   6      5.10    3.70  0. 1.0000     0. 
  -4  -5  -6      4.40    5.50  0. 1.0000     0. 
   5   4  -6     -0.70    3.50  0. 1.0000     0. 
   5  -4  -6      6.30   11.60  0. 1.0000     0. 
  -4   5  -7      5.00    4.20  0. 1.0000     0. 
  -5   4  -7     -5.20    5.60  0. 1.0000     0. 
  -5  -4  -7     -1.80    2.20  0. 1.0000     0. 
   5   5   0    958.00   63.79  0. 1.0000     0. 
   5  -5  -1      3.20    3.80  0. 1.0000     0. 
   5   5  -1     -3.60    3.80  0. 1.0000     0. 
   5   5   1      6.30    4.50  0. 1.0000     0. 
   5  -5   1      0.00    0.40  0. 1.0000     0. 
  -5  -5   1      5.30    3.60  0. 1.0000     0. 
   5  -5  -2    921.51   72.29  0. 1.0000     0. 
   5  -5  -2    918.71   66.19  0. 1.0000     0. 
   5   5  -2    869.31   73.89  0. 1.0000     0. 
   5   5   2    689.73   57.59  0. 1.0000     0. 
   5  -5   2    956.10   73.19  0. 1.0000     0. 
  -5  -5   2    899.81   72.29  0. 1.0000     0. 
   5   5  -2    829.02   63.29  0. 1.0000     0. 
  -5  -5   3     10.40    8.30  0. 1.0000     0. 
   5  -5  -3    -22.00   11.90  0. 1.0000     0. 
   5  -5  -3      1.60    1.40  0. 1.0000     0. 
  -5  -5  -3      3.00    6.80  0. 1.0000     0. 
   5   5  -3      6.60    6.10  0. 1.0000     0. 
   5   5  -3     -6.70    6.60  0. 1.0000     0. 
   5  -5   3      1.70    3.40  0. 1.0000     0. 
   5  -5   3      4.80    4.90  0. 1.0000     0. 
   5  -5  -3    -18.30   14.90  0. 1.0000     0. 
   5   5  -4    553.54   62.89  0. 1.0000     0. 
   5  -5  -4    687.83   60.59  0. 1.0000     0. 
   5  -5   4    593.34   59.89  0. 1.0000     0. 
  -5  -5  -4    643.74   73.89  0. 1.0000     0. 
   5  -5  -5      1.30    4.30  0. 1.0000     0. 
   5  -5   5    -11.30    7.50  0. 1.0000     0. 
   5   5  -5      0.50    5.00  0. 1.0000     0. 
  -5  -5  -5    -12.10    9.10  0. 1.0000     0. 
   5  -5  -5    -10.90    1.50  0. 1.0000     0. 
   5  -5   6    325.27   33.70  0. 1.0000     0. 
  -5  -5  -6    366.96   41.30  0. 1.0000     0. 
  -5   5  -6    324.27   38.90  0. 1.0000     0. 
   5   5  -6    393.76   37.20  0. 1.0000     0. 
   6   0   0   3155.68  138.49  0. 1.0000     0. 
   0   6   0   2946.81  120.89  0. 1.0000     0. 
   0  -6   0   3139.19   89.19  0. 1.0000     0. 
   0   6  -1      5.10    6.30  0. 1.0000     0. 
   0  -6  -1      1.30    4.30  0. 1.0000     0. 
   0   6   1      1.70    2.20  0. 1.0000     0. 
   6   0   1      1.60    4.00  0. 1.0000     0. 
  -6   0   1      6.90    7.90  0. 1.0000     0. 
   6   0   2   2190.18  104.79  0. 1.0000     0. 
  -6   0   2   2277.17  118.29  0. 1.0000     0. 
   0  -6  -2   2242.18  104.99  0. 1.0000     0. 
   0  -6   2   2314.87  116.59  0. 1.0000     0. 
   0   6  -2   2446.66  117.19  0. 1.0000     0. 
   0  -6   3      5.40    5.00  0. 1.0000     0. 
   0   6  -3     -3.90    5.00  0. 1.0000     0. 
   0   6  -3      3.90    6.40  0. 1.0000     0. 
   0  -6  -3      9.70    9.10  0. 1.0000     0. 
  -6   0  -3    -11.80    8.00  0. 1.0000     0. 
   0  -6  -3      8.60    6.40  0. 1.0000     0. 
   6   0  -3     14.20    8.30  0. 1.0000     0. 
   0  -6   3      6.80    3.90  0. 1.0000     0. 
   6   0   3    -16.90   11.50  0. 1.0000     0. 
   6   0   3    -19.60   10.90  0. 1.0000     0. 
   0  -6   3     -9.40    7.10  0. 1.0000     0. 
  -6   0   3    -21.00   12.70  0. 1.0000     0. 
   0  -6  -4   1574.64   91.39  0. 1.0000     0. 
  -6   0  -4   1679.03  105.89  0. 1.0000     0. 
   6   0  -4   1478.45  101.99  0. 1.0000     0. 
   0  -6   4   1558.44   88.49  0. 1.0000     0. 
   0   6  -4   1576.64  103.09  0. 1.0000     0. 
   0  -6   4   1665.53  109.69  0. 1.0000     0. 
   0   6  -4   1778.82  116.69  0. 1.0000     0. 
   0  -6  -4   1533.55  104.99  0. 1.0000     0. 
   0   6  -5      0.90    7.20  0. 1.0000     0. 
  -6   0  -5    -14.20    9.30  0. 1.0000     0. 
   0  -6   5     17.40    9.40  0. 1.0000     0. 
   6   0  -5     -1.30    6.70  0. 1.0000     0. 
  -6   0  -6    673.63   59.99  0. 1.0000     0. 
   6   0  -6    608.24   60.39  0. 1.0000     0. 
   0   6  -6    624.94   60.19  0. 1.0000     0. 
   0   6  -7     -1.10    1.90  0. 1.0000     0. 
  -6   0  -7     -0.20    0.80  0. 1.0000     0. 
   6   0  -7     -4.20    5.00  0. 1.0000     0. 
   6  -1   0    140.39   28.60  0. 1.0000     0. 
   1   6   0    135.19   25.10  0. 1.0000     0. 
  -1   6   0    136.09   25.40  0. 1.0000     0. 
  -6  -1   0    132.59   26.00  0. 1.0000     0. 
   1  -6   0    161.78   20.40  0. 1.0000     0. 
  -1  -6   0    153.98   22.70  0. 1.0000     0. 
  -6   1   1      2.50    3.80  0. 1.0000     0. 
  -1   6  -1      1.50    2.60  0. 1.0000     0. 
  -1  -6  -1      1.60    4.50  0. 1.0000     0. 
  -1   6   1      0.60    3.10  0. 1.0000     0. 
  -1  -6   1     10.00    8.20  0. 1.0000     0. 
   1  -6  -1      4.50    3.20  0. 1.0000     0. 
   1   6   1      1.50    1.20  0. 1.0000     0. 
   1  -6   1      6.60    4.30  0. 1.0000     0. 
   6  -1   1      4.50    3.40  0. 1.0000     0. 
   6   1   1      9.80    8.40  0. 1.0000     0. 
  -6  -1  -1     11.00    8.50  0. 1.0000     0. 
  -6  -1   1      6.70    6.20  0. 1.0000     0. 
   1   6  -1     -0.50    1.10  0. 1.0000     0. 
  -1   6   2     95.89   23.10  0. 1.0000     0. 
   1   6  -2     98.69   26.10  0. 1.0000     0. 
   1  -6   2     95.79   19.50  0. 1.0000     0. 
   6  -1   2    113.69   22.60  0. 1.0000     0. 
   6   1   2    107.29   25.00  0. 1.0000     0. 
  -6  -1   2    100.79   23.90  0. 1.0000     0. 
   1  -6  -2    122.19   23.60  0. 1.0000     0. 
  -1  -6   2    104.89   24.40  0. 1.0000     0. 
  -1  -6  -2    110.99   25.20  0. 1.0000     0. 
  -6   1   2     90.59   25.10  0. 1.0000     0. 
  -1   6  -2     90.69   20.10  0. 1.0000     0. 
   6   1  -3     10.90    9.20  0. 1.0000     0. 
  -1  -6  -3      2.40    3.90  0. 1.0000     0. 
   1   6  -3     -5.80    5.90  0. 1.0000     0. 
  -1  -6   3     -3.10    4.60  0. 1.0000     0. 
   1  -6  -3      2.80    2.80  0. 1.0000     0. 
  -6  -1  -3     -8.30    7.50  0. 1.0000     0. 
   1  -6  -3      5.40    5.50  0. 1.0000     0. 
  -1  -6   3      5.90    4.90  0. 1.0000     0. 
   1  -6   3    -10.00    6.90  0. 1.0000     0. 
  -1   6  -3      2.10    3.30  0. 1.0000     0. 
  -1   6  -3     -3.00    3.90  0. 1.0000     0. 
   6   1   3      2.00    8.40  0. 1.0000     0. 
   6  -1   3      7.20    9.20  0. 1.0000     0. 
   1  -6   3      0.10    5.00  0. 1.0000     0. 
   6  -1   3    -10.40    7.70  0. 1.0000     0. 
   6   1   3      0.90    5.00  0. 1.0000     0. 
  -1  -6  -3     -5.70    5.40  0. 1.0000     0. 
  -6   1   3     11.20    9.90  0. 1.0000     0. 
   6  -1  -3      0.50    6.20  0. 1.0000     0. 
  -6  -1   3      4.40    5.60  0. 1.0000     0. 
   1   6  -3     -4.40    5.90  0. 1.0000     0. 
   1  -6  -4     43.20   14.70  0. 1.0000     0. 
  -6   1  -4     67.09   18.00  0. 1.0000     0. 
   1  -6  -4     65.89   20.90  0. 1.0000     0. 
  -1  -6   4     36.30   13.50  0. 1.0000     0. 
  -1  -6  -4     43.00   18.60  0. 1.0000     0. 
  -1  -6  -4     67.09   19.50  0. 1.0000     0. 
  -1  -6   4     59.79   22.50  0. 1.0000     0. 
  -6  -1  -4     41.50   16.30  0. 1.0000     0. 
   1  -6   4     53.09   15.70  0. 1.0000     0. 
  -1   6  -4     42.60   15.60  0. 1.0000     0. 
   1   6  -4     43.40   17.50  0. 1.0000     0. 
   1   6  -4     54.09   20.40  0. 1.0000     0. 
  -1  -6   4     61.09   22.80  0. 1.0000     0. 
   1  -6   4     54.79   18.90  0. 1.0000     0. 
   6  -1   4     74.79   22.00  0. 1.0000     0. 
   6   1  -4     42.10   17.40  0. 1.0000     0. 
   6   1   4     89.19   23.90  0. 1.0000     0. 
  -1   6  -4     87.89   23.70  0. 1.0000     0. 
   6  -1  -4     58.29   22.20  0. 1.0000     0. 
  -6   1   4     43.60   20.00  0. 1.0000     0. 
  -6  -1   4     54.09   22.80  0. 1.0000     0. 
  -6   1  -5     -2.40    3.40  0. 1.0000     0. 
   1  -6  -5    -13.60    7.70  0. 1.0000     0. 
  -6  -1  -5      1.10    4.80  0. 1.0000     0. 
  -1   6  -5      0.40    3.90  0. 1.0000     0. 
   1   6  -5     -1.10    6.00  0. 1.0000     0. 
   1  -6   5      6.60    8.70  0. 1.0000     0. 
   6   1  -5      6.90    6.40  0. 1.0000     0. 
   6  -1  -5      0.40    1.80  0. 1.0000     0. 
   1  -6  -6     17.30    8.20  0. 1.0000     0. 
   1   6  -6     11.70    7.50  0. 1.0000     0. 
  -1   6  -6     16.90   11.50  0. 1.0000     0. 
  -6   1  -6     12.10    6.30  0. 1.0000     0. 
  -6  -1  -6      7.20    5.10  0. 1.0000     0. 
   6  -1   6      1.30    2.40  0. 1.0000     0. 
  -1  -6  -6     13.70    7.40  0. 1.0000     0. 
   6   1  -6     12.60    8.10  0. 1.0000     0. 
   6  -1  -6      0.80    7.00  0. 1.0000     0. 
  -6  -1  -7      2.00    2.60  0. 1.0000     0. 
  -1   6  -7      1.80    4.00  0. 1.0000     0. 
   1   6  -7     -1.80    3.40  0. 1.0000     0. 
   6  -1  -7      0.20    1.20  0. 1.0000     0. 
   6  -2   0   3756.42  144.09  0. 1.0000     0. 
   2   6   0   3592.24  131.19  0. 1.0000     0. 
   2  -6   0   4393.36  111.19  0. 1.0000     0. 
  -2   6   0   3560.04  113.99  0. 1.0000     0. 
  -6  -2   0   4113.49  149.69  0. 1.0000     0. 
   6   2   1    243.48   40.50  0. 1.0000     0. 
   2   6   1    187.88   29.00  0. 1.0000     0. 
   2  -6   1    196.78   25.50  0. 1.0000     0. 
   6  -2   1    205.88   30.70  0. 1.0000     0. 
  -2   6   1    197.18   30.20  0. 1.0000     0. 
   2   6  -1    231.98   38.50  0. 1.0000     0. 
   2  -6  -1    198.48   27.40  0. 1.0000     0. 
  -6   2   1    177.68   32.20  0. 1.0000     0. 
  -6  -2  -1    225.28   33.10  0. 1.0000     0. 
  -6  -2   1    229.08   36.70  0. 1.0000     0. 
  -2   6  -1    206.28   25.70  0. 1.0000     0. 
  -2  -6   1    194.88   28.40  0. 1.0000     0. 
  -2  -6  -1    176.18   28.60  0. 1.0000     0. 
  -2   6  -2   2911.11  105.49  0. 1.0000     0. 
  -2   6   2   3553.24  138.49  0. 1.0000     0. 
   2  -6   2   2918.41  113.79  0. 1.0000     0. 
   6  -2   2   2805.12  117.49  0. 1.0000     0. 
   6   2   2   3017.30  141.29  0. 1.0000     0. 
   2  -6  -2   3056.99  119.89  0. 1.0000     0. 
  -6   2   2   2884.41  145.29  0. 1.0000     0. 
  -6  -2   2   3078.09  137.79  0. 1.0000     0. 
  -2  -6   2   3014.40  129.69  0. 1.0000     0. 
   2   6  -2   2718.83  140.69  0. 1.0000     0. 
  -2  -6  -2   2504.55  124.19  0. 1.0000     0. 
   6   2  -3    243.18   39.00  0. 1.0000     0. 
   2   6  -3    124.09   30.00  0. 1.0000     0. 
   6   2   3    135.79   30.80  0. 1.0000     0. 
  -2   6  -3    117.99   24.60  0. 1.0000     0. 
   6   2   3    148.59   33.30  0. 1.0000     0. 
   2  -6  -3    111.99   23.40  0. 1.0000     0. 
  -2   6  -3    133.29   24.80  0. 1.0000     0. 
  -6  -2  -3     85.99   26.30  0. 1.0000     0. 
  -2  -6  -3     82.29   23.90  0. 1.0000     0. 
  -2  -6   3    147.29   29.40  0. 1.0000     0. 
   2  -6   3    136.69   26.00  0. 1.0000     0. 
   6  -2   3    136.69   30.50  0. 1.0000     0. 
   6  -2  -3    135.29   24.90  0. 1.0000     0. 
   6   2  -3    144.49   29.30  0. 1.0000     0. 
   2  -6   3    120.79   25.70  0. 1.0000     0. 
   6  -2   3    101.59   25.60  0. 1.0000     0. 
   2  -6  -3    117.99   26.20  0. 1.0000     0. 
  -2  -6   3    118.89   29.10  0. 1.0000     0. 
   2   6  -3    126.59   34.00  0. 1.0000     0. 
  -6   2   3    135.39   35.20  0. 1.0000     0. 
   6  -2  -3    117.19   31.30  0. 1.0000     0. 
  -6  -2   3    119.59   28.70  0. 1.0000     0. 
   6   2  -4   2556.54  128.09  0. 1.0000     0. 
   2   6  -4   1702.33  116.39  0. 1.0000     0. 
  -2   6  -4   1921.01  108.69  0. 1.0000     0. 
   2   6  -4   2015.40  143.69  0. 1.0000     0. 
  -6  -2  -4   1656.93  128.39  0. 1.0000     0. 
   2  -6  -4   1856.01   97.89  0. 1.0000     0. 
  -2   6  -4   2511.95  116.39  0. 1.0000     0. 
  -2  -6   4   2078.19  106.19  0. 1.0000     0. 
   2  -6   4   1703.43   92.99  0. 1.0000     0. 
   6   2  -4   1960.20  114.79  0. 1.0000     0. 
  -2  -6  -4   1987.40  110.69  0. 1.0000     0. 
  -2  -6   4   2074.19  136.29  0. 1.0000     0. 
   2  -6   4   2050.09  117.09  0. 1.0000     0. 
   6  -2   4   2238.38  123.79  0. 1.0000     0. 
   6   2   4   2962.00  137.49  0. 1.0000     0. 
   6  -2  -4   1996.50  134.79  0. 1.0000     0. 
  -6  -2   4   2661.93  153.48  0. 1.0000     0. 
  -2  -6   4   2156.38  133.19  0. 1.0000     0. 
   2  -6  -5     62.79   20.30  0. 1.0000     0. 
   2   6  -5     25.50   13.20  0. 1.0000     0. 
   2  -6   5     46.50   15.50  0. 1.0000     0. 
  -6  -2  -5     39.90   19.90  0. 1.0000     0. 
   2  -6  -5     46.70   14.90  0. 1.0000     0. 
  -2   6  -5     61.59   20.00  0. 1.0000     0. 
  -2  -6  -5     27.10   12.10  0. 1.0000     0. 
   6   2  -5     45.10   17.50  0. 1.0000     0. 
   6  -2  -5     48.70   21.10  0. 1.0000     0. 
  -2   6  -6    801.72   68.09  0. 1.0000     0. 
   2   6  -6    658.23   59.89  0. 1.0000     0. 
   6   2  -6    652.93   49.40  0. 1.0000     0. 
   2  -6  -6   1084.39   70.89  0. 1.0000     0. 
   6  -2   6    858.51   60.39  0. 1.0000     0. 
   6  -2  -6    789.32   74.09  0. 1.0000     0. 
  -2  -6  -6    940.91   61.59  0. 1.0000     0. 
  -6  -2  -6    574.44   63.69  0. 1.0000     0. 
  -2   6  -7     20.70    9.30  0. 1.0000     0. 
   2   6  -7     17.10    6.10  0. 1.0000     0. 
  -6  -2  -7     16.00    6.70  0. 1.0000     0. 
  -6   2  -7     20.80   10.70  0. 1.0000     0. 
   6  -2  -7     -0.40    1.70  0. 1.0000     0. 
   6  -3   0     18.30    9.50  0. 1.0000     0. 
   3   6   0     26.40   11.40  0. 1.0000     0. 
  -6  -3   0     16.20    8.80  0. 1.0000     0. 
  -3  -6   1      5.80    5.80  0. 1.0000     0. 
   6   3   1     -0.10    2.50  0. 1.0000     0. 
   3  -6  -1      2.30    3.00  0. 1.0000     0. 
   3   6   1     -0.40    0.80  0. 1.0000     0. 
  -3   6  -1      7.30    4.10  0. 1.0000     0. 
   3  -6   1     -0.10    0.50  0. 1.0000     0. 
   6  -3   1      6.30    5.80  0. 1.0000     0. 
   3   6  -1      3.50    5.90  0. 1.0000     0. 
  -6  -3   1      4.30    5.30  0. 1.0000     0. 
  -3  -6   2     19.00    9.00  0. 1.0000     0. 
   6  -3  -2      3.80    4.10  0. 1.0000     0. 
   3  -6  -2     13.80    8.20  0. 1.0000     0. 
   3  -6  -2      7.50    5.80  0. 1.0000     0. 
   3   6  -2      3.10    4.40  0. 1.0000     0. 
   3   6   2      5.60    5.60  0. 1.0000     0. 
  -3  -6  -2      4.50    2.60  0. 1.0000     0. 
  -3   6  -2     24.60    9.80  0. 1.0000     0. 
   3  -6   2     16.10    9.70  0. 1.0000     0. 
   6  -3   2     12.70    9.10  0. 1.0000     0. 
  -6   3   2      7.30    7.50  0. 1.0000     0. 
  -6  -3   2     24.10   14.20  0. 1.0000     0. 
  -3  -6   3     -0.80    2.30  0. 1.0000     0. 
   6   3   3     -1.40    2.10  0. 1.0000     0. 
   3  -6  -3      4.80    5.30  0. 1.0000     0. 
   3   6  -3     -5.40    6.20  0. 1.0000     0. 
   3  -6  -3      2.10    3.20  0. 1.0000     0. 
   6   3  -3     -1.30    2.00  0. 1.0000     0. 
  -3  -6  -3    -11.60    8.90  0. 1.0000     0. 
  -3  -6   3    -10.20    7.50  0. 1.0000     0. 
   3  -6   3     -2.70    3.60  0. 1.0000     0. 
   6  -3   3      6.40    5.90  0. 1.0000     0. 
   6  -3  -3      6.50    6.10  0. 1.0000     0. 
   3  -6   3     -1.80    3.20  0. 1.0000     0. 
  -6  -3  -3     -2.40    8.80  0. 1.0000     0. 
   6  -3   3     17.20   10.00  0. 1.0000     0. 
  -3   6  -3      6.90    5.20  0. 1.0000     0. 
   6   3   3     -9.70    7.80  0. 1.0000     0. 
   3   6  -3     -2.10    4.30  0. 1.0000     0. 
  -6   3   3    -21.90   15.10  0. 1.0000     0. 
   6  -3  -3     21.20   13.60  0. 1.0000     0. 
  -6  -3   3      7.10   11.60  0. 1.0000     0. 
   6  -3  -3     -2.80    3.90  0. 1.0000     0. 
   3  -6  -4      8.70    9.00  0. 1.0000     0. 
  -3  -6  -4     -1.80    6.80  0. 1.0000     0. 
   3   6  -4     -7.70    7.70  0. 1.0000     0. 
  -3   6  -4     -1.80    3.20  0. 1.0000     0. 
  -6  -3  -4      3.00    9.80  0. 1.0000     0. 
  -3  -6  -4      8.40    5.20  0. 1.0000     0. 
   6   3  -4     -8.40    7.40  0. 1.0000     0. 
   3  -6   4      7.70    6.40  0. 1.0000     0. 
   6  -3  -4      7.20   10.20  0. 1.0000     0. 
  -6  -3  -5     -2.10    6.60  0. 1.0000     0. 
   3   6  -5      4.40    4.50  0. 1.0000     0. 
   3  -6  -5     -3.90    4.10  0. 1.0000     0. 
  -3   6  -5     -0.30    5.10  0. 1.0000     0. 
   6   3  -5      3.10    4.60  0. 1.0000     0. 
  -3  -6  -5      2.40    3.50  0. 1.0000     0. 
   3  -6   5     -3.20    4.00  0. 1.0000     0. 
   6  -3  -5      3.00    5.20  0. 1.0000     0. 
  -3   6  -6      0.90    2.80  0. 1.0000     0. 
  -3  -6  -6     -3.40    3.10  0. 1.0000     0. 
   6  -3   6      7.10    5.20  0. 1.0000     0. 
   3   6  -6      1.30    1.90  0. 1.0000     0. 
   3  -6   6     -3.00    3.20  0. 1.0000     0. 
  -6  -3  -6     -3.00    4.00  0. 1.0000     0. 
   6  -3  -6      9.90    9.30  0. 1.0000     0. 
   3  -6  -6      2.70    1.40  0. 1.0000     0. 
  -3   6  -7     -4.10    5.00  0. 1.0000     0. 
  -6  -3  -7     -2.60    2.40  0. 1.0000     0. 
   6  -3  -7     -6.00    5.70  0. 1.0000     0. 
   6   4   0   2433.46   92.09  0. 1.0000     0. 
  -6  -4   0   2415.46  103.19  0. 1.0000     0. 
  -4  -6   1     31.90   11.60  0. 1.0000     0. 
   4   6  -1     27.20   10.00  0. 1.0000     0. 
   6   4   1     28.50    9.90  0. 1.0000     0. 
   4   6   1     23.50   10.90  0. 1.0000     0. 
   4  -6  -1     55.99   15.80  0. 1.0000     0. 
   6  -4   1     34.00   12.80  0. 1.0000     0. 
  -6  -4   1     31.20   13.00  0. 1.0000     0. 
   6   4  -2   1798.72  104.99  0. 1.0000     0. 
   4   6  -2   1860.51  111.29  0. 1.0000     0. 
   6   4   2   2590.24  116.29  0. 1.0000     0. 
   6   4  -2   2295.27  112.29  0. 1.0000     0. 
   4  -6  -2   1670.53   92.19  0. 1.0000     0. 
   6  -4  -2   2385.66  104.09  0. 1.0000     0. 
   6  -4  -2   2367.56  164.18  0. 1.0000     0. 
  -4  -6   2   2508.85  121.39  0. 1.0000     0. 
  -6  -4  -2   2029.20  115.39  0. 1.0000     0. 
   4  -6   2   1942.41   99.19  0. 1.0000     0. 
   6  -4   2   2495.55  105.29  0. 1.0000     0. 
   6   4   2   1601.94   81.19  0. 1.0000     0. 
   4   6   2   1494.35   91.69  0. 1.0000     0. 
   4  -6   2   1904.71  102.79  0. 1.0000     0. 
   6  -4   2   1758.02  101.09  0. 1.0000     0. 
   6  -4  -2   1806.62   93.89  0. 1.0000     0. 
   6  -4  -2   1614.74   94.59  0. 1.0000     0. 
   4  -6  -2   1815.32  101.19  0. 1.0000     0. 
  -6   4   2   2068.69  154.28  0. 1.0000     0. 
  -6  -4   2   1935.91  115.09  0. 1.0000     0. 
  -4  -6   2   1656.83   94.79  0. 1.0000     0. 
   4   6  -2   1699.73   99.89  0. 1.0000     0. 
  -4  -6   3     19.80   13.60  0. 1.0000     0. 
   6   4  -3     26.80   13.10  0. 1.0000     0. 
   4  -6  -3     17.10    9.50  0. 1.0000     0. 
   4   6  -3     38.50   16.30  0. 1.0000     0. 
  -4  -6  -3     22.20   10.40  0. 1.0000     0. 
  -4  -6  -3     -3.50    4.70  0. 1.0000     0. 
  -4  -6   3     33.30   13.10  0. 1.0000     0. 
  -6  -4  -3     19.10   12.10  0. 1.0000     0. 
   4  -6   3     18.90   10.10  0. 1.0000     0. 
   6  -4   3     18.60   10.40  0. 1.0000     0. 
   4  -6  -3     -8.20    7.30  0. 1.0000     0. 
   6  -4  -3     19.40   10.00  0. 1.0000     0. 
   4  -6   3     37.00   15.80  0. 1.0000     0. 
   4   6  -3      5.30    1.40  0. 1.0000     0. 
   6  -4   3     52.89   18.50  0. 1.0000     0. 
   6  -4  -3     10.30   10.40  0. 1.0000     0. 
  -6  -4   3     18.10   11.40  0. 1.0000     0. 
   6  -4  -3     11.80    8.50  0. 1.0000     0. 
   4   6  -4    926.01   84.49  0. 1.0000     0. 
  -4   6  -4   1089.89   80.99  0. 1.0000     0. 
   6  -4  -4   1036.90   71.59  0. 1.0000     0. 
   6   4  -4   1068.69   85.49  0. 1.0000     0. 
   4  -6   4   1014.70   77.99  0. 1.0000     0. 
   4  -6  -4   1039.30   75.09  0. 1.0000     0. 
  -6  -4  -4   1136.89  103.29  0. 1.0000     0. 
  -4  -6  -4   1042.30   81.29  0. 1.0000     0. 
   6  -4  -4   1114.29  114.29  0. 1.0000     0. 
   6   4  -5      7.30    7.30  0. 1.0000     0. 
   4   6  -5      3.60    5.60  0. 1.0000     0. 
  -4   6  -5      3.90    1.20  0. 1.0000     0. 
   4  -6  -5      9.60    6.40  0. 1.0000     0. 
  -6  -4  -5      0.50    5.00  0. 1.0000     0. 
  -4  -6  -5      8.20    6.80  0. 1.0000     0. 
   6  -4   5      8.30    6.50  0. 1.0000     0. 
   4  -6   5      3.30    2.50  0. 1.0000     0. 
   6  -4  -5     12.90   15.40  0. 1.0000     0. 
   4  -6  -5     29.70   21.80  0. 1.0000     0. 
  -4  -6  -6    605.44   45.40  0. 1.0000     0. 
  -4   6  -6    493.75   48.20  0. 1.0000     0. 
  -6   4  -6    466.55   47.50  0. 1.0000     0. 
   4   6  -6    499.05   42.80  0. 1.0000     0. 
  -6  -4  -6    559.34   51.89  0. 1.0000     0. 
   4  -6   6    534.75   42.60  0. 1.0000     0. 
   6  -4   6    509.05   42.70  0. 1.0000     0. 
   6  -4  -6    733.83   80.19  0. 1.0000     0. 
   4  -6  -6    789.02   62.89  0. 1.0000     0. 
  -6  -5   0      3.00    4.20  0. 1.0000     0. 
   6   5   0      0.40    2.70  0. 1.0000     0. 
   6  -5   0     12.00    7.30  0. 1.0000     0. 
  -5  -6   0      2.40    4.50  0. 1.0000     0. 
   5   6   0      4.10    2.50  0. 1.0000     0. 
   5   6   0      4.50    6.60  0. 1.0000     0. 
   6  -5   0     11.70    7.30  0. 1.0000     0. 
   6   5   0      1.10    2.10  0. 1.0000     0. 
   5  -6  -1     18.40    7.90  0. 1.0000     0. 
   6  -5   1     28.60   11.90  0. 1.0000     0. 
   6  -5  -1     17.40    8.80  0. 1.0000     0. 
   5  -6  -1     27.60   11.80  0. 1.0000     0. 
   6   5  -1     25.30   12.60  0. 1.0000     0. 
   5   6  -1     22.10   10.60  0. 1.0000     0. 
   5   6   1     59.79   15.40  0. 1.0000     0. 
  -5  -6  -1     40.50   13.10  0. 1.0000     0. 
  -5  -6  -1     23.00   10.90  0. 1.0000     0. 
  -6  -5   1     34.10   13.70  0. 1.0000     0. 
  -5  -6   1     42.00   15.00  0. 1.0000     0. 
   6  -5  -1     34.10   13.40  0. 1.0000     0. 
   6   5   1     36.90   13.60  0. 1.0000     0. 
   5  -6   1     34.20   14.40  0. 1.0000     0. 
   5   6   1     32.00   12.20  0. 1.0000     0. 
   6  -5   1     18.10    9.40  0. 1.0000     0. 
   5   6  -1     29.20   12.70  0. 1.0000     0. 
   6  -5   1     49.50   16.10  0. 1.0000     0. 
  -6  -5   1     17.20   10.50  0. 1.0000     0. 
  -5  -6   2     10.60    5.90  0. 1.0000     0. 
   5  -6  -2      4.30    6.20  0. 1.0000     0. 
   6  -5  -2     -0.60    4.50  0. 1.0000     0. 
  -5  -6  -2    -12.70    7.80  0. 1.0000     0. 
  -6  -5  -2     -4.00    4.80  0. 1.0000     0. 
   6   5   2      3.80    3.90  0. 1.0000     0. 
   5   6   2     -8.50    6.40  0. 1.0000     0. 
  -5  -6   2      0.10    3.20  0. 1.0000     0. 
   5  -6  -2      8.80    7.70  0. 1.0000     0. 
   5  -6   2      8.00    6.50  0. 1.0000     0. 
   5   6  -2     -3.90    4.80  0. 1.0000     0. 
   5   6  -2     14.60    8.50  0. 1.0000     0. 
   6   5   2     -2.10    3.20  0. 1.0000     0. 
   6   5  -2     -1.00    2.30  0. 1.0000     0. 
   6   5  -2     -0.40    5.90  0. 1.0000     0. 
   5  -6   2    -11.70    8.30  0. 1.0000     0. 
   6  -5   2     -5.10    5.50  0. 1.0000     0. 
   6  -5  -2     33.00   24.00  0. 1.0000     0. 
   6  -5  -2      5.60    9.60  0. 1.0000     0. 
  -6  -5   2     -6.70    7.00  0. 1.0000     0. 
   5   6  -3     21.00   12.00  0. 1.0000     0. 
   6  -5  -3     19.20   11.60  0. 1.0000     0. 
   5  -6  -3      8.80    6.90  0. 1.0000     0. 
   5   6  -3     38.40   13.80  0. 1.0000     0. 
   6   5   3     45.90   16.50  0. 1.0000     0. 
  -6  -5  -3     22.40   12.30  0. 1.0000     0. 
  -5  -6  -3     18.70   10.90  0. 1.0000     0. 
   5  -6   3      8.30    5.50  0. 1.0000     0. 
   6   5  -3     12.90    8.90  0. 1.0000     0. 
   6  -5   3      9.90    7.10  0. 1.0000     0. 
   5  -6   3     24.00    8.60  0. 1.0000     0. 
   6  -5  -3     36.50   23.10  0. 1.0000     0. 
  -5  -6  -4      9.30    7.70  0. 1.0000     0. 
  -6  -5  -4     -1.30    7.20  0. 1.0000     0. 
   6   5  -4     -1.10    5.40  0. 1.0000     0. 
   6  -5  -4      3.70    6.80  0. 1.0000     0. 
   5   6  -4     -1.50    5.00  0. 1.0000     0. 
   5  -6   4     -6.10    8.00  0. 1.0000     0. 
   6  -5   4     -3.80    4.60  0. 1.0000     0. 
   5  -6  -4      2.50    4.70  0. 1.0000     0. 
   6  -5  -4      0.70   12.50  0. 1.0000     0. 
   5  -6  -4     25.90   19.80  0. 1.0000     0. 
   6   5  -5     12.40    7.80  0. 1.0000     0. 
  -5   6  -5      8.70    8.40  0. 1.0000     0. 
  -6  -5  -5      8.00    3.90  0. 1.0000     0. 
   5   6  -5     10.00    6.10  0. 1.0000     0. 
  -5  -6  -5      6.30    4.10  0. 1.0000     0. 
   5  -6  -5     13.80    6.90  0. 1.0000     0. 
   5  -6   5      6.40    5.50  0. 1.0000     0. 
   6  -5   5      2.80    4.30  0. 1.0000     0. 
   6  -5  -5     -4.30    9.10  0. 1.0000     0. 
   5  -6  -5     -0.10   17.10  0. 1.0000     0. 
  -6   5  -6     -0.40    1.20  0. 1.0000     0. 
  -6  -5  -6      2.50    3.70  0. 1.0000     0. 
   6   5  -6      1.00    2.90  0. 1.0000     0. 
   5   6  -6     -2.50    3.20  0. 1.0000     0. 
   5  -6   6     -0.90    1.60  0. 1.0000     0. 
   6  -5   6     -0.80    1.60  0. 1.0000     0. 
  -5  -6  -6      1.70    2.30  0. 1.0000     0. 
  -5   6  -6     -0.30    0.90  0. 1.0000     0. 
   6   6   0   1737.43   99.59  0. 1.0000     0. 
   6  -6   0   1768.62   95.69  0. 1.0000     0. 
  -6  -6   0   1819.72  108.69  0. 1.0000     0. 
   6   6   0   2097.09  100.09  0. 1.0000     0. 
  -6  -6   1     11.90    8.40  0. 1.0000     0. 
   6  -6  -1     -3.00    5.30  0. 1.0000     0. 
   6   6  -1      2.50    4.50  0. 1.0000     0. 
  -6  -6  -1     -4.10    3.10  0. 1.0000     0. 
   6  -6   1     11.10    7.60  0. 1.0000     0. 
   6   6  -1     -5.60    4.90  0. 1.0000     0. 
   6   6  -2   1153.78   84.09  0. 1.0000     0. 
  -6  -6   2   1445.86   83.29  0. 1.0000     0. 
  -6  -6  -2   1178.58   78.79  0. 1.0000     0. 
   6  -6  -2   1159.68   83.69  0. 1.0000     0. 
   6  -6   2   1246.88   84.49  0. 1.0000     0. 
   6  -6  -3     -1.50    3.00  0. 1.0000     0. 
   6   6  -3      5.30    5.80  0. 1.0000     0. 
   6  -6   3     -2.90    3.90  0. 1.0000     0. 
  -6  -6  -3      6.20    6.00  0. 1.0000     0. 
   6   6  -4    693.43   62.19  0. 1.0000     0. 
   6  -6  -4    764.82   62.89  0. 1.0000     0. 
   6  -6   4    652.63   60.19  0. 1.0000     0. 
  -6  -6  -4    856.51   70.19  0. 1.0000     0. 
  -6   6  -5     -0.10    3.50  0. 1.0000     0. 
  -6  -6  -5     -4.50    4.50  0. 1.0000     0. 
   6  -6   5     -0.10    1.60  0. 1.0000     0. 
   6   6  -5     -1.30    1.50  0. 1.0000     0. 
   6  -6  -5     -5.20    4.40  0. 1.0000     0. 
  -6   6  -6    453.85   37.20  0. 1.0000     0. 
  -6  -6  -6    524.95   30.10  0. 1.0000     0. 
   6  -6   6    475.05   35.10  0. 1.0000     0. 
  -7   0   0     -1.90    5.90  0. 1.0000     0. 
   0   7   0      2.30    3.50  0. 1.0000     0. 
   0   7  -1     67.39   19.60  0. 1.0000     0. 
   0   7   1     78.59   19.80  0. 1.0000     0. 
   0  -7   1    110.49   22.20  0. 1.0000     0. 
   7   0   1     68.99   21.70  0. 1.0000     0. 
   0  -7  -1     90.69   21.30  0. 1.0000     0. 
  -7   0   1     80.79   24.50  0. 1.0000     0. 
   7   0   2     -4.00    4.30  0. 1.0000     0. 
   0  -7  -2      2.20    3.90  0. 1.0000     0. 
   0  -7  -2     -3.00    5.20  0. 1.0000     0. 
   0   7   2      0.50    4.00  0. 1.0000     0. 
   7   0   2     10.30    9.30  0. 1.0000     0. 
  -7   0  -2     -7.00   13.40  0. 1.0000     0. 
   0   7  -2      1.70    7.20  0. 1.0000     0. 
   0  -7   2      4.30    5.20  0. 1.0000     0. 
   0  -7   2      6.20    5.70  0. 1.0000     0. 
   7   0   2     -8.70    7.40  0. 1.0000     0. 
   7   0  -2      7.80    7.30  0. 1.0000     0. 
  -7   0   2     -5.30    2.40  0. 1.0000     0. 
   0  -7  -3     43.20   17.70  0. 1.0000     0. 
   0   7  -3     35.20   14.40  0. 1.0000     0. 
   0   7  -3     61.29   21.50  0. 1.0000     0. 
   0   7   3     25.30   10.80  0. 1.0000     0. 
   0  -7  -3     20.30   10.20  0. 1.0000     0. 
   0  -7   3     33.80   14.20  0. 1.0000     0. 
   7   0   3     29.20   13.90  0. 1.0000     0. 
   0  -7   3     27.30   13.00  0. 1.0000     0. 
  -7   0  -3     53.29   18.40  0. 1.0000     0. 
   7   0   3     40.90   16.60  0. 1.0000     0. 
   7   0  -3     32.60   15.60  0. 1.0000     0. 
  -7   0   3     22.40   14.30  0. 1.0000     0. 
  -7   0  -4     -6.20    6.50  0. 1.0000     0. 
   0  -7  -4     -4.80    7.80  0. 1.0000     0. 
   0   7  -4     -0.90    2.50  0. 1.0000     0. 
   0  -7   4     -0.80    2.10  0. 1.0000     0. 
   7   0  -4    -14.10   10.20  0. 1.0000     0. 
   0   7  -5     14.00   12.50  0. 1.0000     0. 
  -7   0  -5      8.50    8.30  0. 1.0000     0. 
   0  -7  -5     24.90   10.10  0. 1.0000     0. 
   0  -7   5     12.30    7.80  0. 1.0000     0. 
   7   0  -5     24.20   15.00  0. 1.0000     0. 
  -7   0  -6      0.80    4.10  0. 1.0000     0. 
   7   0  -6     -3.00    0.50  0. 1.0000     0. 
   7  -1   0   2267.87  130.49  0. 1.0000     0. 
   1   7   0   2211.68  108.89  0. 1.0000     0. 
  -1   7   0   1836.32  101.39  0. 1.0000     0. 
  -7   1   0   1985.10  111.89  0. 1.0000     0. 
  -7  -1   0   1934.71  108.29  0. 1.0000     0. 
   1   7   1    192.68   30.90  0. 1.0000     0. 
   7  -1   1    127.89   28.40  0. 1.0000     0. 
  -1   7   1    172.08   31.40  0. 1.0000     0. 
   7   1   1    131.69   30.00  0. 1.0000     0. 
  -7  -1  -1    134.79   26.70  0. 1.0000     0. 
  -7   1   1    151.98   34.20  0. 1.0000     0. 
   1   7  -1    167.68   32.90  0. 1.0000     0. 
  -7  -1   1    176.68   34.50  0. 1.0000     0. 
   1  -7  -1    191.28   28.80  0. 1.0000     0. 
  -1   7  -1    154.48   28.10  0. 1.0000     0. 
  -1  -7  -1    186.08   31.90  0. 1.0000     0. 
   1   7  -2   2339.27  108.49  0. 1.0000     0. 
  -7  -1  -2   2187.68  128.39  0. 1.0000     0. 
   7  -1  -2   2567.74  106.79  0. 1.0000     0. 
   7   1  -2   2048.20   97.19  0. 1.0000     0. 
   7   1   2   2469.45  109.39  0. 1.0000     0. 
  -1  -7   2   2001.00  115.79  0. 1.0000     0. 
   1  -7  -2   1804.52   99.69  0. 1.0000     0. 
   7   1   2   2181.88  110.89  0. 1.0000     0. 
   7  -1   2   1717.93  103.79  0. 1.0000     0. 
   7  -1   2   2867.31  116.49  0. 1.0000     0. 
   7   1  -2   2124.29  119.29  0. 1.0000     0. 
   7  -1  -2   1653.93  112.89  0. 1.0000     0. 
   1   7   2   1672.63   92.49  0. 1.0000     0. 
   1  -7   2   2277.77  116.69  0. 1.0000     0. 
  -1   7   2   2007.20  105.19  0. 1.0000     0. 
   1  -7   2   1848.52   97.79  0. 1.0000     0. 
   7  -1   2   1799.82  105.29  0. 1.0000     0. 
   7   1   2   1876.81  118.89  0. 1.0000     0. 
  -7  -1  -2   2260.47  110.19  0. 1.0000     0. 
  -7   1   2   1827.22  115.09  0. 1.0000     0. 
  -7  -1   2   1778.52  110.19  0. 1.0000     0. 
   1  -7  -2   1859.81  104.09  0. 1.0000     0. 
  -1  -7   2   2050.59  115.19  0. 1.0000     0. 
  -1  -7  -2   1816.12  110.49  0. 1.0000     0. 
   1   7  -2   1714.63  116.79  0. 1.0000     0. 
  -1   7  -2   1836.72  102.49  0. 1.0000     0. 
  -1   7   3     80.79   18.50  0. 1.0000     0. 
   1   7  -3     96.49   30.70  0. 1.0000     0. 
  -1   7  -3    111.59   24.50  0. 1.0000     0. 
   1   7  -3     75.79   22.60  0. 1.0000     0. 
   1  -7  -3     90.39   23.40  0. 1.0000     0. 
   1  -7  -3     97.59   27.00  0. 1.0000     0. 
  -1  -7   3    118.29   30.60  0. 1.0000     0. 
   1   7   3     76.09   19.70  0. 1.0000     0. 
  -1  -7  -3     90.59   26.30  0. 1.0000     0. 
  -1  -7   3     92.89   25.50  0. 1.0000     0. 
  -1  -7  -3     80.29   23.20  0. 1.0000     0. 
  -7  -1  -3     94.49   27.50  0. 1.0000     0. 
   7   1   3     75.99   23.60  0. 1.0000     0. 
  -1   7  -3     70.99   20.80  0. 1.0000     0. 
   7  -1   3     78.09   24.00  0. 1.0000     0. 
  -1  -7   3    106.19   27.40  0. 1.0000     0. 
   1  -7   3     91.79   23.40  0. 1.0000     0. 
  -7   1  -3    154.78   28.00  0. 1.0000     0. 
   1  -7   3     95.89   24.20  0. 1.0000     0. 
   7  -1   3     93.79   27.60  0. 1.0000     0. 
   7   1   3    140.89   34.70  0. 1.0000     0. 
   7   1  -3     92.99   24.40  0. 1.0000     0. 
   7  -1  -3    103.49   28.80  0. 1.0000     0. 
  -7   1   3     97.99   29.80  0. 1.0000     0. 
  -7  -1   3    123.19   31.50  0. 1.0000     0. 
   1   7  -4   1130.59   94.59  0. 1.0000     0. 
  -1   7  -4   1113.19   84.69  0. 1.0000     0. 
  -1  -7   4   1021.60   76.29  0. 1.0000     0. 
   1  -7  -4   1052.49   78.69  0. 1.0000     0. 
  -1  -7  -4    989.90   81.79  0. 1.0000     0. 
  -7   1  -4   1255.67   82.69  0. 1.0000     0. 
  -7  -1  -4   1215.68  108.59  0. 1.0000     0. 
   1  -7   4   1010.40   74.29  0. 1.0000     0. 
   7   1  -4    941.31   80.69  0. 1.0000     0. 
   7  -1  -4   1145.09  102.29  0. 1.0000     0. 
   1   7  -5     20.70   12.00  0. 1.0000     0. 
  -1   7  -5     41.30   16.20  0. 1.0000     0. 
  -1  -7   5     46.20   14.60  0. 1.0000     0. 
  -7  -1  -5     25.70   14.80  0. 1.0000     0. 
   1  -7  -5     31.90   12.10  0. 1.0000     0. 
  -1  -7  -5     26.30   12.10  0. 1.0000     0. 
   1  -7   5     22.80   10.30  0. 1.0000     0. 
  -7   1  -5     20.40    9.30  0. 1.0000     0. 
   7   1  -5     25.90   12.60  0. 1.0000     0. 
   7  -1  -5     28.80   15.50  0. 1.0000     0. 
   1   7  -6    479.55   48.40  0. 1.0000     0. 
  -7   1  -6    592.24   41.80  0. 1.0000     0. 
  -7  -1  -6    517.65   51.09  0. 1.0000     0. 
   7  -1   6    535.25   48.90  0. 1.0000     0. 
   7   1  -6    459.95   40.80  0. 1.0000     0. 
   7  -1  -6    511.75   52.69  0. 1.0000     0. 
  -1   7  -6    519.25   53.39  0. 1.0000     0. 
  -2   7   0      0.30    4.70  0. 1.0000     0. 
   2   7   0     13.90    8.80  0. 1.0000     0. 
   7  -2   0     22.70   10.90  0. 1.0000     0. 
  -7  -2   0     37.00   15.20  0. 1.0000     0. 
   2   7  -1      4.60    5.30  0. 1.0000     0. 
   2  -7  -1     18.40    8.10  0. 1.0000     0. 
  -2   7  -1      5.10    4.40  0. 1.0000     0. 
  -2  -7   1     16.90   10.50  0. 1.0000     0. 
   2   7   1      7.30    6.10  0. 1.0000     0. 
  -2   7   1     13.90    8.60  0. 1.0000     0. 
   7  -2   1     15.80   11.70  0. 1.0000     0. 
  -7   2   1      8.70    9.40  0. 1.0000     0. 
  -7  -2  -1     19.10    9.90  0. 1.0000     0. 
  -7  -2   1     16.10   10.50  0. 1.0000     0. 
   7  -2  -2     21.80    9.90  0. 1.0000     0. 
   2   7  -2     15.00    9.20  0. 1.0000     0. 
   2  -7  -2     12.20    6.80  0. 1.0000     0. 
   7  -2   2     13.20    7.70  0. 1.0000     0. 
   2  -7  -2     12.20    8.50  0. 1.0000     0. 
   2   7   2     18.70    9.90  0. 1.0000     0. 
  -2  -7  -2      6.90    6.70  0. 1.0000     0. 
  -7  -2  -2      8.30    7.60  0. 1.0000     0. 
  -2  -7  -2     25.50   12.90  0. 1.0000     0. 
   2   7  -2      0.80    8.70  0. 1.0000     0. 
  -2  -7   2     20.80   10.80  0. 1.0000     0. 
  -2  -7   2      9.10    7.60  0. 1.0000     0. 
   7   2   2     24.70    7.20  0. 1.0000     0. 
   7   2  -2     17.20    8.40  0. 1.0000     0. 
   2  -7   2     22.60   10.30  0. 1.0000     0. 
   7   2  -2     23.00   12.90  0. 1.0000     0. 
   7   2   2     15.80   10.60  0. 1.0000     0. 
   7  -2   2     11.00   10.70  0. 1.0000     0. 
   2  -7   2     19.70    8.70  0. 1.0000     0. 
   7  -2   2      6.60    6.30  0. 1.0000     0. 
   7   2   2     23.40   13.50  0. 1.0000     0. 
   7   2  -2     16.40    4.80  0. 1.0000     0. 
  -2   7  -2     27.50   11.80  0. 1.0000     0. 
   7  -2  -2     27.30   14.10  0. 1.0000     0. 
  -7   2   2     -3.50    5.10  0. 1.0000     0. 
  -7  -2   2     17.90   10.50  0. 1.0000     0. 
  -2   7  -3     29.10   12.30  0. 1.0000     0. 
   2   7  -3      2.20    4.00  0. 1.0000     0. 
   2  -7  -3      4.30    5.50  0. 1.0000     0. 
  -2   7  -3      7.30    3.60  0. 1.0000     0. 
  -2  -7   3     13.10    9.50  0. 1.0000     0. 
   2   7   3      1.00    2.40  0. 1.0000     0. 
   2  -7  -3     12.40   10.50  0. 1.0000     0. 
  -7  -2  -3      1.10    6.30  0. 1.0000     0. 
  -2  -7  -3      3.50    2.80  0. 1.0000     0. 
  -2  -7   3      5.40    7.30  0. 1.0000     0. 
   2  -7   3      9.10    7.80  0. 1.0000     0. 
   7   2   3      0.70    4.00  0. 1.0000     0. 
   7   2  -3      6.00    5.40  0. 1.0000     0. 
   7  -2   3     19.00   13.70  0. 1.0000     0. 
   2  -7   3      8.10    6.90  0. 1.0000     0. 
   7  -2   3     10.80    8.30  0. 1.0000     0. 
   7   2   3      8.60   12.80  0. 1.0000     0. 
   7   2  -3     26.70   14.00  0. 1.0000     0. 
   7  -2  -3      6.20    0.90  0. 1.0000     0. 
  -7   2   3     21.10   10.80  0. 1.0000     0. 
  -7  -2   3     16.50   11.10  0. 1.0000     0. 
   7   2  -4      6.40    5.90  0. 1.0000     0. 
   2   7  -4     10.90    9.90  0. 1.0000     0. 
  -2   7  -4      1.60    1.70  0. 1.0000     0. 
   2  -7  -4     14.90    8.80  0. 1.0000     0. 
  -2  -7  -4     17.80   12.10  0. 1.0000     0. 
  -7  -2  -4     14.90   12.40  0. 1.0000     0. 
  -2  -7   4     11.10    8.70  0. 1.0000     0. 
   2  -7   4     12.30    7.70  0. 1.0000     0. 
   7   2  -4      5.80    8.40  0. 1.0000     0. 
   7  -2  -4      3.20    2.10  0. 1.0000     0. 
  -2  -7  -5      8.70    7.70  0. 1.0000     0. 
   2   7  -5      1.30    3.70  0. 1.0000     0. 
  -2   7  -5      4.30    2.00  0. 1.0000     0. 
  -7  -2  -5      8.10   10.10  0. 1.0000     0. 
   2  -7  -5      2.90    3.60  0. 1.0000     0. 
   2  -7   5     -0.80    1.90  0. 1.0000     0. 
   7   2  -5     -4.60    4.70  0. 1.0000     0. 
   7  -2  -5      2.60    1.60  0. 1.0000     0. 
   2  -7   6      0.60    1.30  0. 1.0000     0. 
   2   7  -6      4.10    5.40  0. 1.0000     0. 
  -7  -2  -6      3.50    0.50  0. 1.0000     0. 
   7  -2   6      4.00    2.10  0. 1.0000     0. 
  -2   7  -6     -1.30    2.70  0. 1.0000     0. 
   7   2  -6     -3.90    3.00  0. 1.0000     0. 
   7  -2  -6     -1.70    6.20  0. 1.0000     0. 
   7   3   0   3043.00  137.99  0. 1.0000     0. 
   7  -3   0   2796.72  116.89  0. 1.0000     0. 
   7   3   0   2872.11  131.99  0. 1.0000     0. 
  -3  -7   0   2613.94  117.39  0. 1.0000     0. 
   7  -3   0   3257.97  154.88  0. 1.0000     0. 
   7  -3   0   3050.79  148.79  0. 1.0000     0. 
   3   7   0   2630.34  120.69  0. 1.0000     0. 
  -7  -3   0   2973.50  126.89  0. 1.0000     0. 
   3   7  -1     28.60   13.80  0. 1.0000     0. 
   3   7  -1     31.40   13.20  0. 1.0000     0. 
   7  -3   1     14.80    9.00  0. 1.0000     0. 
   3  -7  -1     20.20    9.40  0. 1.0000     0. 
   7   3  -1     11.10    7.00  0. 1.0000     0. 
  -3  -7  -1     23.40   12.00  0. 1.0000     0. 
  -3  -7   1     12.90    7.80  0. 1.0000     0. 
  -3  -7  -1      1.50    2.70  0. 1.0000     0. 
   7  -3  -1     17.80    9.50  0. 1.0000     0. 
   3  -7   1     17.50    8.40  0. 1.0000     0. 
   3   7   1      8.80    1.30  0. 1.0000     0. 
   7   3   1     28.30   12.50  0. 1.0000     0. 
   7   3  -1     16.70   10.10  0. 1.0000     0. 
   7   3   1     20.30    9.90  0. 1.0000     0. 
   7  -3   1     39.60   15.60  0. 1.0000     0. 
   3  -7  -1    -15.60    8.50  0. 1.0000     0. 
   7  -3   1      7.70    5.10  0. 1.0000     0. 
   7  -3  -1     30.90   15.70  0. 1.0000     0. 
  -7   3   1     23.40   13.80  0. 1.0000     0. 
  -7  -3   1     29.40   13.70  0. 1.0000     0. 
   3   7  -2   2204.98  120.69  0. 1.0000     0. 
   7  -3   2   2620.24  110.59  0. 1.0000     0. 
   7  -3  -2   2625.74  111.59  0. 1.0000     0. 
   7  -3  -2   2203.98  144.39  0. 1.0000     0. 
  -3  -7   2   2205.28  119.59  0. 1.0000     0. 
  -7  -3  -2   2438.16  128.09  0. 1.0000     0. 
   7   3   2   2408.16  114.69  0. 1.0000     0. 
   7   3  -2   2498.25  120.69  0. 1.0000     0. 
   7  -3  -2   2000.80  101.89  0. 1.0000     0. 
   3  -7  -2   2127.69  109.19  0. 1.0000     0. 
  -3  -7  -2   2659.73  123.99  0. 1.0000     0. 
   7   3  -2   2332.47  122.19  0. 1.0000     0. 
   3  -7   2   2314.47  115.19  0. 1.0000     0. 
   7   3   2   2471.55  108.19  0. 1.0000     0. 
   7  -3   2   2182.08  131.39  0. 1.0000     0. 
   3   7   2   2051.59  109.49  0. 1.0000     0. 
   3  -7   2   2823.22  124.69  0. 1.0000     0. 
   7  -3   2   2370.56  127.49  0. 1.0000     0. 
   3  -7  -2   2440.16  121.19  0. 1.0000     0. 
  -7   3   2   2078.19  132.39  0. 1.0000     0. 
  -7  -3   2   2681.93  142.79  0. 1.0000     0. 
  -3  -7   2   2581.94  119.49  0. 1.0000     0. 
   3   7  -2   2326.37  129.19  0. 1.0000     0. 
  -3  -7  -2   2121.69  114.39  0. 1.0000     0. 
   3   7  -3     28.40   15.10  0. 1.0000     0. 
  -3  -7   3     19.70   11.10  0. 1.0000     0. 
   3   7  -3     10.30    5.20  0. 1.0000     0. 
  -3   7  -3     -0.50    1.60  0. 1.0000     0. 
   7   3  -3      9.80    7.20  0. 1.0000     0. 
   3  -7  -3     11.20    9.40  0. 1.0000     0. 
   3   7   3     15.70   12.30  0. 1.0000     0. 
  -7  -3  -3      7.80    8.70  0. 1.0000     0. 
  -3  -7   3     24.20   11.90  0. 1.0000     0. 
   3  -7   3     16.20    8.70  0. 1.0000     0. 
   7   3   3      7.00    3.60  0. 1.0000     0. 
   7  -3   3     12.60    9.40  0. 1.0000     0. 
   3  -7  -3     30.80   14.60  0. 1.0000     0. 
   3  -7   3     28.10   13.30  0. 1.0000     0. 
   7  -3   3      0.80    2.30  0. 1.0000     0. 
   7  -3  -3      8.10   11.50  0. 1.0000     0. 
  -7   3   3     -5.90    7.70  0. 1.0000     0. 
  -7  -3   3      0.40    1.70  0. 1.0000     0. 
   7   3  -4   1470.85   94.59  0. 1.0000     0. 
  -3   7  -4   1257.67   82.89  0. 1.0000     0. 
   3  -7  -4   1220.88   82.19  0. 1.0000     0. 
  -3  -7  -4   1206.78   90.99  0. 1.0000     0. 
  -7  -3  -4   1356.66  113.29  0. 1.0000     0. 
  -3  -7   4   1352.76   79.59  0. 1.0000     0. 
   3  -7   4   1176.28   83.59  0. 1.0000     0. 
   7  -3  -4   1239.88  113.19  0. 1.0000     0. 
   3   7  -4   1160.68   99.29  0. 1.0000     0. 
   3   7  -5     -1.20    5.90  0. 1.0000     0. 
  -3   7  -5      2.70    3.60  0. 1.0000     0. 
   3  -7  -5      7.00    6.50  0. 1.0000     0. 
  -7  -3  -5      7.80    9.20  0. 1.0000     0. 
   3  -7   5      1.70    6.10  0. 1.0000     0. 
   7  -3  -5     -1.30    5.20  0. 1.0000     0. 
   3   7  -6    551.04   43.20  0. 1.0000     0. 
  -7   3  -6    623.04   56.59  0. 1.0000     0. 
  -7  -3  -6    642.74   51.99  0. 1.0000     0. 
  -3   7  -6    645.24   54.29  0. 1.0000     0. 
   7  -3   6    659.33   49.80  0. 1.0000     0. 
   7  -3  -6    603.54   57.39  0. 1.0000     0. 
   3  -7   6    697.13   45.30  0. 1.0000     0. 
   7  -4   0      9.00    7.00  0. 1.0000     0. 
   4  -7   0      9.40    6.00  0. 1.0000     0. 
   7   4   0     11.50    8.70  0. 1.0000     0. 
  -4  -7   0     10.70    7.50  0. 1.0000     0. 
   7   4   0     -3.20    4.30  0. 1.0000     0. 
   7  -4   0     31.20   10.20  0. 1.0000     0. 
   4   7   0     14.20    6.10  0. 1.0000     0. 
   4   7  -1     -4.20    6.90  0. 1.0000     0. 
   7  -4  -1      5.70    4.10  0. 1.0000     0. 
   7  -4  -1     12.30    8.50  0. 1.0000     0. 
   4  -7  -1     17.50    9.30  0. 1.0000     0. 
   4   7  -1     29.40   12.90  0. 1.0000     0. 
   7   4  -1      5.60    3.80  0. 1.0000     0. 
  -4  -7   1     -1.00    2.60  0. 1.0000     0. 
  -4  -7  -1     14.30    9.10  0. 1.0000     0. 
   4  -7   1     14.80    9.00  0. 1.0000     0. 
   4   7   1     13.30    9.70  0. 1.0000     0. 
   7   4   1     13.20    7.00  0. 1.0000     0. 
   7   4  -1      5.70    5.80  0. 1.0000     0. 
   7  -4   1     20.90   12.30  0. 1.0000     0. 
   7  -4   1      0.20    5.70  0. 1.0000     0. 
   7  -4  -1     22.50   13.50  0. 1.0000     0. 
  -7   4   1      7.10    7.90  0. 1.0000     0. 
  -7  -4   1      6.60    6.30  0. 1.0000     0. 
  -4  -7   2     19.20    9.80  0. 1.0000     0. 
   4  -7  -2     32.30   14.30  0. 1.0000     0. 
   4   7  -2      5.10    6.80  0. 1.0000     0. 
   4  -7   2      3.30    6.60  0. 1.0000     0. 
  -7  -4  -2      4.10    6.30  0. 1.0000     0. 
   7   4  -2     11.10   10.00  0. 1.0000     0. 
   4   7   2     -0.80    2.20  0. 1.0000     0. 
   7  -4  -2      8.10    8.10  0. 1.0000     0. 
   7  -4   2      3.90    5.10  0. 1.0000     0. 
  -4  -7   2      6.70    6.20  0. 1.0000     0. 
  -4  -7  -2     -0.90    2.20  0. 1.0000     0. 
   4   7  -2     20.00   13.30  0. 1.0000     0. 
   4  -7  -2      8.00    6.80  0. 1.0000     0. 
   7   4   2      3.00    1.70  0. 1.0000     0. 
   7   4   2      6.20    2.00  0. 1.0000     0. 
   7   4  -2      5.90    5.80  0. 1.0000     0. 
   7  -4   2     22.70   11.40  0. 1.0000     0. 
   7  -4  -2      7.50    6.50  0. 1.0000     0. 
   7  -4   2    -24.00   12.80  0. 1.0000     0. 
   7  -4  -2      5.50    7.30  0. 1.0000     0. 
  -7   4   2     29.50   18.10  0. 1.0000     0. 
  -7  -4   2     45.30   18.20  0. 1.0000     0. 
   7  -4   3     13.40    9.60  0. 1.0000     0. 
   4   7  -3     12.30    7.30  0. 1.0000     0. 
  -4   7  -3     12.50    8.30  0. 1.0000     0. 
   7  -4  -3      8.30    6.30  0. 1.0000     0. 
   7   4  -3      3.50    4.60  0. 1.0000     0. 
   4  -7  -3      3.00    3.80  0. 1.0000     0. 
  -7  -4  -3      5.70    5.10  0. 1.0000     0. 
  -4  -7   3     10.10    7.50  0. 1.0000     0. 
   4  -7   3     10.10    9.30  0. 1.0000     0. 
   7  -4  -3      0.60    4.70  0. 1.0000     0. 
   4   7  -4      6.40    3.60  0. 1.0000     0. 
  -4   7  -4      5.30    4.70  0. 1.0000     0. 
  -4  -7  -4     -7.60    5.50  0. 1.0000     0. 
  -4  -7  -4      4.90    6.60  0. 1.0000     0. 
   4  -7  -4      0.10    4.50  0. 1.0000     0. 
   7   4  -4      8.50    6.90  0. 1.0000     0. 
  -7  -4  -4      5.10    4.80  0. 1.0000     0. 
   4  -7   4     12.10    8.90  0. 1.0000     0. 
   7  -4  -4      1.20    3.60  0. 1.0000     0. 
   4   7  -5      4.80    5.00  0. 1.0000     0. 
  -4   7  -5      3.50    4.80  0. 1.0000     0. 
  -4  -7  -5     -0.40    1.00  0. 1.0000     0. 
  -7  -4  -5     -1.00    4.90  0. 1.0000     0. 
   4  -7  -5      2.10    2.90  0. 1.0000     0. 
   4  -7   5     -1.10    3.00  0. 1.0000     0. 
   7  -4   5      6.30    5.20  0. 1.0000     0. 
   7   4  -5     -0.40    4.40  0. 1.0000     0. 
   7  -4  -5     11.30    7.70  0. 1.0000     0. 
  -4   7  -6      4.30    4.30  0. 1.0000     0. 
  -7   4  -6      0.40    2.60  0. 1.0000     0. 
  -7  -4  -6      3.20    3.80  0. 1.0000     0. 
   4   7  -6      1.80    2.90  0. 1.0000     0. 
   4  -7   6     -1.50    2.00  0. 1.0000     0. 
   7  -4   6      4.00    3.30  0. 1.0000     0. 
   7  -4  -6      8.30    8.10  0. 1.0000     0. 
   7  -5   0   1879.61   99.69  0. 1.0000     0. 
   7   5   0   2087.09  111.49  0. 1.0000     0. 
   7  -5   0   2122.89  103.99  0. 1.0000     0. 
   5  -7   0   2598.34  115.69  0. 1.0000     0. 
   5   7   0   2858.61  124.69  0. 1.0000     0. 
  -5  -7   0   2147.99  112.59  0. 1.0000     0. 
   7   5   0   2226.18  114.19  0. 1.0000     0. 
   5   7   0   2490.25  116.09  0. 1.0000     0. 
   5   7  -1      9.10    8.10  0. 1.0000     0. 
  -5  -7   1     16.90   10.60  0. 1.0000     0. 
   7  -5   1     11.10    7.70  0. 1.0000     0. 
   7  -5  -1      6.90    6.00  0. 1.0000     0. 
   5  -7   1     18.70   11.30  0. 1.0000     0. 
   7  -5  -1      7.60    6.40  0. 1.0000     0. 
   5  -7  -1      4.50    6.40  0. 1.0000     0. 
   5   7  -1      1.20    2.40  0. 1.0000     0. 
  -5  -7  -1      6.40    7.10  0. 1.0000     0. 
   7  -5   1     21.60   10.10  0. 1.0000     0. 
   7   5  -1      0.70    3.70  0. 1.0000     0. 
   7   5   1      2.20    4.00  0. 1.0000     0. 
   7   5  -1      7.60    8.40  0. 1.0000     0. 
   5   7   1    -10.30   10.60  0. 1.0000     0. 
   7  -5  -1      6.00    6.40  0. 1.0000     0. 
   7   5  -2   1678.03  101.29  0. 1.0000     0. 
  -7  -5  -2   1826.92  102.99  0. 1.0000     0. 
   7   5   2   2004.60  104.89  0. 1.0000     0. 
   7   5  -2   1769.12   99.29  0. 1.0000     0. 
   7  -5  -2   1685.63   99.69  0. 1.0000     0. 
   5  -7  -2   1697.03  101.69  0. 1.0000     0. 
  -5  -7   2   1870.51  102.09  0. 1.0000     0. 
   5  -7   2   1738.13  104.39  0. 1.0000     0. 
   7  -5  -2   1914.91  134.59  0. 1.0000     0. 
   5   7  -2   1726.53  103.39  0. 1.0000     0. 
   7   5  -3      5.00    6.50  0. 1.0000     0. 
  -5   7  -3      3.80    4.00  0. 1.0000     0. 
   7  -5  -3      0.20    2.20  0. 1.0000     0. 
   5  -7  -3     -7.50    6.50  0. 1.0000     0. 
  -5  -7  -3      8.30    6.10  0. 1.0000     0. 
  -7  -5  -3      7.70    8.50  0. 1.0000     0. 
  -5  -7   3      7.60    3.30  0. 1.0000     0. 
   5  -7   3      4.40    6.10  0. 1.0000     0. 
   7  -5   3      5.70    4.40  0. 1.0000     0. 
   5   7  -3     -1.10    5.60  0. 1.0000     0. 
   7  -5  -3    -10.00   10.30  0. 1.0000     0. 
   7   5  -4   1033.50   74.99  0. 1.0000     0. 
   5   7  -4    946.71   75.09  0. 1.0000     0. 
  -5   7  -4    965.80   65.09  0. 1.0000     0. 
  -7  -5  -4   1226.68   89.19  0. 1.0000     0. 
  -5  -7  -4   1231.98   80.89  0. 1.0000     0. 
   5  -7  -4   1033.00   73.99  0. 1.0000     0. 
  -5  -7  -4   1144.39   67.89  0. 1.0000     0. 
   5  -7   4   1013.10   76.99  0. 1.0000     0. 
   7  -5   4    908.31   69.49  0. 1.0000     0. 
   5   7  -5      3.10    2.80  0. 1.0000     0. 
  -5   7  -5      3.60    5.50  0. 1.0000     0. 
  -7   5  -5      1.10    2.30  0. 1.0000     0. 
  -5  -7  -5      1.10    3.30  0. 1.0000     0. 
   5  -7  -5     -1.40    1.10  0. 1.0000     0. 
  -7  -5  -5      2.90    2.80  0. 1.0000     0. 
   5  -7   5      0.40    1.30  0. 1.0000     0. 
   7  -5   5      6.20    5.60  0. 1.0000     0. 
   7   5  -5      7.50    5.00  0. 1.0000     0. 
   7  -5  -5      8.20    7.20  0. 1.0000     0. 
   5   7  -6    581.54   32.20  0. 1.0000     0. 
  -5   7  -6    602.64   41.00  0. 1.0000     0. 
  -7   5  -6    544.45   40.30  0. 1.0000     0. 
  -7  -5  -6    577.74   34.10  0. 1.0000     0. 
   7  -5   6    638.54   41.60  0. 1.0000     0. 
   6   7   0     -4.70    5.10  0. 1.0000     0. 
   7  -6   0      1.50    5.70  0. 1.0000     0. 
   6  -7   0      0.20    1.00  0. 1.0000     0. 
  -6  -7   0      0.50    1.80  0. 1.0000     0. 
   7   6   0      1.20    2.70  0. 1.0000     0. 
   7   6   0      7.80    6.10  0. 1.0000     0. 
   7   6  -1     17.00    9.80  0. 1.0000     0. 
   6   7  -1     19.00   10.10  0. 1.0000     0. 
   7  -6  -1     17.00   10.00  0. 1.0000     0. 
   6  -7  -1      6.10    7.80  0. 1.0000     0. 
  -6  -7  -1     20.30    8.80  0. 1.0000     0. 
  -7  -6  -1     13.70    7.90  0. 1.0000     0. 
  -6  -7   1     19.70   11.60  0. 1.0000     0. 
   6  -7   1     26.50   11.80  0. 1.0000     0. 
   7   6   1     24.50   12.50  0. 1.0000     0. 
   7   6  -1     18.90   10.20  0. 1.0000     0. 
   7   6  -2     -1.50    3.40  0. 1.0000     0. 
   6   7  -2     -1.50    3.60  0. 1.0000     0. 
   7  -6  -2      3.10    4.20  0. 1.0000     0. 
   6  -7  -2     -1.20    5.10  0. 1.0000     0. 
  -6  -7  -2     -2.40    3.10  0. 1.0000     0. 
  -7  -6  -2      1.50    2.70  0. 1.0000     0. 
  -6  -7   2     -0.30    3.60  0. 1.0000     0. 
   6  -7   2      6.40    6.80  0. 1.0000     0. 
   7  -6   2      1.90    6.10  0. 1.0000     0. 
   7   6   2      0.70    2.70  0. 1.0000     0. 
   7   6  -2     -3.40    4.10  0. 1.0000     0. 
   6   7  -3     19.90   10.50  0. 1.0000     0. 
   7  -6  -3     16.70   10.40  0. 1.0000     0. 
   6  -7  -3      8.70    9.00  0. 1.0000     0. 
  -6  -7  -3     17.40    8.40  0. 1.0000     0. 
   7   6  -3      8.10    6.10  0. 1.0000     0. 
  -7  -6  -3     10.20    7.00  0. 1.0000     0. 
   6  -7   3      3.20    5.00  0. 1.0000     0. 
   7  -6   3      8.20    6.30  0. 1.0000     0. 
   7  -6  -3     13.80   10.10  0. 1.0000     0. 
   7   6  -4      3.40    5.20  0. 1.0000     0. 
   6   7  -4      3.30    3.40  0. 1.0000     0. 
  -6   7  -4      6.20    5.80  0. 1.0000     0. 
  -7   6  -4      0.90    1.70  0. 1.0000     0. 
   6  -7  -4     -0.60    0.90  0. 1.0000     0. 
  -6  -7  -4      1.20    2.10  0. 1.0000     0. 
  -7  -6  -4     -1.10    3.80  0. 1.0000     0. 
  -6  -7  -4     -0.40    1.30  0. 1.0000     0. 
   6  -7   4      3.90    4.90  0. 1.0000     0. 
   7  -6   4      0.30    3.10  0. 1.0000     0. 
   7  -6  -4     -8.30    8.10  0. 1.0000     0. 
   7   6  -5      5.30    4.40  0. 1.0000     0. 
   6   7  -5     -1.10    2.60  0. 1.0000     0. 
  -6   7  -5      1.00    1.70  0. 1.0000     0. 
  -7   6  -5      9.70    5.80  0. 1.0000     0. 
  -6  -7  -5      3.80    2.00  0. 1.0000     0. 
  -7  -6  -5      1.30    1.70  0. 1.0000     0. 
   6  -7   5      6.30    4.40  0. 1.0000     0. 
   7  -6   5      6.30    5.00  0. 1.0000     0. 
   7  -6  -5     -1.40    7.10  0. 1.0000     0. 
   7   7   0   1435.36   90.09  0. 1.0000     0. 
   7   7   0   1253.67   82.59  0. 1.0000     0. 
   7   7  -1     -3.10    5.50  0. 1.0000     0. 
   7  -7  -1      2.40    2.00  0. 1.0000     0. 
  -7  -7  -1      3.30    3.30  0. 1.0000     0. 
   7   7   1     -1.50    3.40  0. 1.0000     0. 
   7   7  -1     -1.10    2.40  0. 1.0000     0. 
   7   7  -2   1071.49   76.69  0. 1.0000     0. 
   7   7   2   1212.58   75.69  0. 1.0000     0. 
   7   7  -2   1127.59   73.59  0. 1.0000     0. 
   7  -7  -2   1084.29   81.89  0. 1.0000     0. 
  -7  -7  -2   1145.39   68.79  0. 1.0000     0. 
   7  -7   2   1192.38   80.19  0. 1.0000     0. 
   7   7  -3     -1.70    4.00  0. 1.0000     0. 
   7  -7  -3      2.50    4.40  0. 1.0000     0. 
  -7  -7  -3      0.90    1.70  0. 1.0000     0. 
   7  -7   3     -0.80    2.80  0. 1.0000     0. 
   7   7  -4    697.03   51.29  0. 1.0000     0. 
  -7   7  -4    723.53   43.60  0. 1.0000     0. 
  -7  -7  -4    856.31   50.89  0. 1.0000     0. 
  -7  -7  -4    754.82   47.00  0. 1.0000     0. 
   7  -7   4    661.33   53.29  0. 1.0000     0. 
   7   7  -5     -3.30    2.50  0. 1.0000     0. 
   7  -7   5     -1.60    2.20  0. 1.0000     0. 
   8   0   0   1450.95   95.39  0. 1.0000     0. 
   0  -8   0   1849.81  100.79  0. 1.0000     0. 
   0  -8   0   1746.43  111.19  0. 1.0000     0. 
   8   0   0   1345.17   82.09  0. 1.0000     0. 
   0   8   0   1582.04   98.79  0. 1.0000     0. 
  -8   0   0   1334.57   96.99  0. 1.0000     0. 
   0   8  -1    -10.70    8.00  0. 1.0000     0. 
   0  -8  -1      0.10    2.60  0. 1.0000     0. 
   8   0   1     -0.50    5.90  0. 1.0000     0. 
   8   0  -1      5.30    5.60  0. 1.0000     0. 
   0  -8  -1     19.30   11.00  0. 1.0000     0. 
   0  -8   1      3.70    5.10  0. 1.0000     0. 
   8   0   1     -8.20    6.00  0. 1.0000     0. 
   0   8   1     -6.20    6.70  0. 1.0000     0. 
   8   0  -1      2.90    2.20  0. 1.0000     0. 
   8   0   1      3.20    2.60  0. 1.0000     0. 
  -8   0  -1     10.60    7.60  0. 1.0000     0. 
  -8   0   1     19.40   11.90  0. 1.0000     0. 
   8   0   2   1468.35   94.39  0. 1.0000     0. 
   8   0  -2   1165.08   80.19  0. 1.0000     0. 
  -8   0  -2   1314.27   92.69  0. 1.0000     0. 
   0  -8  -2   1198.58   92.39  0. 1.0000     0. 
   0  -8   2   1359.56  103.69  0. 1.0000     0. 
   8   0   2   1092.69   75.49  0. 1.0000     0. 
   8   0  -2   1174.28   89.99  0. 1.0000     0. 
   0  -8   2   1722.63  104.99  0. 1.0000     0. 
   0   8   2   1484.75   91.59  0. 1.0000     0. 
   8   0   2   1354.96  107.39  0. 1.0000     0. 
  -8   0  -2   1864.41  113.19  0. 1.0000     0. 
  -8   0   2   1464.25  106.79  0. 1.0000     0. 
   0  -8  -2   1660.83  110.59  0. 1.0000     0. 
   0   8  -2   1244.98   96.39  0. 1.0000     0. 
   0   8  -3      5.50    6.40  0. 1.0000     0. 
   0  -8  -3     -2.80    5.50  0. 1.0000     0. 
  -8   0  -3      0.40    2.30  0. 1.0000     0. 
   0  -8   3      0.70    5.30  0. 1.0000     0. 
   8   0   3      6.20    6.50  0. 1.0000     0. 
   8   0  -3      5.40    6.40  0. 1.0000     0. 
   0   8  -4    724.33   68.99  0. 1.0000     0. 
  -8   0  -4    781.22   73.39  0. 1.0000     0. 
   0  -8   4    660.63   61.19  0. 1.0000     0. 
   0  -8  -4    729.53   70.09  0. 1.0000     0. 
   8   0  -4    672.73   68.59  0. 1.0000     0. 
   0   8  -5     -3.40    7.00  0. 1.0000     0. 
  -8   0  -5      2.10    3.10  0. 1.0000     0. 
   0  -8  -5     11.20    7.40  0. 1.0000     0. 
   0  -8   5    -11.00    6.80  0. 1.0000     0. 
   8   0  -5      7.80    6.40  0. 1.0000     0. 
   0   8  -6    479.95   44.60  0. 1.0000     0. 
  -8   0  -6    557.74   34.60  0. 1.0000     0. 
   8   0   6    457.95   35.40  0. 1.0000     0. 
   8   0  -6    410.96   34.00  0. 1.0000     0. 
   1  -8   0      0.10    4.40  0. 1.0000     0. 
   8  -1   0      2.00    3.40  0. 1.0000     0. 
  -1  -8   0     -3.50    4.80  0. 1.0000     0. 
   8   1   0      6.70    8.70  0. 1.0000     0. 
   1  -8   0     19.10   14.00  0. 1.0000     0. 
   8   1   0      0.20    2.60  0. 1.0000     0. 
   8  -1   0      7.90    6.30  0. 1.0000     0. 
   1   8   0      3.40    6.30  0. 1.0000     0. 
  -8   1   0    -18.90   11.90  0. 1.0000     0. 
  -8  -1   0     13.00    8.90  0. 1.0000     0. 
  -1   8   0     -3.10    4.20  0. 1.0000     0. 
   1   8  -1     -2.20    9.60  0. 1.0000     0. 
   8  -1  -1     -1.30    4.50  0. 1.0000     0. 
  -1   8  -1    -12.30    8.30  0. 1.0000     0. 
   1  -8  -1      6.70    6.80  0. 1.0000     0. 
   8  -1   1      0.10    6.00  0. 1.0000     0. 
  -1  -8  -1      6.50    4.90  0. 1.0000     0. 
   8   1   1      8.60    9.90  0. 1.0000     0. 
   8   1  -1      3.30    3.40  0. 1.0000     0. 
  -1  -8   1      0.50    5.80  0. 1.0000     0. 
   1  -8   1     17.60    9.60  0. 1.0000     0. 
   1   8   1      9.10    7.20  0. 1.0000     0. 
   8   1   1      0.20    2.90  0. 1.0000     0. 
   8  -1   1     -3.50    4.00  0. 1.0000     0. 
  -1   8   1     18.50   10.90  0. 1.0000     0. 
   8   1  -1     14.70    9.90  0. 1.0000     0. 
   8  -1   1      4.70    8.50  0. 1.0000     0. 
   8  -1  -1      3.80    9.80  0. 1.0000     0. 
  -8  -1  -1     21.30   11.30  0. 1.0000     0. 
  -8   1   1      8.80   10.20  0. 1.0000     0. 
  -8  -1   1     10.10    8.30  0. 1.0000     0. 
   8   1  -2      5.90    5.00  0. 1.0000     0. 
   1   8  -2    -16.60    9.00  0. 1.0000     0. 
   1  -8  -2    -14.90   10.10  0. 1.0000     0. 
  -1  -8  -2     11.10    8.80  0. 1.0000     0. 
   1  -8  -2      1.10    2.60  0. 1.0000     0. 
   8  -1   2      2.70    3.40  0. 1.0000     0. 
   8  -1  -2      0.20    3.80  0. 1.0000     0. 
  -1  -8  -2      6.50    8.30  0. 1.0000     0. 
  -8   1  -2     -1.80    2.90  0. 1.0000     0. 
  -8  -1  -2      5.30    5.90  0. 1.0000     0. 
   8   1   2    -17.40   10.00  0. 1.0000     0. 
   8   1  -2     -6.50    6.10  0. 1.0000     0. 
  -1  -8   2      6.40    2.10  0. 1.0000     0. 
   1   8   2      9.10    5.30  0. 1.0000     0. 
   1  -8   2    -10.50    8.60  0. 1.0000     0. 
  -1   8   2     -6.90    7.60  0. 1.0000     0. 
   1   8  -2      7.50    7.40  0. 1.0000     0. 
   8   1   2      4.90    4.90  0. 1.0000     0. 
   8  -1   2      3.60    1.50  0. 1.0000     0. 
  -1  -8   2     39.60   17.20  0. 1.0000     0. 
   8  -1   2     -3.30    5.00  0. 1.0000     0. 
  -1   8  -2      9.40    7.70  0. 1.0000     0. 
   8   1   2     -1.40    3.50  0. 1.0000     0. 
   8   1  -2      2.20    7.10  0. 1.0000     0. 
   8  -1  -2      5.40    8.40  0. 1.0000     0. 
  -8   1   2     15.80   12.10  0. 1.0000     0. 
  -8  -1   2      6.10    2.40  0. 1.0000     0. 
   1   8  -3     -1.10    2.60  0. 1.0000     0. 
  -1   8  -3      9.40    7.00  0. 1.0000     0. 
   1  -8  -3     -0.20    5.90  0. 1.0000     0. 
  -8   1  -3      0.60    1.80  0. 1.0000     0. 
  -1  -8  -3      1.30    5.40  0. 1.0000     0. 
  -8  -1  -3      4.30    5.60  0. 1.0000     0. 
  -1  -8   3     -0.80    2.20  0. 1.0000     0. 
   1  -8   3      2.50    4.50  0. 1.0000     0. 
   8   1   3      7.30    5.40  0. 1.0000     0. 
   8  -1   3      6.60    7.50  0. 1.0000     0. 
   8   1  -3      3.70    4.60  0. 1.0000     0. 
   8  -1  -3      3.70    7.40  0. 1.0000     0. 
   1   8  -4      6.30    4.70  0. 1.0000     0. 
  -1   8  -4     -6.00    5.80  0. 1.0000     0. 
  -8   1  -4      4.30    2.40  0. 1.0000     0. 
  -8  -1  -4     -2.50    4.00  0. 1.0000     0. 
  -1  -8  -4      2.80    3.50  0. 1.0000     0. 
  -1  -8   4      0.90    4.00  0. 1.0000     0. 
   1  -8   4      2.70    4.40  0. 1.0000     0. 
   1  -8  -4      6.80    4.80  0. 1.0000     0. 
   8   1  -4      0.90    2.30  0. 1.0000     0. 
   8  -1  -4     -1.00    4.00  0. 1.0000     0. 
   1   8  -5      3.50    5.90  0. 1.0000     0. 
  -1   8  -5      1.80    3.10  0. 1.0000     0. 
   1  -8  -5      2.70    3.50  0. 1.0000     0. 
  -8   1  -5     -5.00    4.40  0. 1.0000     0. 
  -8  -1  -5     -0.80    2.80  0. 1.0000     0. 
  -1  -8  -5      1.10    2.40  0. 1.0000     0. 
  -1  -8   5      3.30    1.80  0. 1.0000     0. 
   1  -8   5      2.50    2.60  0. 1.0000     0. 
   8   1  -5      1.10    3.30  0. 1.0000     0. 
   8  -1  -5      4.00    1.50  0. 1.0000     0. 
   1   8  -6      2.40    4.10  0. 1.0000     0. 
  -1   8  -6     -2.60    4.00  0. 1.0000     0. 
  -8  -1  -6      0.20    2.70  0. 1.0000     0. 
   8  -1   6      2.60    2.80  0. 1.0000     0. 
   8   1  -6      0.80    1.20  0. 1.0000     0. 
   8  -1  -6      5.90    4.60  0. 1.0000     0. 
   8   2   0   1322.87   91.59  0. 1.0000     0. 
   2  -8   0   1797.42   95.29  0. 1.0000     0. 
   8  -2   0   1396.36   91.09  0. 1.0000     0. 
  -2  -8   0   1450.15   94.29  0. 1.0000     0. 
   2  -8   0   1974.40  116.29  0. 1.0000     0. 
   8   2   0   1828.22   98.69  0. 1.0000     0. 
   8  -2   0   1397.16   92.39  0. 1.0000     0. 
   2   8   0   1632.24   99.79  0. 1.0000     0. 
  -8   2   0   1517.85  110.99  0. 1.0000     0. 
  -8  -2   0   1701.03  102.89  0. 1.0000     0. 
   8   2  -1     11.80    8.40  0. 1.0000     0. 
   2   8  -1     13.60    9.50  0. 1.0000     0. 
   2  -8  -1      9.50    7.20  0. 1.0000     0. 
   8  -2   1      9.90    8.00  0. 1.0000     0. 
   8  -2  -1     11.60   10.30  0. 1.0000     0. 
  -2  -8  -1     26.90   12.40  0. 1.0000     0. 
  -2  -8   1     15.00    8.50  0. 1.0000     0. 
   8   2   1     19.50   11.30  0. 1.0000     0. 
   8   2  -1     14.10    9.50  0. 1.0000     0. 
   2  -8   1     21.00   11.80  0. 1.0000     0. 
  -2   8  -1     15.00    7.30  0. 1.0000     0. 
   2   8   1     13.90    9.80  0. 1.0000     0. 
   8   2   1     28.60   13.30  0. 1.0000     0. 
   8  -2   1     13.70    9.90  0. 1.0000     0. 
   8   2  -1     21.10    9.70  0. 1.0000     0. 
   8  -2   1     11.10    5.90  0. 1.0000     0. 
   8  -2  -1     13.30   10.70  0. 1.0000     0. 
  -8   2   1     14.60   11.10  0. 1.0000     0. 
  -8  -2   1     -6.10    6.30  0. 1.0000     0. 
  -2   8  -2   2075.49  108.89  0. 1.0000     0. 
   8   2  -2   1436.16   95.49  0. 1.0000     0. 
   2   8  -2   1201.68   80.99  0. 1.0000     0. 
   8  -2   2   1498.15   90.29  0. 1.0000     0. 
   8  -2  -2   1212.58   78.89  0. 1.0000     0. 
  -8  -2  -2   1324.77   93.69  0. 1.0000     0. 
   8   2   2   1251.77   84.29  0. 1.0000     0. 
   8   2  -2   1184.58   83.69  0. 1.0000     0. 
   2  -8  -2   1234.48   88.99  0. 1.0000     0. 
  -2  -8  -2   1814.02  103.69  0. 1.0000     0. 
   2  -8   2   1368.06   97.19  0. 1.0000     0. 
   8   2   2   1305.87   85.89  0. 1.0000     0. 
   8  -2   2   1235.28   95.19  0. 1.0000     0. 
   8   2  -2   1344.97   86.49  0. 1.0000     0. 
   8  -2  -2   1252.77  100.09  0. 1.0000     0. 
   2   8   2   1440.46   91.69  0. 1.0000     0. 
   8  -2   2   1623.24  115.99  0. 1.0000     0. 
   2  -8  -2   2070.99  120.89  0. 1.0000     0. 
  -2  -8   2   1192.68   93.49  0. 1.0000     0. 
  -8   2   2   1557.14  111.19  0. 1.0000     0. 
  -8  -2   2   1719.83  115.19  0. 1.0000     0. 
  -2  -8  -2   1638.94  106.39  0. 1.0000     0. 
   2   8  -2   1405.56  102.89  0. 1.0000     0. 
   8   2  -3     -0.80    3.30  0. 1.0000     0. 
   2   8  -3      2.00    4.40  0. 1.0000     0. 
  -2   8  -3      2.70    3.60  0. 1.0000     0. 
   2  -8  -3      8.40    9.10  0. 1.0000     0. 
  -2  -8  -3      0.90    6.50  0. 1.0000     0. 
  -8  -2  -3      1.80    3.60  0. 1.0000     0. 
  -2  -8   3      9.90    8.50  0. 1.0000     0. 
   2  -8   3      5.90    6.10  0. 1.0000     0. 
   8   2   3      5.70    6.10  0. 1.0000     0. 
   8  -2   3     -5.90    6.70  0. 1.0000     0. 
   8   2  -3      4.00    4.60  0. 1.0000     0. 
   8  -2  -3      1.00    2.90  0. 1.0000     0. 
   2   8  -4    809.62   78.69  0. 1.0000     0. 
  -2   8  -4    756.52   63.29  0. 1.0000     0. 
  -8  -2  -4    955.00   90.89  0. 1.0000     0. 
   2  -8  -4    776.72   68.59  0. 1.0000     0. 
  -2  -8  -4    736.03   68.89  0. 1.0000     0. 
  -2  -8   4    732.83   60.19  0. 1.0000     0. 
   2  -8   4    753.82   66.99  0. 1.0000     0. 
   8   2  -4    763.22   64.59  0. 1.0000     0. 
   8  -2  -4    746.03   80.99  0. 1.0000     0. 
   2   8  -5      6.40    7.00  0. 1.0000     0. 
  -2   8  -5     -0.40    1.50  0. 1.0000     0. 
  -8  -2  -5      5.50    5.40  0. 1.0000     0. 
   2  -8  -5      2.10    3.10  0. 1.0000     0. 
  -2  -8  -5     -2.10    4.00  0. 1.0000     0. 
   2  -8   5      2.80    3.40  0. 1.0000     0. 
   8   2  -5     -3.30    3.30  0. 1.0000     0. 
   8  -2  -5      5.70    6.40  0. 1.0000     0. 
   2   8  -6    443.46   36.20  0. 1.0000     0. 
  -2   8  -6    443.86   40.70  0. 1.0000     0. 
  -8  -2  -6    433.46   34.10  0. 1.0000     0. 
   8  -2   6    491.95   39.70  0. 1.0000     0. 
   8  -2  -6    391.96   35.70  0. 1.0000     0. 
   3  -8   0    110.99   24.10  0. 1.0000     0. 
   8  -3   0     72.39   20.20  0. 1.0000     0. 
  -3  -8   0     66.59   19.50  0. 1.0000     0. 
   8   3   0     94.59   20.70  0. 1.0000     0. 
   3  -8   0    149.09   31.10  0. 1.0000     0. 
   8   3   0     49.99   17.30  0. 1.0000     0. 
   8  -3   0     87.99   26.10  0. 1.0000     0. 
  -8  -3   0    151.88   31.20  0. 1.0000     0. 
   3   8   0     81.39   22.20  0. 1.0000     0. 
  -8   3   0    114.99   31.90  0. 1.0000     0. 
   8   3  -1     -2.20    3.20  0. 1.0000     0. 
   3   8  -1     14.30    9.10  0. 1.0000     0. 
   3   8  -1     -9.10    7.20  0. 1.0000     0. 
   8  -3   1     -0.20    1.90  0. 1.0000     0. 
   8  -3  -1      4.40    6.90  0. 1.0000     0. 
   3  -8  -1      2.60    3.80  0. 1.0000     0. 
  -3  -8  -1     -7.30    6.40  0. 1.0000     0. 
  -3  -8   1     12.70    8.50  0. 1.0000     0. 
   3  -8   1      7.20    8.00  0. 1.0000     0. 
   8   3   1      6.50    7.60  0. 1.0000     0. 
   8   3  -1      0.10    0.60  0. 1.0000     0. 
   8   3   1      6.80    7.00  0. 1.0000     0. 
   8  -3   1      1.80    2.50  0. 1.0000     0. 
   3   8   1    -20.20   11.70  0. 1.0000     0. 
   8   3  -1    -12.40    7.10  0. 1.0000     0. 
   8  -3   1      4.70    6.30  0. 1.0000     0. 
   8  -3  -1     -0.90    7.80  0. 1.0000     0. 
  -8   3   1     -6.70    7.70  0. 1.0000     0. 
  -8  -3   1     27.20   13.40  0. 1.0000     0. 
   8   3  -2     65.09   20.30  0. 1.0000     0. 
   3   8  -2     49.99   16.10  0. 1.0000     0. 
   8  -3  -2     37.50   14.70  0. 1.0000     0. 
   3  -8  -2     57.09   19.10  0. 1.0000     0. 
  -8  -3  -2     71.29   21.10  0. 1.0000     0. 
  -3  -8  -2     54.69   18.00  0. 1.0000     0. 
   8  -3   2     59.59   17.30  0. 1.0000     0. 
  -3  -8   2     84.39   23.40  0. 1.0000     0. 
   8   3   2     70.59   19.40  0. 1.0000     0. 
   8   3  -2     64.69   19.30  0. 1.0000     0. 
   3  -8   2     68.99   22.10  0. 1.0000     0. 
   3   8   2     86.99   23.20  0. 1.0000     0. 
   3   8  -2     88.89   23.50  0. 1.0000     0. 
   8   3   2     69.69   19.30  0. 1.0000     0. 
   8  -3   2     66.59   24.80  0. 1.0000     0. 
   8   3  -2     76.29   18.00  0. 1.0000     0. 
   8  -3   2     67.09   23.60  0. 1.0000     0. 
   8  -3  -2     83.79   26.50  0. 1.0000     0. 
  -8   3   2     37.80   17.70  0. 1.0000     0. 
  -8  -3   2     68.09   23.20  0. 1.0000     0. 
   3   8  -3     -3.10    4.50  0. 1.0000     0. 
  -3   8  -3     -6.50    5.70  0. 1.0000     0. 
   8   3  -3      0.40    4.30  0. 1.0000     0. 
   3  -8  -3      0.10    5.60  0. 1.0000     0. 
  -8  -3  -3     -1.10    0.90  0. 1.0000     0. 
  -3  -8  -3      3.70    5.30  0. 1.0000     0. 
  -3  -8   3      4.90    5.80  0. 1.0000     0. 
   3  -8   3      0.10    5.30  0. 1.0000     0. 
   8  -3   3      2.60    1.70  0. 1.0000     0. 
   8   3  -3      2.60    3.40  0. 1.0000     0. 
   8  -3  -3      3.90    5.30  0. 1.0000     0. 
   3   8  -4     25.70   13.60  0. 1.0000     0. 
  -3   8  -4     17.40    8.80  0. 1.0000     0. 
   3  -8  -4     25.20   11.20  0. 1.0000     0. 
  -8  -3  -4     42.50   17.90  0. 1.0000     0. 
  -3  -8  -4     15.10    9.60  0. 1.0000     0. 
  -3  -8   4     17.70    8.40  0. 1.0000     0. 
   3  -8   4     32.10   15.00  0. 1.0000     0. 
   8   3  -4     22.70   10.10  0. 1.0000     0. 
   8  -3  -4     11.50   11.20  0. 1.0000     0. 
   3   8  -5      3.40    3.00  0. 1.0000     0. 
  -3   8  -5      4.10    4.20  0. 1.0000     0. 
  -8  -3  -5      2.70    5.20  0. 1.0000     0. 
   3  -8  -5     -0.50    3.20  0. 1.0000     0. 
  -3  -8  -5    -11.30    6.70  0. 1.0000     0. 
   3  -8   5      5.00    4.90  0. 1.0000     0. 
   8  -3   5      2.60    2.60  0. 1.0000     0. 
   8  -3  -5      2.70    4.90  0. 1.0000     0. 
  -3   8  -6     10.60    5.30  0. 1.0000     0. 
  -8   3  -6     12.30    6.10  0. 1.0000     0. 
  -8  -3  -6      7.60    4.40  0. 1.0000     0. 
   8  -3   6     19.80    7.40  0. 1.0000     0. 
   3   8  -6      9.20    4.40  0. 1.0000     0. 
   8  -3  -6     11.60    5.70  0. 1.0000     0. 
   8  -4   0   1734.03   97.99  0. 1.0000     0. 
   8   4   0   1843.42  105.99  0. 1.0000     0. 
   4  -8   0   2329.27  109.49  0. 1.0000     0. 
  -4  -8   0   1735.33   98.49  0. 1.0000     0. 
   8  -4   0   2123.49  130.69  0. 1.0000     0. 
   4   8   0   2435.66  122.19  0. 1.0000     0. 
   4   8  -1     73.19   20.40  0. 1.0000     0. 
   8   4  -1     57.89   19.60  0. 1.0000     0. 
   8  -4   1     63.09   17.80  0. 1.0000     0. 
   8  -4  -1     44.60   15.50  0. 1.0000     0. 
   4   8  -1     68.39   19.60  0. 1.0000     0. 
   4  -8  -1     42.00   15.60  0. 1.0000     0. 
  -4  -8  -1     40.00   15.40  0. 1.0000     0. 
  -4  -8   1     59.79   18.80  0. 1.0000     0. 
   4  -8   1     81.09   23.10  0. 1.0000     0. 
   8   4   1     49.80   17.30  0. 1.0000     0. 
   8   4  -1     60.09   18.80  0. 1.0000     0. 
   8  -4   1     62.69   22.30  0. 1.0000     0. 
   4   8   1     85.99   22.60  0. 1.0000     0. 
   8  -4  -1     41.10   18.80  0. 1.0000     0. 
  -8   4   1    105.89   34.80  0. 1.0000     0. 
   8  -4   2   1600.74   90.29  0. 1.0000     0. 
   8  -4  -2   1413.96   84.09  0. 1.0000     0. 
   8   4  -2   1635.24  101.69  0. 1.0000     0. 
   4   8  -2   1561.24   91.99  0. 1.0000     0. 
   8   4   2   1771.52   96.09  0. 1.0000     0. 
   8   4  -2   1577.14   92.69  0. 1.0000     0. 
   4  -8  -2   1507.55   96.59  0. 1.0000     0. 
  -8  -4  -2   1591.14   96.39  0. 1.0000     0. 
  -4  -8   2   1630.04   99.39  0. 1.0000     0. 
   4  -8   2   1713.23  108.59  0. 1.0000     0. 
   8   4   2   1888.81   88.99  0. 1.0000     0. 
   8  -4   2   1685.13  110.49  0. 1.0000     0. 
   8  -4  -2   1772.42  121.49  0. 1.0000     0. 
   8   4  -3     42.00   16.00  0. 1.0000     0. 
   4   8  -3     29.10   13.20  0. 1.0000     0. 
   4  -8  -3     26.80   13.20  0. 1.0000     0. 
  -8  -4  -3     25.50   12.80  0. 1.0000     0. 
  -4  -8   3     36.70   13.00  0. 1.0000     0. 
   4  -8   3     36.00   15.20  0. 1.0000     0. 
   8  -4   3     44.40   16.50  0. 1.0000     0. 
   8  -4  -3     43.40   17.80  0. 1.0000     0. 
   8   4  -4   1186.38   75.79  0. 1.0000     0. 
   4   8  -4    966.20   76.49  0. 1.0000     0. 
  -4   8  -4    954.40   61.79  0. 1.0000     0. 
  -8  -4  -4   1035.80   78.29  0. 1.0000     0. 
   4  -8  -4    947.51   71.89  0. 1.0000     0. 
  -4  -8  -4   1102.69   73.79  0. 1.0000     0. 
   4  -8   4    949.60   74.99  0. 1.0000     0. 
   8  -4   4    889.91   68.49  0. 1.0000     0. 
   8  -4  -4   1125.39   96.09  0. 1.0000     0. 
   4   8  -5     11.40    6.40  0. 1.0000     0. 
  -4   8  -5     15.20    7.40  0. 1.0000     0. 
   4  -8  -5     21.40    8.90  0. 1.0000     0. 
  -8  -4  -5     10.30    6.00  0. 1.0000     0. 
   8   4  -5     24.50    7.80  0. 1.0000     0. 
   4  -8   5     16.60    9.90  0. 1.0000     0. 
   8  -4   5     13.90    7.60  0. 1.0000     0. 
   8  -4  -5     15.80    8.10  0. 1.0000     0. 
   5   8   0      6.40    5.60  0. 1.0000     0. 
   8  -5   0      0.40    2.40  0. 1.0000     0. 
   5  -8   0     -2.40    2.30  0. 1.0000     0. 
  -5  -8   0     -2.10    5.60  0. 1.0000     0. 
   8   5   0      3.80    3.70  0. 1.0000     0. 
   8  -5   0     -6.30    6.30  0. 1.0000     0. 
   8   5  -1     28.80   13.30  0. 1.0000     0. 
   5   8  -1     26.40   12.30  0. 1.0000     0. 
   8  -5  -1     33.30   14.50  0. 1.0000     0. 
   5  -8  -1     43.10   15.70  0. 1.0000     0. 
  -5  -8  -1     21.30    9.70  0. 1.0000     0. 
  -8  -5  -1     22.40   11.20  0. 1.0000     0. 
  -5  -8   1     18.70   10.70  0. 1.0000     0. 
   5  -8   1     39.80   16.00  0. 1.0000     0. 
   8   5   1     39.20   14.60  0. 1.0000     0. 
   8   5  -1     33.70   15.50  0. 1.0000     0. 
   8  -5  -1     36.80   16.40  0. 1.0000     0. 
   8   5  -2      3.60    7.10  0. 1.0000     0. 
   5   8  -2      4.20    4.90  0. 1.0000     0. 
   5  -8  -2     -0.20    1.50  0. 1.0000     0. 
  -8  -5  -2     -1.40    2.30  0. 1.0000     0. 
  -5  -8   2      0.60    4.80  0. 1.0000     0. 
   5  -8   2     -6.30    6.40  0. 1.0000     0. 
   8   5   2      0.70    5.50  0. 1.0000     0. 
   8   5  -2      0.20    1.90  0. 1.0000     0. 
   8  -5   2     -1.10    3.60  0. 1.0000     0. 
   8  -5  -2      4.80    8.20  0. 1.0000     0. 
   8   5  -3     11.80    8.40  0. 1.0000     0. 
   5   8  -3     11.10    6.90  0. 1.0000     0. 
   5  -8  -3     10.60    7.90  0. 1.0000     0. 
  -8  -5  -3     16.40    9.50  0. 1.0000     0. 
  -5  -8   3     16.00    7.60  0. 1.0000     0. 
   5  -8   3     15.00    7.90  0. 1.0000     0. 
   8  -5   3     17.70    9.40  0. 1.0000     0. 
   8  -5  -3      5.50    4.10  0. 1.0000     0. 
   8   5  -4     -2.00    4.30  0. 1.0000     0. 
   5   8  -4      3.90    6.30  0. 1.0000     0. 
  -5   8  -4     -6.70    4.40  0. 1.0000     0. 
   5  -8  -4     -0.50    1.00  0. 1.0000     0. 
  -8  -5  -4     -2.30    5.60  0. 1.0000     0. 
  -5  -8  -4     -0.30    1.30  0. 1.0000     0. 
   5  -8   4      0.90    2.10  0. 1.0000     0. 
   8  -5   4      0.60    1.70  0. 1.0000     0. 
   8  -5  -4      1.70    3.50  0. 1.0000     0. 
   8   5  -5     11.60    5.10  0. 1.0000     0. 
   5   8  -5      6.40    3.60  0. 1.0000     0. 
  -5   8  -5     11.90    5.50  0. 1.0000     0. 
  -8   5  -5      8.60    5.00  0. 1.0000     0. 
  -8  -5  -5      5.90    4.20  0. 1.0000     0. 
   5  -8   5      4.90    4.30  0. 1.0000     0. 
   8  -5   5      8.00    5.90  0. 1.0000     0. 
   8  -5  -5     24.00   10.70  0. 1.0000     0. 
   6   8   0   1913.11   96.49  0. 1.0000     0. 
   8   6   0   1487.35   93.39  0. 1.0000     0. 
   6  -8   0   1805.22   98.79  0. 1.0000     0. 
  -6  -8   0   1432.36   89.79  0. 1.0000     0. 
   6  -8  -1     34.00   13.90  0. 1.0000     0. 
   6   8  -1     51.19   16.90  0. 1.0000     0. 
  -8  -6  -1     48.80   17.00  0. 1.0000     0. 
  -6  -8   1     38.00   14.50  0. 1.0000     0. 
   8   6  -1     49.30   17.20  0. 1.0000     0. 
   6  -8   1     69.49   20.90  0. 1.0000     0. 
   8   6   1     50.99   16.30  0. 1.0000     0. 
   8   6  -1     37.70   14.10  0. 1.0000     0. 
   8   6  -2   1175.98   78.19  0. 1.0000     0. 
   6   8  -2   1254.17   80.09  0. 1.0000     0. 
  -8  -6  -2   1371.16   80.59  0. 1.0000     0. 
   8   6   2   1410.06   79.39  0. 1.0000     0. 
   8   6  -2   1268.07   75.79  0. 1.0000     0. 
   6   8   2   1318.07   76.09  0. 1.0000     0. 
   6   8  -2   1177.18   71.39  0. 1.0000     0. 
   6  -8  -2   1343.07   90.49  0. 1.0000     0. 
  -6  -8   2   1317.27   77.59  0. 1.0000     0. 
   6  -8   2   1504.95   95.29  0. 1.0000     0. 
   8  -6   2   1274.67   80.09  0. 1.0000     0. 
   8   6  -3     21.60    9.80  0. 1.0000     0. 
   6   8  -3     30.90   13.00  0. 1.0000     0. 
   6  -8  -3     19.20   11.00  0. 1.0000     0. 
  -8  -6  -3     30.70   12.10  0. 1.0000     0. 
  -6  -8   3     27.90    9.10  0. 1.0000     0. 
   6  -8   3     26.50   11.40  0. 1.0000     0. 
   8  -6   3     20.80   10.50  0. 1.0000     0. 
   8  -6  -3     15.90    9.50  0. 1.0000     0. 
   8   6  -4    809.72   52.99  0. 1.0000     0. 
   6   8  -4    833.82   56.99  0. 1.0000     0. 
  -8   6  -4    886.11   54.79  0. 1.0000     0. 
   6  -8  -4    834.32   60.09  0. 1.0000     0. 
  -6  -8  -4    942.21   54.09  0. 1.0000     0. 
   6  -8   4    760.52   58.19  0. 1.0000     0. 
   8  -6   4    786.32   58.79  0. 1.0000     0. 
  -8  -6  -4    936.91   57.79  0. 1.0000     0. 
   8   6  -5     15.50    4.80  0. 1.0000     0. 
   6   8  -5     10.50    4.30  0. 1.0000     0. 
  -8  -6  -5      9.60    4.00  0. 1.0000     0. 
   6  -8   5     10.90    5.60  0. 1.0000     0. 
   8  -6   5     15.20    5.90  0. 1.0000     0. 
  -8  -7   0     24.30    9.80  0. 1.0000     0. 
   8   7   0     13.40    8.30  0. 1.0000     0. 
   7   8   0     13.70    7.30  0. 1.0000     0. 
   8   7  -1      1.30    2.90  0. 1.0000     0. 
   7   8  -1      3.00    4.60  0. 1.0000     0. 
   7  -8  -1      3.80    4.30  0. 1.0000     0. 
  -8  -7  -1      3.40    4.50  0. 1.0000     0. 
   8   7   1      0.10    1.10  0. 1.0000     0. 
   8   7  -1      4.80    5.30  0. 1.0000     0. 
   7   8   1      3.60    5.10  0. 1.0000     0. 
   7   8  -1      0.40    2.60  0. 1.0000     0. 
   8   7  -2     11.90    6.10  0. 1.0000     0. 
   7   8  -2     15.00    8.30  0. 1.0000     0. 
   7  -8  -2     12.70    8.80  0. 1.0000     0. 
  -8  -7  -2     11.80    6.40  0. 1.0000     0. 
   7  -8   2      8.70    5.40  0. 1.0000     0. 
   8  -7   2     12.40    6.90  0. 1.0000     0. 
   8   7   2     10.70    5.80  0. 1.0000     0. 
   8   7  -2     11.60    6.40  0. 1.0000     0. 
   7   8   2      6.40    3.60  0. 1.0000     0. 
   7   8  -2     19.80    8.60  0. 1.0000     0. 
   8   7  -3      1.40    2.10  0. 1.0000     0. 
   7   8  -3      4.10    5.40  0. 1.0000     0. 
   7  -8  -3      0.50    1.90  0. 1.0000     0. 
  -8  -7  -3      2.60    3.80  0. 1.0000     0. 
   7  -8   3     -0.30    2.80  0. 1.0000     0. 
   8  -7   3     -3.40    3.70  0. 1.0000     0. 
   8   7  -4      2.00    2.60  0. 1.0000     0. 
   7   8  -4      8.40    4.50  0. 1.0000     0. 
  -8  -7  -4      9.10    4.40  0. 1.0000     0. 
  -7  -8  -4      8.00    3.70  0. 1.0000     0. 
   7  -8   4      4.80    3.30  0. 1.0000     0. 
   8  -7   4      2.40    2.40  0. 1.0000     0. 
   8   8   0    507.55   45.40  0. 1.0000     0. 
   8   8   1      0.80    1.70  0. 1.0000     0. 
   8   8  -1      0.80    3.20  0. 1.0000     0. 
   8   8   2    527.55   38.90  0. 1.0000     0. 
   8   8  -2    488.05   36.90  0. 1.0000     0. 
   8   8  -2    471.35   40.90  0. 1.0000     0. 
   8   8  -3     -2.50    3.40  0. 1.0000     0. 
   8  -8   3      2.60    3.60  0. 1.0000     0. 
   0   9   0      3.60    4.70  0. 1.0000     0. 
   0  -9   0      4.50    7.50  0. 1.0000     0. 
   9   0   0      3.30    3.40  0. 1.0000     0. 
   0  -9   0      8.20    7.20  0. 1.0000     0. 
   9   0   0      4.10    3.50  0. 1.0000     0. 
  -9   0   0     -3.20    3.70  0. 1.0000     0. 
   0   9  -1     97.69   25.50  0. 1.0000     0. 
   0  -9  -1     52.79   19.30  0. 1.0000     0. 
   9   0   1     66.89   21.70  0. 1.0000     0. 
   9   0  -1     42.10   17.70  0. 1.0000     0. 
   0  -9  -1     83.29   21.90  0. 1.0000     0. 
   0  -9   1     48.30   20.50  0. 1.0000     0. 
   9   0   1     45.80   15.40  0. 1.0000     0. 
   9   0  -1     52.49   18.20  0. 1.0000     0. 
   0   9   1    120.29   27.40  0. 1.0000     0. 
  -9   0  -1     69.99   22.40  0. 1.0000     0. 
   0  -9  -2      3.80    8.00  0. 1.0000     0. 
   9   0   2      6.80    6.70  0. 1.0000     0. 
   9   0  -2     -2.30    3.90  0. 1.0000     0. 
  -9   0  -2      8.60    6.90  0. 1.0000     0. 
   0  -9   2      1.10    4.50  0. 1.0000     0. 
   9   0   2     -0.10    6.50  0. 1.0000     0. 
   9   0  -2      2.80    3.50  0. 1.0000     0. 
   0   9  -3     33.60   13.20  0. 1.0000     0. 
   0  -9  -3     23.20   12.20  0. 1.0000     0. 
  -9   0  -3     25.20   12.20  0. 1.0000     0. 
   0  -9   3     21.00   10.30  0. 1.0000     0. 
   9   0   3     14.70    7.60  0. 1.0000     0. 
   9   0  -3     12.80    8.90  0. 1.0000     0. 
   0   9  -4     -3.20    4.00  0. 1.0000     0. 
  -9   0  -4     10.60    7.30  0. 1.0000     0. 
   0  -9  -4      2.00    5.30  0. 1.0000     0. 
   0  -9   4     -8.60    6.40  0. 1.0000     0. 
   9   0  -4      5.40    6.10  0. 1.0000     0. 
   0   9  -5      9.30    6.10  0. 1.0000     0. 
  -9   0  -5     21.90    7.60  0. 1.0000     0. 
   0  -9  -5      9.70    6.60  0. 1.0000     0. 
   0  -9   5      9.20    4.50  0. 1.0000     0. 
   9   0  -5      4.80    4.00  0. 1.0000     0. 
   9  -1   0   1487.45  107.99  0. 1.0000     0. 
   9   1   0   1402.76  102.29  0. 1.0000     0. 
   1  -9   0   1736.23  102.09  0. 1.0000     0. 
  -1  -9   0   1578.44  100.89  0. 1.0000     0. 
  -1  -9   0   1665.23  106.79  0. 1.0000     0. 
   1  -9   0   1644.64  108.49  0. 1.0000     0. 
   9   1   0   1759.52  100.89  0. 1.0000     0. 
   9  -1   0   1388.86   88.89  0. 1.0000     0. 
  -9   1   0   2051.29  133.99  0. 1.0000     0. 
   1   9   0   2236.38  118.59  0. 1.0000     0. 
  -9  -1   0   2123.49  118.69  0. 1.0000     0. 
   1  -9  -1      8.60    8.20  0. 1.0000     0. 
  -1  -9  -1      2.20    2.30  0. 1.0000     0. 
   9  -1   1      8.30    8.30  0. 1.0000     0. 
   9  -1  -1      3.50    4.90  0. 1.0000     0. 
  -9   1  -1      6.70    5.80  0. 1.0000     0. 
   9   1   1      5.80    5.90  0. 1.0000     0. 
   9   1  -1      4.10    5.40  0. 1.0000     0. 
  -1  -9  -1     -2.90    4.20  0. 1.0000     0. 
  -1   9  -1      1.10    2.60  0. 1.0000     0. 
  -1  -9   1     14.90   12.60  0. 1.0000     0. 
   1  -9   1      4.70    6.10  0. 1.0000     0. 
   9   1   1      2.40    3.50  0. 1.0000     0. 
   9  -1   1      3.80    3.10  0. 1.0000     0. 
   9   1  -1      6.30    4.10  0. 1.0000     0. 
   9  -1  -1      4.40    3.50  0. 1.0000     0. 
   9  -1  -2   1226.38   85.79  0. 1.0000     0. 
   9   1   2   1428.96   97.19  0. 1.0000     0. 
   9   1  -2   1432.06  100.19  0. 1.0000     0. 
  -9   1  -2   1443.06   85.89  0. 1.0000     0. 
  -9  -1  -2   1391.36   91.19  0. 1.0000     0. 
   1  -9  -2   1264.77   98.99  0. 1.0000     0. 
  -1  -9  -2   1075.29   85.59  0. 1.0000     0. 
  -1  -9   2   1257.27  100.49  0. 1.0000     0. 
   9  -1   2   1370.66   94.99  0. 1.0000     0. 
   1  -9   2   1291.57  101.69  0. 1.0000     0. 
   9   1   2   1241.88   79.59  0. 1.0000     0. 
   9  -1   2   1013.50   74.89  0. 1.0000     0. 
   9   1  -2   1346.37   86.69  0. 1.0000     0. 
   9  -1  -2   1273.37   91.29  0. 1.0000     0. 
   1   9  -3      6.60    5.90  0. 1.0000     0. 
  -1   9  -3      9.10    7.00  0. 1.0000     0. 
   1  -9  -3      2.60    1.90  0. 1.0000     0. 
  -9   1  -3     10.30    6.10  0. 1.0000     0. 
  -9  -1  -3      1.40    2.90  0. 1.0000     0. 
  -1  -9  -3      1.80    4.10  0. 1.0000     0. 
  -1  -9   3      6.40    9.60  0. 1.0000     0. 
   1  -9   3      4.40    2.80  0. 1.0000     0. 
   9   1   3      0.90    4.40  0. 1.0000     0. 
   9  -1   3      3.60    4.70  0. 1.0000     0. 
   9   1  -3      7.00    6.30  0. 1.0000     0. 
   9  -1  -3     -0.80    4.70  0. 1.0000     0. 
   1   9  -4    761.52   63.29  0. 1.0000     0. 
  -1   9  -4    756.82   60.39  0. 1.0000     0. 
  -9  -1  -4    908.01   73.69  0. 1.0000     0. 
   1  -9  -4    753.02   66.79  0. 1.0000     0. 
  -1  -9  -4    770.82   64.89  0. 1.0000     0. 
  -1  -9   4    666.23   54.69  0. 1.0000     0. 
   1  -9   4    676.83   60.49  0. 1.0000     0. 
   9   1  -4    783.72   59.29  0. 1.0000     0. 
   9  -1  -4    773.52   68.29  0. 1.0000     0. 
   1   9  -5     -1.80    2.90  0. 1.0000     0. 
  -1   9  -5     -0.60    3.60  0. 1.0000     0. 
  -9  -1  -5     -6.30    4.50  0. 1.0000     0. 
   1  -9  -5      1.30    1.80  0. 1.0000     0. 
  -1  -9   5     -2.10    2.20  0. 1.0000     0. 
   1  -9   5      2.60    4.50  0. 1.0000     0. 
   9   1  -5      1.00    1.00  0. 1.0000     0. 
   9  -1  -5      6.20    5.10  0. 1.0000     0. 
   2  -9   0     39.30   14.50  0. 1.0000     0. 
   9  -2   0     21.40   12.00  0. 1.0000     0. 
  -2  -9   0     12.80    8.40  0. 1.0000     0. 
  -2  -9   0     18.70   11.40  0. 1.0000     0. 
   9   2   0     12.40    8.80  0. 1.0000     0. 
   2  -9   0     42.20   16.90  0. 1.0000     0. 
   9   2   0     23.00   10.90  0. 1.0000     0. 
   9  -2   0     23.60   11.90  0. 1.0000     0. 
   9  -2   1      4.00    5.10  0. 1.0000     0. 
   9  -2  -1     -8.20    7.20  0. 1.0000     0. 
   2  -9  -1      6.50    7.40  0. 1.0000     0. 
  -2  -9  -1      5.50    5.30  0. 1.0000     0. 
  -2  -9  -1     14.00    9.30  0. 1.0000     0. 
   9   2   1      1.80    4.70  0. 1.0000     0. 
   9   2  -1      1.20    7.10  0. 1.0000     0. 
  -2  -9   1      0.90    9.20  0. 1.0000     0. 
   2  -9   1      9.00   10.10  0. 1.0000     0. 
   9   2   1     -1.60    0.90  0. 1.0000     0. 
   9  -2   1      8.20    7.80  0. 1.0000     0. 
   9   2  -1      1.80    1.00  0. 1.0000     0. 
   9  -2  -1      0.40    3.90  0. 1.0000     0. 
   2   9  -2     23.50   10.70  0. 1.0000     0. 
   9  -2   2      5.70    5.70  0. 1.0000     0. 
   9  -2  -2     17.90   10.00  0. 1.0000     0. 
   2  -9  -2     19.50   12.20  0. 1.0000     0. 
  -2  -9  -2     16.70    9.30  0. 1.0000     0. 
  -9  -2  -2     10.60    7.90  0. 1.0000     0. 
  -2  -9  -2     29.20   11.90  0. 1.0000     0. 
   9   2   2     26.30   12.70  0. 1.0000     0. 
   9   2  -2     15.00    8.10  0. 1.0000     0. 
  -2  -9   2     16.80   11.20  0. 1.0000     0. 
   2  -9   2     20.80   13.70  0. 1.0000     0. 
   9   2   2     15.50    8.40  0. 1.0000     0. 
   9  -2   2     15.20    8.70  0. 1.0000     0. 
   9   2  -2      8.30    5.70  0. 1.0000     0. 
   9  -2  -2     29.80   14.40  0. 1.0000     0. 
   2   9  -3      4.50    6.50  0. 1.0000     0. 
   2  -9  -3      0.30    4.30  0. 1.0000     0. 
  -2  -9  -3     -0.70    2.00  0. 1.0000     0. 
  -9  -2  -3      8.10    9.90  0. 1.0000     0. 
  -2  -9   3     15.60   10.70  0. 1.0000     0. 
   2  -9   3     -8.80    7.50  0. 1.0000     0. 
   9   2   3      3.50    4.00  0. 1.0000     0. 
   9  -2   3      4.60    6.70  0. 1.0000     0. 
   9   2  -3     11.70    7.20  0. 1.0000     0. 
   9  -2  -3      1.00    6.10  0. 1.0000     0. 
   2   9  -4     13.40    7.90  0. 1.0000     0. 
  -2   9  -4      5.50    5.10  0. 1.0000     0. 
   2  -9  -4      6.80    6.10  0. 1.0000     0. 
  -9  -2  -4     13.70    8.00  0. 1.0000     0. 
  -2  -9  -4     12.60    8.30  0. 1.0000     0. 
  -2  -9   4     10.50    7.70  0. 1.0000     0. 
   2  -9   4      7.30    7.90  0. 1.0000     0. 
   9   2  -4      8.30    5.70  0. 1.0000     0. 
   9  -2  -4      5.50    6.50  0. 1.0000     0. 
   2   9  -5      2.40    3.00  0. 1.0000     0. 
  -2   9  -5      2.00    3.40  0. 1.0000     0. 
  -9  -2  -5      0.40    3.00  0. 1.0000     0. 
   2  -9  -5      2.10    2.80  0. 1.0000     0. 
  -2  -9  -5      1.70    2.20  0. 1.0000     0. 
   2  -9   5     -2.90    2.80  0. 1.0000     0. 
   9  -2   5     -0.50    2.90  0. 1.0000     0. 
   9   2  -5      1.70    1.70  0. 1.0000     0. 
   9  -2  -5     -0.20    2.80  0. 1.0000     0. 
   9  -3   0    789.52   71.29  0. 1.0000     0. 
   9   3   0    873.91   72.49  0. 1.0000     0. 
   3  -9   0   1133.69   78.39  0. 1.0000     0. 
  -3  -9   0    953.90   75.39  0. 1.0000     0. 
   3  -9   0   1173.88   88.29  0. 1.0000     0. 
   9   3   0   1114.49   71.39  0. 1.0000     0. 
   9  -3   0   1046.00   87.19  0. 1.0000     0. 
   9  -3   1     41.10   15.70  0. 1.0000     0. 
   9  -3  -1     32.50   13.60  0. 1.0000     0. 
   3  -9  -1     39.60   15.00  0. 1.0000     0. 
  -3  -9  -1     55.09   17.70  0. 1.0000     0. 
  -3  -9   1     53.39   18.80  0. 1.0000     0. 
   9   3   1     50.59   17.10  0. 1.0000     0. 
   9   3  -1     29.20   12.90  0. 1.0000     0. 
   3  -9   1     55.49   20.70  0. 1.0000     0. 
   9   3   1     53.99   15.60  0. 1.0000     0. 
   9  -3   1     42.70   18.50  0. 1.0000     0. 
   9   3  -1     54.69   15.20  0. 1.0000     0. 
   9  -3  -1     45.70   18.10  0. 1.0000     0. 
   9   3  -2    890.21   71.99  0. 1.0000     0. 
   3   9  -2    841.12   59.59  0. 1.0000     0. 
   9  -3   2    825.82   66.79  0. 1.0000     0. 
   9  -3  -2    688.83   58.19  0. 1.0000     0. 
  -9  -3  -2    796.02   65.19  0. 1.0000     0. 
   9   3   2    864.81   67.89  0. 1.0000     0. 
   9   3  -2    809.72   66.59  0. 1.0000     0. 
   3  -9  -2    856.51   75.89  0. 1.0000     0. 
  -3  -9   2    818.02   71.99  0. 1.0000     0. 
   3  -9   2    907.21   82.99  0. 1.0000     0. 
   9   3   2    975.90   70.29  0. 1.0000     0. 
   9  -3   2    829.62   81.39  0. 1.0000     0. 
   9   3  -2    895.21   59.59  0. 1.0000     0. 
   9  -3  -2    780.22   73.09  0. 1.0000     0. 
   9   3  -3     43.50   14.80  0. 1.0000     0. 
   3   9  -3     24.70   10.80  0. 1.0000     0. 
   3  -9  -3     26.40   13.50  0. 1.0000     0. 
  -9  -3  -3     20.30   10.50  0. 1.0000     0. 
  -3  -9  -3     22.50   10.40  0. 1.0000     0. 
  -3  -9   3     18.40    9.20  0. 1.0000     0. 
   3  -9   3     41.00   16.40  0. 1.0000     0. 
   9  -3   3     21.90   11.60  0. 1.0000     0. 
   9   3  -3     20.10    9.10  0. 1.0000     0. 
   9  -3  -3     17.60    9.40  0. 1.0000     0. 
   3   9  -4    543.35   50.29  0. 1.0000     0. 
  -3   9  -4    505.35   41.80  0. 1.0000     0. 
  -9  -3  -4    551.34   51.89  0. 1.0000     0. 
   3  -9  -4    536.35   54.79  0. 1.0000     0. 
  -3  -9  -4    513.55   47.10  0. 1.0000     0. 
  -3  -9   4    540.55   41.40  0. 1.0000     0. 
   3  -9   4    519.35   54.89  0. 1.0000     0. 
   9  -3  -4    567.74   57.79  0. 1.0000     0. 
   3   9  -5     11.80    6.60  0. 1.0000     0. 
  -3   9  -5     11.20    5.20  0. 1.0000     0. 
  -9  -3  -5     15.10    6.10  0. 1.0000     0. 
   3  -9  -5     14.10    7.00  0. 1.0000     0. 
  -3  -9  -5     28.80    7.80  0. 1.0000     0. 
   3  -9   5     12.60    7.20  0. 1.0000     0. 
   9  -3   5     -2.00    2.70  0. 1.0000     0. 
   9  -3  -5     10.80    5.80  0. 1.0000     0. 
   9  -4   0     -6.50    6.00  0. 1.0000     0. 
   4  -9   0      1.90    2.80  0. 1.0000     0. 
  -4  -9   0      1.30    2.40  0. 1.0000     0. 
   9   4   0      0.80    2.10  0. 1.0000     0. 
   9  -4   0     -1.30    5.60  0. 1.0000     0. 
   4   9  -1    -10.90    6.60  0. 1.0000     0. 
   9  -4   1     -1.30    7.50  0. 1.0000     0. 
   9  -4  -1      0.30    4.10  0. 1.0000     0. 
   4  -9  -1     -0.30    4.10  0. 1.0000     0. 
  -9  -4  -1      0.50    2.20  0. 1.0000     0. 
  -4  -9  -1     -0.40    4.10  0. 1.0000     0. 
  -4  -9   1      0.10    0.50  0. 1.0000     0. 
   4  -9   1      5.00    7.90  0. 1.0000     0. 
   9   4   1      3.50    1.70  0. 1.0000     0. 
   9   4  -1     -2.80    3.80  0. 1.0000     0. 
   9   4   1      2.60    4.30  0. 1.0000     0. 
   9  -4   1     -5.00    6.80  0. 1.0000     0. 
   9  -4  -1     -1.90    7.80  0. 1.0000     0. 
   9   4  -2     -1.10    4.00  0. 1.0000     0. 
   4   9  -2      4.70    4.60  0. 1.0000     0. 
   9  -4  -2      7.70    4.80  0. 1.0000     0. 
   4  -9  -2      2.50    4.50  0. 1.0000     0. 
  -9  -4  -2      3.90    4.20  0. 1.0000     0. 
  -4  -9   2      2.80    3.70  0. 1.0000     0. 
   9   4   2     -1.90    2.90  0. 1.0000     0. 
   9   4  -2      2.30    3.40  0. 1.0000     0. 
   4  -9   2      0.90    2.40  0. 1.0000     0. 
   9   4   2      2.10    3.00  0. 1.0000     0. 
   9  -4   2     -6.10    6.30  0. 1.0000     0. 
   9  -4  -2     -3.40    4.60  0. 1.0000     0. 
   9   4  -3     -5.90    5.30  0. 1.0000     0. 
   4   9  -3      2.80    2.30  0. 1.0000     0. 
   4  -9  -3     -3.50    6.80  0. 1.0000     0. 
  -9  -4  -3     -0.30    2.80  0. 1.0000     0. 
  -4  -9  -3      0.50    0.80  0. 1.0000     0. 
  -4  -9   3      2.00    4.30  0. 1.0000     0. 
   4  -9   3     -1.90    3.60  0. 1.0000     0. 
   9  -4  -3    -13.70    9.00  0. 1.0000     0. 
   9   4  -4      4.30    3.70  0. 1.0000     0. 
   4   9  -4      6.40    5.00  0. 1.0000     0. 
   4  -9  -4      6.20    5.30  0. 1.0000     0. 
  -9  -4  -4      0.20    0.80  0. 1.0000     0. 
  -4  -9  -4      0.00    2.70  0. 1.0000     0. 
  -4  -9   4     -6.60    4.00  0. 1.0000     0. 
   4  -9   4      1.20    2.60  0. 1.0000     0. 
   9  -4   4      1.70    0.90  0. 1.0000     0. 
   9  -4  -4      0.20    2.70  0. 1.0000     0. 
   4   9  -5      0.80    1.10  0. 1.0000     0. 
  -9   4  -5      5.00    4.20  0. 1.0000     0. 
  -9  -4  -5     -0.80    2.00  0. 1.0000     0. 
   4  -9  -5      4.40    3.40  0. 1.0000     0. 
   4  -9   5      0.40    1.90  0. 1.0000     0. 
   9  -4   5     -4.80    3.90  0. 1.0000     0. 
   9  -4  -5     -2.10    3.40  0. 1.0000     0. 
   9   5   0   1278.67   83.89  0. 1.0000     0. 
  -5  -9   0   1238.18   80.09  0. 1.0000     0. 
   9  -5   0   1420.56   94.39  0. 1.0000     0. 
   5   9  -1     -1.20    2.30  0. 1.0000     0. 
   5  -9  -1      0.20    2.40  0. 1.0000     0. 
  -9  -5  -1      0.30    2.10  0. 1.0000     0. 
  -5  -9   1     -0.40    1.30  0. 1.0000     0. 
   5  -9   1     -4.80    5.60  0. 1.0000     0. 
   9   5   1     -5.40    5.00  0. 1.0000     0. 
   9   5  -1      1.60    2.80  0. 1.0000     0. 
   9  -5   1     -3.50    4.40  0. 1.0000     0. 
   9  -5  -1      0.70    4.70  0. 1.0000     0. 
   9   5  -2   1170.48   76.39  0. 1.0000     0. 
   5   9  -2   1099.49   65.89  0. 1.0000     0. 
  -9  -5  -2   1176.78   74.49  0. 1.0000     0. 
   9   5   2   1166.78   69.89  0. 1.0000     0. 
   9   5  -2   1124.79   68.39  0. 1.0000     0. 
   5  -9  -2   1260.77   88.29  0. 1.0000     0. 
  -5  -9   2   1143.59   74.29  0. 1.0000     0. 
   5  -9   2   1366.56   96.09  0. 1.0000     0. 
   9  -5   2   1229.98   79.29  0. 1.0000     0. 
   9  -5  -2   1249.07   87.49  0. 1.0000     0. 
   9   5  -3     -0.60    4.50  0. 1.0000     0. 
   5   9  -3     -1.40    4.50  0. 1.0000     0. 
   5  -9  -3      3.10    3.50  0. 1.0000     0. 
  -9  -5  -3     -7.30    5.60  0. 1.0000     0. 
  -5  -9  -3      0.10    1.90  0. 1.0000     0. 
  -5  -9   3     -7.00    4.70  0. 1.0000     0. 
   5  -9   3      3.20    3.40  0. 1.0000     0. 
   9  -5   3     -7.20    5.90  0. 1.0000     0. 
   9   5  -4    867.51   49.20  0. 1.0000     0. 
   5   9  -4    842.52   53.79  0. 1.0000     0. 
  -9  -5  -4    800.72   52.19  0. 1.0000     0. 
   5  -9  -4    862.01   62.49  0. 1.0000     0. 
  -5  -9  -4    831.62   48.90  0. 1.0000     0. 
   5  -9   4    714.03   55.99  0. 1.0000     0. 
   9  -5   4    775.32   56.89  0. 1.0000     0. 
   5   9  -5      0.20    1.20  0. 1.0000     0. 
   9  -5   5     -3.00    3.60  0. 1.0000     0. 
  -9  -6   0     19.20    8.30  0. 1.0000     0. 
   9   6   0     17.00   10.00  0. 1.0000     0. 
   6   9  -1      2.40    3.20  0. 1.0000     0. 
   6  -9  -1     -3.40    7.00  0. 1.0000     0. 
  -9  -6  -1     -4.80    4.30  0. 1.0000     0. 
  -6  -9   1      3.70    4.00  0. 1.0000     0. 
   9   6   1     -1.60    5.00  0. 1.0000     0. 
   9   6  -1      1.20    1.10  0. 1.0000     0. 
   9   6  -2     23.00    9.40  0. 1.0000     0. 
   6   9  -2     18.60    7.70  0. 1.0000     0. 
   6  -9  -2     19.60   11.20  0. 1.0000     0. 
  -9  -6  -2     16.00    8.10  0. 1.0000     0. 
  -6  -9   2     27.10   10.60  0. 1.0000     0. 
   9   6   2     22.20    9.00  0. 1.0000     0. 
   9   6  -2     15.00    8.20  0. 1.0000     0. 
   6  -9   2     29.90   12.50  0. 1.0000     0. 
   9  -6   2      6.30    5.30  0. 1.0000     0. 
   6   9   2     14.50    6.50  0. 1.0000     0. 
   6   9  -2     18.30    8.20  0. 1.0000     0. 
   9   6  -3      2.40    4.10  0. 1.0000     0. 
   6   9  -3     -2.10    2.70  0. 1.0000     0. 
   6  -9  -3      1.00    3.10  0. 1.0000     0. 
  -9  -6  -3     -2.40    2.90  0. 1.0000     0. 
  -6  -9  -3      3.30    3.20  0. 1.0000     0. 
   6  -9   3      3.10    4.20  0. 1.0000     0. 
   9  -6   3     -0.90    1.90  0. 1.0000     0. 
   6   9  -4      6.80    3.80  0. 1.0000     0. 
  -9  -6  -4     11.40    4.60  0. 1.0000     0. 
  -6  -9  -4     19.10    6.20  0. 1.0000     0. 
   6  -9   4     17.50    7.30  0. 1.0000     0. 
   9  -6   4     12.90    6.60  0. 1.0000     0. 
  -9  -7   0    593.74   43.00  0. 1.0000     0. 
   9   7   0    519.85   44.70  0. 1.0000     0. 
   7   9   0    500.35   44.30  0. 1.0000     0. 
  -9  -7  -1     18.10    7.10  0. 1.0000     0. 
  -9  -7   1     14.70    6.70  0. 1.0000     0. 
   9   7   1      6.20    4.90  0. 1.0000     0. 
   9   7  -1      6.30    4.00  0. 1.0000     0. 
   7   9   1     10.30    6.00  0. 1.0000     0. 
   7   9  -1     12.90    6.60  0. 1.0000     0. 
   7   9  -2    500.15   39.10  0. 1.0000     0. 
  -9  -7  -2    582.94   41.30  0. 1.0000     0. 
   9   7   2    517.35   37.30  0. 1.0000     0. 
   9   7  -2    516.25   37.60  0. 1.0000     0. 
   7   9   2    587.64   41.10  0. 1.0000     0. 
   7   9  -2    501.25   36.50  0. 1.0000     0. 
   7  -9  -2    528.85   48.50  0. 1.0000     0. 
   7  -9   2    683.93   52.89  0. 1.0000     0. 
   7   9  -3      9.00    4.90  0. 1.0000     0. 
  -9  -7  -3     22.50    6.80  0. 1.0000     0. 
  -7  -9  -3     10.70    5.70  0. 1.0000     0. 
   7  -9   3      8.70    6.00  0. 1.0000     0. 
   9  -7   3      8.50    4.10  0. 1.0000     0. 
   9   8   0      5.40    3.40  0. 1.0000     0. 
   8   9   0      2.90    2.90  0. 1.0000     0. 
   9   8   1      8.40    5.20  0. 1.0000     0. 
   9   8  -1      8.10    4.80  0. 1.0000     0. 
   8   9   1      6.80    4.70  0. 1.0000     0. 
   8   9  -1      5.50    3.60  0. 1.0000     0. 
   9   8   2     -0.40    0.80  0. 1.0000     0. 
   9   8  -2      2.40    1.40  0. 1.0000     0. 
   8   9  -2     -2.10    1.80  0. 1.0000     0. 
   9   9   0    479.45   29.50  0. 1.0000     0. 
   9   9   1     -0.60    1.10  0. 1.0000     0. 
   9   9  -1     -0.60    0.90  0. 1.0000     0. 
  10   0   0   1835.32  123.49  0. 1.0000     0. 
   0 -10   0   2019.20  109.09  0. 1.0000     0. 
   0 -10   0   2013.40  111.09  0. 1.0000     0. 
  10   0   0   1875.31  102.39  0. 1.0000     0. 
   0 -10  -1      3.00    4.40  0. 1.0000     0. 
  10   0   1     -9.00    8.00  0. 1.0000     0. 
  10   0  -1     13.10   10.00  0. 1.0000     0. 
 -10   0  -1      3.80    4.20  0. 1.0000     0. 
   0 -10  -1     11.50    7.60  0. 1.0000     0. 
   0 -10   1      0.30    1.30  0. 1.0000     0. 
  10   0   1      2.30    3.40  0. 1.0000     0. 
  10   0  -1      2.40    6.70  0. 1.0000     0. 
  10   0   2   1677.73  103.19  0. 1.0000     0. 
  10   0  -2   1580.74  102.29  0. 1.0000     0. 
 -10   0  -2   1745.93   90.59  0. 1.0000     0. 
   0 -10  -2   1448.85   97.99  0. 1.0000     0. 
   0 -10   2   1422.86  100.99  0. 1.0000     0. 
  10   0   2   1331.77   79.69  0. 1.0000     0. 
  10   0  -2   1410.06   83.79  0. 1.0000     0. 
 -10   0  -3     -1.80    4.40  0. 1.0000     0. 
   0 -10  -3      2.50    4.80  0. 1.0000     0. 
   0 -10   3     -3.10    1.10  0. 1.0000     0. 
  10   0   3      5.10    5.40  0. 1.0000     0. 
  10   0  -3      1.50    4.00  0. 1.0000     0. 
   0  10  -4   1117.39   56.69  0. 1.0000     0. 
 -10   0  -4   1220.28   59.59  0. 1.0000     0. 
   0 -10  -4    885.81   59.09  0. 1.0000     0. 
   0 -10   4    865.61   57.19  0. 1.0000     0. 
  10   0  -4    947.51   57.49  0. 1.0000     0. 
  10   0  -5      0.20    0.50  0. 1.0000     0. 
   1 -10   0      1.50    2.10  0. 1.0000     0. 
  -1 -10   0    -13.30    8.40  0. 1.0000     0. 
  10  -1   0      2.10    2.40  0. 1.0000     0. 
  10   1   0     -2.80    2.90  0. 1.0000     0. 
  -1 -10   0     -3.50    4.50  0. 1.0000     0. 
   1 -10   0      0.60    6.60  0. 1.0000     0. 
  10   1   0     -2.30    6.40  0. 1.0000     0. 
  10  -1   0      2.40    4.00  0. 1.0000     0. 
   1 -10  -1      0.70    3.00  0. 1.0000     0. 
  10  -1   1      4.60    6.10  0. 1.0000     0. 
  10  -1  -1     14.40   10.20  0. 1.0000     0. 
  -1 -10  -1     11.10    8.00  0. 1.0000     0. 
  10   1   1     11.10    9.50  0. 1.0000     0. 
  10   1  -1      4.10    4.80  0. 1.0000     0. 
 -10  -1  -1      5.30    4.70  0. 1.0000     0. 
  -1 -10  -1     12.00    7.30  0. 1.0000     0. 
  -1 -10   1      3.40    1.10  0. 1.0000     0. 
   1 -10   1     16.80   12.80  0. 1.0000     0. 
  10   1   1     15.10    9.30  0. 1.0000     0. 
  10  -1   1     13.90   10.40  0. 1.0000     0. 
  10   1  -1      1.60    1.50  0. 1.0000     0. 
  10  -1  -1     14.80    8.90  0. 1.0000     0. 
  10  -1   2      1.90    3.30  0. 1.0000     0. 
  10  -1  -2      0.70    3.80  0. 1.0000     0. 
   1 -10  -2      3.30    3.30  0. 1.0000     0. 
  -1 -10  -2     -1.40    4.80  0. 1.0000     0. 
  10   1   2      0.50    2.90  0. 1.0000     0. 
  10   1  -2     -4.10    4.00  0. 1.0000     0. 
 -10  -1  -2      0.30    3.00  0. 1.0000     0. 
  -1 -10   2      3.90    5.10  0. 1.0000     0. 
   1 -10   2      3.80    4.90  0. 1.0000     0. 
  10   1   2      0.50    1.90  0. 1.0000     0. 
  10  -1   2     -0.60    4.60  0. 1.0000     0. 
  10   1  -2      5.80    4.60  0. 1.0000     0. 
  10  -1  -2      0.20    2.80  0. 1.0000     0. 
   1 -10  -3      0.70    2.30  0. 1.0000     0. 
 -10  -1  -3      8.80    6.80  0. 1.0000     0. 
  -1 -10  -3      7.70    6.60  0. 1.0000     0. 
  -1 -10   3     12.30    7.70  0. 1.0000     0. 
   1 -10   3      6.50    7.50  0. 1.0000     0. 
  10   1   3      2.30    1.40  0. 1.0000     0. 
  10  -1   3      5.10    4.40  0. 1.0000     0. 
  10   1  -3      8.40    6.10  0. 1.0000     0. 
  10  -1  -3      8.60    6.50  0. 1.0000     0. 
   1  10  -4      1.20    3.60  0. 1.0000     0. 
 -10  -1  -4      0.80    0.80  0. 1.0000     0. 
   1 -10  -4      0.50    2.30  0. 1.0000     0. 
  -1 -10  -4      2.20    2.80  0. 1.0000     0. 
  -1 -10   4     -4.30    3.60  0. 1.0000     0. 
   1 -10   4     -1.60    3.50  0. 1.0000     0. 
  10   1  -4      4.00    4.10  0. 1.0000     0. 
  10  -1  -4     -2.10    3.40  0. 1.0000     0. 
  10  -1   5      7.40    4.80  0. 1.0000     0. 
  10  -1  -5      0.00    1.40  0. 1.0000     0. 
  10  -2   0    937.41   84.29  0. 1.0000     0. 
  10   2   0    957.10   78.29  0. 1.0000     0. 
   2 -10   0   1069.39   76.39  0. 1.0000     0. 
  -2 -10   0   1014.00   70.99  0. 1.0000     0. 
  -2 -10   0    973.70   76.09  0. 1.0000     0. 
   2 -10   0   1141.69   81.69  0. 1.0000     0. 
  10   2   0   1085.79   74.59  0. 1.0000     0. 
  10  -2   0    966.30   75.69  0. 1.0000     0. 
  10  -2   1      4.10    5.20  0. 1.0000     0. 
  10  -2  -1      4.00    5.10  0. 1.0000     0. 
   2 -10  -1      5.90    8.40  0. 1.0000     0. 
  -2 -10  -1      6.90    6.50  0. 1.0000     0. 
 -10  -2  -1      4.80    5.60  0. 1.0000     0. 
  10   2   1      5.90    3.60  0. 1.0000     0. 
  10   2  -1      6.80    6.50  0. 1.0000     0. 
  -2 -10  -1     10.50    8.00  0. 1.0000     0. 
  -2 -10   1      7.20    7.50  0. 1.0000     0. 
   2 -10   1      7.20    4.50  0. 1.0000     0. 
  10   2   1      3.70    5.10  0. 1.0000     0. 
  10  -2   1      0.90    3.10  0. 1.0000     0. 
  10   2  -1      5.20    4.80  0. 1.0000     0. 
  10  -2  -1      5.00    6.70  0. 1.0000     0. 
  10  -2   2    794.12   67.29  0. 1.0000     0. 
  10  -2  -2    714.73   61.59  0. 1.0000     0. 
  10   2   2    978.70   72.89  0. 1.0000     0. 
  10   2  -2    890.61   71.09  0. 1.0000     0. 
 -10  -2  -2    805.62   60.49  0. 1.0000     0. 
   2 -10  -2    809.32   75.09  0. 1.0000     0. 
  -2 -10  -2    665.73   58.49  0. 1.0000     0. 
  -2 -10   2    809.92   70.69  0. 1.0000     0. 
   2 -10   2    816.52   76.89  0. 1.0000     0. 
  10   2   2    925.51   66.79  0. 1.0000     0. 
  10  -2   2    885.61   71.79  0. 1.0000     0. 
  10   2  -2    821.62   58.09  0. 1.0000     0. 
  10  -2  -2    738.03   64.09  0. 1.0000     0. 
   2  10  -3      4.80    3.50  0. 1.0000     0. 
   2 -10  -3      2.80    5.80  0. 1.0000     0. 
 -10  -2  -3      4.40    4.80  0. 1.0000     0. 
  -2 -10  -3      1.40    2.10  0. 1.0000     0. 
  -2 -10   3     -0.80    1.80  0. 1.0000     0. 
   2 -10   3      0.80    4.00  0. 1.0000     0. 
  10  -2   3      6.10    6.50  0. 1.0000     0. 
  10   2  -3     10.40    6.80  0. 1.0000     0. 
  10  -2  -3      3.00    5.20  0. 1.0000     0. 
   2  10  -4    556.14   39.10  0. 1.0000     0. 
 -10  -2  -4    576.14   43.30  0. 1.0000     0. 
   2 -10  -4    501.05   46.30  0. 1.0000     0. 
  -2 -10  -4    521.35   40.70  0. 1.0000     0. 
  -2 -10   4    505.45   36.30  0. 1.0000     0. 
   2 -10   4    516.55   49.00  0. 1.0000     0. 
  10   2  -4    669.43   38.30  0. 1.0000     0. 
  10  -2  -4    531.45   45.80  0. 1.0000     0. 
  10  -2   5      1.10    1.30  0. 1.0000     0. 
  10  -2  -5      0.50    1.60  0. 1.0000     0. 
  -3 -10   0      1.70    2.80  0. 1.0000     0. 
  -3 -10   0     -6.00    5.60  0. 1.0000     0. 
  10   3   0      1.50    2.10  0. 1.0000     0. 
  10   3   0     -0.30    0.70  0. 1.0000     0. 
  10  -3   0     -1.20    2.70  0. 1.0000     0. 
  10  -3   1      7.80    6.60  0. 1.0000     0. 
  10  -3  -1     12.60    7.30  0. 1.0000     0. 
   3 -10  -1     20.60   10.60  0. 1.0000     0. 
  -3 -10  -1     10.90    7.20  0. 1.0000     0. 
 -10  -3  -1     14.40    8.20  0. 1.0000     0. 
  -3 -10  -1     14.70    9.50  0. 1.0000     0. 
  10   3   1     19.40   10.50  0. 1.0000     0. 
  -3 -10   1     13.90    8.80  0. 1.0000     0. 
  10   3  -1     20.20   10.40  0. 1.0000     0. 
   3 -10   1     14.80    4.60  0. 1.0000     0. 
  10   3   1     24.40    9.50  0. 1.0000     0. 
  10  -3   1     19.20   11.60  0. 1.0000     0. 
  10   3  -1     13.10    6.80  0. 1.0000     0. 
  10  -3  -1     15.90    9.00  0. 1.0000     0. 
  10  -3   2      0.10    2.50  0. 1.0000     0. 
  10  -3  -2     -0.90    3.70  0. 1.0000     0. 
   3 -10  -2     -1.70    0.90  0. 1.0000     0. 
  -3 -10  -2     -3.30    3.80  0. 1.0000     0. 
 -10  -3  -2     -2.70    3.80  0. 1.0000     0. 
  10   3   2      4.30    5.50  0. 1.0000     0. 
  10   3  -2      0.20    0.50  0. 1.0000     0. 
  -3 -10   2      0.30    4.00  0. 1.0000     0. 
   3 -10   2      3.00    4.50  0. 1.0000     0. 
  10   3   2     -7.90    5.60  0. 1.0000     0. 
  10  -3   2      6.20    8.60  0. 1.0000     0. 
  10   3  -2      3.10    3.80  0. 1.0000     0. 
  10  -3  -2     -2.20    2.90  0. 1.0000     0. 
   3  10  -3     14.10    6.50  0. 1.0000     0. 
   3 -10  -3     15.70    9.90  0. 1.0000     0. 
 -10  -3  -3     16.10    8.10  0. 1.0000     0. 
  -3 -10  -3      9.60    5.90  0. 1.0000     0. 
  -3 -10   3      7.00    2.80  0. 1.0000     0. 
   3 -10   3      9.10    6.20  0. 1.0000     0. 
  10  -3  -3     11.00    8.10  0. 1.0000     0. 
   3  10  -4     -2.30    2.30  0. 1.0000     0. 
   3 -10  -4      0.40    2.30  0. 1.0000     0. 
 -10  -3  -4      1.20    3.10  0. 1.0000     0. 
  -3 -10  -4     -5.60    3.80  0. 1.0000     0. 
  -3 -10   4     -0.30    1.00  0. 1.0000     0. 
   3 -10   4     -1.90    1.30  0. 1.0000     0. 
  10  -3   4      0.10    1.90  0. 1.0000     0. 
  10  -3  -4     -1.30    1.80  0. 1.0000     0. 
  10  -4   0    625.64   60.89  0. 1.0000     0. 
  10   4   0    672.53   57.79  0. 1.0000     0. 
  -4 -10   0    640.84   50.09  0. 1.0000     0. 
  -4 -10   0    715.43   59.99  0. 1.0000     0. 
  10  -4   0    826.32   71.09  0. 1.0000     0. 
  10  -4   1      2.30    3.50  0. 1.0000     0. 
  10  -4  -1     -1.10    4.50  0. 1.0000     0. 
   4 -10  -1     -0.60    3.90  0. 1.0000     0. 
  -4 -10  -1     -0.80    2.70  0. 1.0000     0. 
 -10  -4  -1      1.10    3.50  0. 1.0000     0. 
  -4 -10  -1      0.20    2.60  0. 1.0000     0. 
  -4 -10   1     -2.00    6.10  0. 1.0000     0. 
  10   4   1     -1.20    2.70  0. 1.0000     0. 
  10   4  -1      0.10    3.00  0. 1.0000     0. 
   4 -10   1    -10.00    7.90  0. 1.0000     0. 
  10   4   1      4.50    3.50  0. 1.0000     0. 
  10  -4   1    -12.90    8.70  0. 1.0000     0. 
  10  -4  -1      0.20    2.60  0. 1.0000     0. 
   4  10  -2    722.63   45.90  0. 1.0000     0. 
  10   4   2    694.93   52.89  0. 1.0000     0. 
  10   4  -2    667.33   51.49  0. 1.0000     0. 
 -10  -4  -2    572.34   47.70  0. 1.0000     0. 
   4 -10  -2    723.53   66.99  0. 1.0000     0. 
  -4 -10  -2    557.74   49.10  0. 1.0000     0. 
  -4 -10   2    649.34   54.39  0. 1.0000     0. 
   4 -10   2    710.23   68.39  0. 1.0000     0. 
  10  -4   2    727.23   59.69  0. 1.0000     0. 
  10  -4   2    701.33   62.79  0. 1.0000     0. 
  10  -4  -2    647.14   56.89  0. 1.0000     0. 
   4  10  -3     -1.40    1.90  0. 1.0000     0. 
   4 -10  -3      0.40    4.70  0. 1.0000     0. 
 -10  -4  -3      0.80    1.80  0. 1.0000     0. 
  -4 -10  -3      1.00    1.60  0. 1.0000     0. 
  -4 -10   3      2.90    2.90  0. 1.0000     0. 
   4 -10   3      1.10    2.60  0. 1.0000     0. 
  10  -4   3      4.20    5.50  0. 1.0000     0. 
  10  -4  -3     -0.60    1.60  0. 1.0000     0. 
   4  10  -4    494.85   32.10  0. 1.0000     0. 
 -10  -4  -4    424.46   31.90  0. 1.0000     0. 
   4 -10  -4    433.06   40.10  0. 1.0000     0. 
  -4 -10  -4    467.55   32.20  0. 1.0000     0. 
   4 -10   4    409.56   38.80  0. 1.0000     0. 
  10  -4   4    456.15   39.10  0. 1.0000     0. 
  10  -4  -4    532.35   40.10  0. 1.0000     0. 
  -5 -10   0      2.10    2.80  0. 1.0000     0. 
 -10  -5   0     -1.30    3.10  0. 1.0000     0. 
  10   5   0     -0.70    2.80  0. 1.0000     0. 
  10  -5   0      2.50    2.30  0. 1.0000     0. 
   5 -10  -1      5.10    2.50  0. 1.0000     0. 
 -10  -5  -1      9.80    6.30  0. 1.0000     0. 
  -5 -10   1     10.60    7.50  0. 1.0000     0. 
  10   5   1      8.20    4.70  0. 1.0000     0. 
  10   5  -1      6.30    5.30  0. 1.0000     0. 
  10  -5   1     13.40    7.10  0. 1.0000     0. 
  10  -5  -1      7.30    8.80  0. 1.0000     0. 
   5  10  -2      1.90    2.40  0. 1.0000     0. 
   5 -10  -2      7.40    7.20  0. 1.0000     0. 
 -10  -5  -2      3.00    2.10  0. 1.0000     0. 
  -5 -10  -2      0.00    1.60  0. 1.0000     0. 
  -5 -10   2      2.10    3.80  0. 1.0000     0. 
  10   5   2      4.10    3.30  0. 1.0000     0. 
  10   5  -2      1.80    0.90  0. 1.0000     0. 
   5 -10   2      3.90    4.60  0. 1.0000     0. 
  10  -5  -2     -0.70    1.70  0. 1.0000     0. 
   5  10  -3     12.10    5.20  0. 1.0000     0. 
   5 -10  -3      3.10    0.90  0. 1.0000     0. 
 -10  -5  -3      2.70    3.70  0. 1.0000     0. 
  -5 -10  -3      5.90    4.00  0. 1.0000     0. 
  -5 -10   3      6.20    3.60  0. 1.0000     0. 
   5 -10   3      5.80    4.70  0. 1.0000     0. 
  10  -5   3      0.10    2.80  0. 1.0000     0. 
  10  -5  -3      4.00    4.80  0. 1.0000     0. 
   5 -10  -4      1.60    1.90  0. 1.0000     0. 
 -10  -5  -4     -1.20    1.40  0. 1.0000     0. 
   5 -10   4     -2.50    3.30  0. 1.0000     0. 
  10  -5   4     -1.50    1.90  0. 1.0000     0. 
 -10  -6   0    601.04   43.00  0. 1.0000     0. 
  10   6   0    594.84   45.60  0. 1.0000     0. 
   6 -10  -1      4.80    5.30  0. 1.0000     0. 
 -10  -6  -1      1.40    2.60  0. 1.0000     0. 
  10   6   1      2.50    2.90  0. 1.0000     0. 
  10   6  -1      0.50    2.30  0. 1.0000     0. 
   6  10   1      1.90    3.10  0. 1.0000     0. 
   6  10  -1     -1.10    2.20  0. 1.0000     0. 
   6  10  -2    568.04   33.60  0. 1.0000     0. 
 -10  -6  -2    607.14   41.70  0. 1.0000     0. 
  10   6   2    666.63   40.20  0. 1.0000     0. 
  10   6  -2    610.64   39.20  0. 1.0000     0. 
   6  10   2    664.43   40.60  0. 1.0000     0. 
   6  10  -2    584.24   36.40  0. 1.0000     0. 
   6 -10  -2    642.34   54.29  0. 1.0000     0. 
  -6 -10  -2    589.04   43.40  0. 1.0000     0. 
   6 -10   2    693.83   49.99  0. 1.0000     0. 
   6  10  -3      0.00    1.60  0. 1.0000     0. 
   6 -10  -3      5.40    4.90  0. 1.0000     0. 
 -10  -6  -3      1.20    1.10  0. 1.0000     0. 
  -6 -10  -3      1.90    2.40  0. 1.0000     0. 
   6 -10   3     -5.60    3.90  0. 1.0000     0. 
 -10  -7   0      0.20    1.00  0. 1.0000     0. 
  10   7   0     -1.60    3.10  0. 1.0000     0. 
   7  10   0     -1.30    1.90  0. 1.0000     0. 
 -10  -7  -1      4.40    2.40  0. 1.0000     0. 
  -7 -10  -1      2.50    1.00  0. 1.0000     0. 
 -10  -7   1      6.40    2.70  0. 1.0000     0. 
  10   7   1      6.20    3.60  0. 1.0000     0. 
  10   7  -1      6.10    4.20  0. 1.0000     0. 
   7  10   1      7.80    4.00  0. 1.0000     0. 
   7  10  -1      6.10    4.10  0. 1.0000     0. 
 -10  -7  -2      2.40    2.00  0. 1.0000     0. 
  -7 -10  -2      1.90    2.10  0. 1.0000     0. 
 -10  -7   2     -1.60    0.60  0. 1.0000     0. 
  10   7   2      2.10    1.80  0. 1.0000     0. 
  10   7  -2     -0.90    1.10  0. 1.0000     0. 
   7  10   2     -0.40    1.30  0. 1.0000     0. 
   7  10  -2      2.10    1.40  0. 1.0000     0. 
  10   8   0    420.46   26.60  0. 1.0000     0. 
   8  10   0    438.76   28.20  0. 1.0000     0. 
  -8 -10  -1     -1.60    0.90  0. 1.0000     0. 
  10   8   1     -0.20    1.10  0. 1.0000     0. 
  10   8  -1      2.80    1.90  0. 1.0000     0. 
   8  10  -1      0.40    1.70  0. 1.0000     0. 
  11   0   0      3.70    7.00  0. 1.0000     0. 
 -11   0   0     -1.00    4.90  0. 1.0000     0. 
   0 -11   0     -2.80    0.80  0. 1.0000     0. 
  11   0   0     -1.00    1.80  0. 1.0000     0. 
  11   0   1     13.10   10.10  0. 1.0000     0. 
  11   0  -1      7.70    5.20  0. 1.0000     0. 
   0 -11  -1      8.50    7.20  0. 1.0000     0. 
 -11   0  -1      1.20    2.40  0. 1.0000     0. 
   0 -11   1     11.10    7.20  0. 1.0000     0. 
  11   0   1      9.40    8.00  0. 1.0000     0. 
  11   0  -1      8.10    6.00  0. 1.0000     0. 
  11   0   2     -3.30    3.70  0. 1.0000     0. 
  11   0  -2      3.00    5.90  0. 1.0000     0. 
   0 -11  -2     -1.50    3.70  0. 1.0000     0. 
 -11   0  -2      0.10    0.50  0. 1.0000     0. 
   0 -11   2     -0.20    4.30  0. 1.0000     0. 
  11   0   2      1.30    1.60  0. 1.0000     0. 
  11   0  -2      3.50    3.50  0. 1.0000     0. 
   0 -11  -3      5.90    4.50  0. 1.0000     0. 
   0 -11   3     10.60    6.70  0. 1.0000     0. 
  11   0  -3      5.60    3.80  0. 1.0000     0. 
   0 -11  -4     -2.00    2.30  0. 1.0000     0. 
   0 -11   4      0.40    0.90  0. 1.0000     0. 
  11  -1   0    929.31   78.89  0. 1.0000     0. 
  11   1   0   1000.40   78.19  0. 1.0000     0. 
 -11  -1   0   1055.99   65.69  0. 1.0000     0. 
  -1 -11   0   1197.58   66.79  0. 1.0000     0. 
  -1 -11   0   1046.90   69.89  0. 1.0000     0. 
   1 -11   0   1170.18   71.99  0. 1.0000     0. 
  11   1   0   1067.89   70.19  0. 1.0000     0. 
  11  -1   0    936.71   67.59  0. 1.0000     0. 
  11  -1   1     -3.30    3.70  0. 1.0000     0. 
  11  -1  -1      0.10    5.90  0. 1.0000     0. 
   1 -11  -1      3.30    5.70  0. 1.0000     0. 
  -1 -11  -1     -2.10    4.80  0. 1.0000     0. 
  11   1   1     -0.70    4.90  0. 1.0000     0. 
  11   1  -1      4.70    5.10  0. 1.0000     0. 
 -11  -1  -1     -2.00    2.70  0. 1.0000     0. 
  -1 -11  -1      4.30    0.50  0. 1.0000     0. 
  -1 -11   1      2.90    5.10  0. 1.0000     0. 
   1 -11   1      6.40    6.00  0. 1.0000     0. 
  11   1   1      3.10    5.90  0. 1.0000     0. 
  11  -1   1     -0.90    1.90  0. 1.0000     0. 
  11   1  -1      3.30    4.70  0. 1.0000     0. 
  11  -1  -1      1.10    2.40  0. 1.0000     0. 
  11  -1   2    859.51   60.89  0. 1.0000     0. 
  11  -1  -2    843.42   62.89  0. 1.0000     0. 
  11   1   2    954.90   63.69  0. 1.0000     0. 
  11   1  -2   1023.50   68.29  0. 1.0000     0. 
 -11  -1  -2    869.31   54.79  0. 1.0000     0. 
   1 -11  -2    877.61   65.29  0. 1.0000     0. 
  -1 -11  -2    779.42   57.49  0. 1.0000     0. 
  -1 -11   2    815.82   62.39  0. 1.0000     0. 
   1 -11   2    858.61   66.59  0. 1.0000     0. 
  11   1   2    934.51   61.59  0. 1.0000     0. 
  11  -1   2    781.42   56.69  0. 1.0000     0. 
  11   1  -2    808.72   52.59  0. 1.0000     0. 
  11  -1  -2    805.72   57.99  0. 1.0000     0. 
 -11  -1  -3      1.70    2.80  0. 1.0000     0. 
   1 -11  -3     -0.30    1.80  0. 1.0000     0. 
  -1 -11  -3      2.00    3.10  0. 1.0000     0. 
  -1 -11   3      2.70    2.70  0. 1.0000     0. 
   1 -11   3      0.40    0.90  0. 1.0000     0. 
  11   1  -3      0.70    1.10  0. 1.0000     0. 
  11  -1  -3      2.70    2.80  0. 1.0000     0. 
   1 -11  -4    573.34   35.00  0. 1.0000     0. 
  -1 -11  -4    561.04   32.90  0. 1.0000     0. 
  -1 -11   4    633.74   33.90  0. 1.0000     0. 
   1 -11   4    609.54   38.80  0. 1.0000     0. 
  11  -1  -4    610.94   35.90  0. 1.0000     0. 
  11  -2   0     11.20    8.80  0. 1.0000     0. 
  -2 -11   0      4.00    3.60  0. 1.0000     0. 
  11   2   0      1.90    2.70  0. 1.0000     0. 
 -11  -2   0      1.80    4.30  0. 1.0000     0. 
  -2 -11   0      3.80    3.20  0. 1.0000     0. 
   2 -11   0     -1.70    3.40  0. 1.0000     0. 
  11   2   0     11.10    5.90  0. 1.0000     0. 
  11  -2   0      5.90    5.60  0. 1.0000     0. 
  11  -2   1      6.00    3.70  0. 1.0000     0. 
  11  -2  -1      8.60    7.80  0. 1.0000     0. 
   2 -11  -1      1.90    4.30  0. 1.0000     0. 
  -2 -11  -1      4.80    3.70  0. 1.0000     0. 
  11   2   1      4.30    5.10  0. 1.0000     0. 
  11   2  -1      2.80    5.60  0. 1.0000     0. 
 -11  -2  -1      5.50    5.00  0. 1.0000     0. 
  -2 -11  -1     12.00    7.50  0. 1.0000     0. 
  -2 -11   1      6.10    4.50  0. 1.0000     0. 
   2 -11   1      3.00    4.50  0. 1.0000     0. 
  11   2   1      5.00    5.40  0. 1.0000     0. 
  11  -2   1     -1.80    5.40  0. 1.0000     0. 
  11   2  -1      0.90    2.30  0. 1.0000     0. 
  11  -2  -1      8.60    6.40  0. 1.0000     0. 
  11  -2   2     10.40    6.20  0. 1.0000     0. 
  11  -2  -2      2.90    4.10  0. 1.0000     0. 
   2 -11  -2      7.40    4.10  0. 1.0000     0. 
  -2 -11  -2      5.90    4.40  0. 1.0000     0. 
  11   2   2      4.60    3.70  0. 1.0000     0. 
  11   2  -2      9.40    5.40  0. 1.0000     0. 
 -11  -2  -2      6.00    4.00  0. 1.0000     0. 
  -2 -11   2      2.50    2.80  0. 1.0000     0. 
   2 -11   2     -0.90    1.50  0. 1.0000     0. 
  11   2   2      9.10    6.10  0. 1.0000     0. 
  11  -2   2      4.60    4.30  0. 1.0000     0. 
  11   2  -2      8.50    4.70  0. 1.0000     0. 
  11  -2  -2      7.20    5.90  0. 1.0000     0. 
   2 -11  -3      1.70    0.90  0. 1.0000     0. 
 -11  -2  -3      1.90    2.00  0. 1.0000     0. 
  -2 -11  -3      1.90    2.50  0. 1.0000     0. 
  -2 -11   3      3.50    3.20  0. 1.0000     0. 
   2 -11   3      6.70    5.50  0. 1.0000     0. 
  11   2  -3     -0.40    3.40  0. 1.0000     0. 
  11  -2  -3      1.90    2.50  0. 1.0000     0. 
   2 -11  -4      2.50    2.40  0. 1.0000     0. 
  -2 -11  -4      1.30    1.80  0. 1.0000     0. 
   2 -11   4     -1.10    2.80  0. 1.0000     0. 
  11  -2   4      1.60    2.10  0. 1.0000     0. 
  11  -2  -4      1.90    1.10  0. 1.0000     0. 
  11  -3   0    401.86   48.60  0. 1.0000     0. 
  11   3   0    490.95   48.50  0. 1.0000     0. 
 -11  -3   0    477.05   41.20  0. 1.0000     0. 
  -3 -11   0    552.84   40.80  0. 1.0000     0. 
  -3 -11   0    533.65   47.70  0. 1.0000     0. 
  11   3   0    566.04   40.90  0. 1.0000     0. 
  11  -3   0    572.04   52.49  0. 1.0000     0. 
  11  -3   1     25.70   12.20  0. 1.0000     0. 
  11  -3  -1     23.20   10.40  0. 1.0000     0. 
   3 -11  -1     24.60   10.80  0. 1.0000     0. 
  -3 -11  -1     27.40    9.60  0. 1.0000     0. 
  11   3   1     24.40   10.20  0. 1.0000     0. 
  11   3  -1     25.40   10.20  0. 1.0000     0. 
 -11  -3  -1     18.70    8.10  0. 1.0000     0. 
  -3 -11   1     23.60    9.50  0. 1.0000     0. 
   3 -11   1     35.10   13.00  0. 1.0000     0. 
  11   3   1     26.30    8.80  0. 1.0000     0. 
  11  -3   1     30.40   11.80  0. 1.0000     0. 
  11   3  -1     37.00   10.30  0. 1.0000     0. 
  11  -3  -1     33.00   12.50  0. 1.0000     0. 
  11   3   2    580.24   43.90  0. 1.0000     0. 
  11   3  -2    509.45   41.30  0. 1.0000     0. 
 -11  -3  -2    443.46   36.70  0. 1.0000     0. 
   3 -11  -2    517.65   50.79  0. 1.0000     0. 
  -3 -11  -2    466.55   41.10  0. 1.0000     0. 
  -3 -11   2    460.75   42.00  0. 1.0000     0. 
   3 -11   2    496.85   49.20  0. 1.0000     0. 
  11  -3   2    556.64   49.10  0. 1.0000     0. 
  11  -3  -2    499.25   44.40  0. 1.0000     0. 
   3 -11  -3     13.00    6.90  0. 1.0000     0. 
 -11  -3  -3     17.70    6.80  0. 1.0000     0. 
  -3 -11  -3     15.90    6.20  0. 1.0000     0. 
  -3 -11   3     12.40    5.10  0. 1.0000     0. 
   3 -11   3     14.80    6.90  0. 1.0000     0. 
  11  -3   3     28.50    9.40  0. 1.0000     0. 
  11  -3  -3     20.50    8.20  0. 1.0000     0. 
  -4 -11   0     12.50    5.60  0. 1.0000     0. 
 -11  -4   0      8.50    4.90  0. 1.0000     0. 
  -4 -11   0     12.30    6.70  0. 1.0000     0. 
  11   4   0     11.60    7.30  0. 1.0000     0. 
  11  -4   0     11.40    6.30  0. 1.0000     0. 
   4 -11  -1     -6.60    5.30  0. 1.0000     0. 
  -4 -11  -1     -1.00    2.20  0. 1.0000     0. 
 -11  -4  -1     -1.40    1.10  0. 1.0000     0. 
  11   4   1      4.20    4.30  0. 1.0000     0. 
  11   4  -1      0.00    2.00  0. 1.0000     0. 
  -4 -11   1      2.20    2.90  0. 1.0000     0. 
  11  -4   1      5.30    5.40  0. 1.0000     0. 
  11  -4  -1     -3.40    5.10  0. 1.0000     0. 
   4 -11  -2     13.50    7.80  0. 1.0000     0. 
  -4 -11  -2     11.50    6.50  0. 1.0000     0. 
 -11  -4  -2     14.00    6.30  0. 1.0000     0. 
  11   4   2     12.70    6.40  0. 1.0000     0. 
  11   4  -2     13.20    6.00  0. 1.0000     0. 
  -4 -11   2     14.90    7.00  0. 1.0000     0. 
   4 -11   2     10.90    5.40  0. 1.0000     0. 
  11  -4  -2     15.80    7.20  0. 1.0000     0. 
   4 -11  -3      0.30    0.80  0. 1.0000     0. 
 -11  -4  -3     -0.80    1.90  0. 1.0000     0. 
  -4 -11  -3     -4.70    3.20  0. 1.0000     0. 
  -4 -11   3      1.20    1.40  0. 1.0000     0. 
   4 -11   3      1.70    2.10  0. 1.0000     0. 
  11  -4  -3      3.90    3.00  0. 1.0000     0. 
  11   5   0    606.14   44.80  0. 1.0000     0. 
 -11  -5   0    545.05   37.30  0. 1.0000     0. 
  -5 -11   0    771.62   39.70  0. 1.0000     0. 
  11  -5   0    848.72   51.19  0. 1.0000     0. 
   5 -11  -1      4.60    3.40  0. 1.0000     0. 
  -5 -11  -1      6.20    4.10  0. 1.0000     0. 
 -11  -5  -1      4.00    2.90  0. 1.0000     0. 
  11   5   1      1.00    2.80  0. 1.0000     0. 
  11   5  -1      7.80    3.90  0. 1.0000     0. 
 -11  -5   1      7.70    4.40  0. 1.0000     0. 
  11  -5  -1      3.20    2.80  0. 1.0000     0. 
  11   5   2    756.62   37.70  0. 1.0000     0. 
  11   5  -2    712.63   37.10  0. 1.0000     0. 
 -11  -5  -2    563.94   35.60  0. 1.0000     0. 
   5  11   2    636.94   31.90  0. 1.0000     0. 
   5  11  -2    674.73   34.00  0. 1.0000     0. 
   5 -11  -2    671.23   49.20  0. 1.0000     0. 
  -5 -11  -2    620.54   40.70  0. 1.0000     0. 
   5 -11   2    788.22   42.30  0. 1.0000     0. 
  11  -5  -2    884.91   47.40  0. 1.0000     0. 
   5 -11  -3     -2.00    2.20  0. 1.0000     0. 
 -11  -5  -3     -0.30    0.50  0. 1.0000     0. 
 -11  -6   0     30.10    7.60  0. 1.0000     0. 
  11   6   0     30.60    8.50  0. 1.0000     0. 
   6  11   0     32.10    8.60  0. 1.0000     0. 
 -11  -6  -1     -0.90    2.20  0. 1.0000     0. 
  -6 -11  -1      2.40    0.80  0. 1.0000     0. 
 -11  -6   1     -0.30    0.30  0. 1.0000     0. 
  11   6   1     -0.40    1.90  0. 1.0000     0. 
  11   6  -1     -1.20    1.50  0. 1.0000     0. 
   6  11   1     -0.30    0.70  0. 1.0000     0. 
 -11  -6  -2     23.30    5.80  0. 1.0000     0. 
  -6 -11  -2     20.30    5.80  0. 1.0000     0. 
  12   0   0    490.65   44.30  0. 1.0000     0. 
  12   0   0    492.65   39.70  0. 1.0000     0. 
  12   0   1      0.40    1.60  0. 1.0000     0. 
  12   0  -1     -0.40    1.80  0. 1.0000     0. 
   0 -12  -1      2.70    3.20  0. 1.0000     0. 
 -12   0   1     -5.60    3.30  0. 1.0000     0. 
   0 -12   1     -2.70    4.10  0. 1.0000     0. 
  12   0   1      2.90    3.20  0. 1.0000     0. 
  12   0  -1     -2.30    2.60  0. 1.0000     0. 
  12   0   2    527.15   33.70  0. 1.0000     0. 
  12   0  -2    503.15   33.60  0. 1.0000     0. 
   0 -12  -2    441.66   33.40  0. 1.0000     0. 
   0 -12   2    436.36   35.30  0. 1.0000     0. 
  12   0   2    454.85   35.10  0. 1.0000     0. 
  12   0  -2    415.96   32.00  0. 1.0000     0. 
   0 -12  -3      2.20    2.90  0. 1.0000     0. 
   0 -12   3     -1.30    1.40  0. 1.0000     0. 
  12  -1   0    -12.10    6.80  0. 1.0000     0. 
  12   1   0     -2.50    4.00  0. 1.0000     0. 
 -12  -1   0      1.90    3.10  0. 1.0000     0. 
  -1 -12   0      3.90    3.50  0. 1.0000     0. 
  12   1   0      3.70    4.60  0. 1.0000     0. 
  12  -1   0     -2.60    3.50  0. 1.0000     0. 
  12  -1   1      7.80    5.10  0. 1.0000     0. 
  12  -1  -1      5.90    4.30  0. 1.0000     0. 
   1 -12  -1     12.10    5.90  0. 1.0000     0. 
  12   1   1      3.00    2.30  0. 1.0000     0. 
  12   1  -1     12.40    6.60  0. 1.0000     0. 
  -1 -12  -1      3.30    3.00  0. 1.0000     0. 
 -12  -1  -1      8.00    4.80  0. 1.0000     0. 
 -12  -1   1      9.50    4.70  0. 1.0000     0. 
  -1 -12   1      4.90    3.20  0. 1.0000     0. 
   1 -12   1     15.50    7.00  0. 1.0000     0. 
  12   1   1      8.00    4.70  0. 1.0000     0. 
  12  -1   1      8.70    5.60  0. 1.0000     0. 
  12   1  -1      4.30    2.70  0. 1.0000     0. 
  12  -1  -1     11.90    6.20  0. 1.0000     0. 
  12   1   2     -2.90    2.40  0. 1.0000     0. 
  12   1  -2     -3.00    2.50  0. 1.0000     0. 
   1 -12  -2      0.50    2.00  0. 1.0000     0. 
  -1 -12  -2      0.30    1.50  0. 1.0000     0. 
 -12  -1  -2      6.70    3.50  0. 1.0000     0. 
 -12  -1   2      3.50    2.60  0. 1.0000     0. 
  -1 -12   2     -2.60    2.90  0. 1.0000     0. 
   1 -12   2      0.30    0.90  0. 1.0000     0. 
  12  -1   2      0.50    1.90  0. 1.0000     0. 
  12   1  -2      0.00    0.30  0. 1.0000     0. 
  12  -1  -2     -1.60    2.50  0. 1.0000     0. 
   1 -12  -3      6.50    3.40  0. 1.0000     0. 
  -1 -12  -3      5.10    2.60  0. 1.0000     0. 
  -1 -12   3      4.60    2.50  0. 1.0000     0. 
   1 -12   3      8.40    3.50  0. 1.0000     0. 
  12  -1  -3      1.90    2.10  0. 1.0000     0. 
  12  -2   0    521.65   45.30  0. 1.0000     0. 
  12   2   0    578.04   45.00  0. 1.0000     0. 
 -12  -2   0    597.84   39.90  0. 1.0000     0. 
  -2 -12   0    608.94   41.70  0. 1.0000     0. 
  12   2   0    576.84   36.80  0. 1.0000     0. 
  12  -2   0    601.44   44.60  0. 1.0000     0. 
  12  -2   1      2.20    3.40  0. 1.0000     0. 
  12  -2  -1      1.30    1.80  0. 1.0000     0. 
   2 -12  -1      2.50    2.40  0. 1.0000     0. 
  12   2   1      2.00    2.90  0. 1.0000     0. 
  12   2  -1     -0.10    0.90  0. 1.0000     0. 
  -2 -12  -1     -2.00    2.30  0. 1.0000     0. 
 -12  -2  -1     -5.20    3.50  0. 1.0000     0. 
 -12  -2   1     -0.90    2.50  0. 1.0000     0. 
  -2 -12   1      5.00    5.10  0. 1.0000     0. 
   2 -12   1      1.70    2.20  0. 1.0000     0. 
  12   2   1      2.00    2.00  0. 1.0000     0. 
  12  -2   1      0.50    1.10  0. 1.0000     0. 
  12   2  -1      1.80    2.20  0. 1.0000     0. 
  12  -2  -1     -0.20    5.10  0. 1.0000     0. 
  12   2   2    619.44   32.60  0. 1.0000     0. 
  12   2  -2    564.74   31.80  0. 1.0000     0. 
 -12  -2  -2    603.94   34.70  0. 1.0000     0. 
   2 -12  -2    550.64   37.00  0. 1.0000     0. 
  -2 -12  -2    551.44   35.50  0. 1.0000     0. 
  -2 -12   2    481.95   34.40  0. 1.0000     0. 
   2 -12   2    563.44   37.40  0. 1.0000     0. 
  12  -2  -2    508.65   36.60  0. 1.0000     0. 
  12   3   0     17.10    7.00  0. 1.0000     0. 
 -12  -3   0     13.30    5.50  0. 1.0000     0. 
  12  -3   0     11.30    5.70  0. 1.0000     0. 
  -3 -12  -1      6.60    3.40  0. 1.0000     0. 
  12   3   1      4.10    4.00  0. 1.0000     0. 
  12   3  -1      5.60    5.00  0. 1.0000     0. 
 -12  -3  -1      7.30    4.50  0. 1.0000     0. 
 -12  -3   1      2.40    1.80  0. 1.0000     0. 
  -3 -12   1      1.10    1.60  0. 1.0000     0. 
  12  -3   1      4.70    4.00  0. 1.0000     0. 
  12  -3  -1     -1.60    3.70  0. 1.0000     0. 
   3 -12  -2     12.60    5.00  0. 1.0000     0. 
  -3 -12  -2     17.40    5.90  0. 1.0000     0. 
 -12  -3  -2     11.90    4.60  0. 1.0000     0. 
 -12  -3   2     14.60    5.10  0. 1.0000     0. 
  -3 -12   2      8.40    4.30  0. 1.0000     0. 
  12  -3  -2     18.00    6.50  0. 1.0000     0. 
  12   4   0    608.64   38.40  0. 1.0000     0. 
 -12  -4   0    537.05   31.40  0. 1.0000     0. 
  12   4   1     17.40    5.70  0. 1.0000     0. 
  12   4  -1     19.50    6.10  0. 1.0000     0. 
 -12  -4  -1     14.30    5.00  0. 1.0000     0. 
 -12  -4   1     17.70    5.30  0. 1.0000     0. 
  12  -4  -1     20.20    6.00  0. 1.0000     0. 
   4  12   1     15.70    4.90  0. 1.0000     0. 
  12   5   0      0.90    1.30  0. 1.0000     0. 
 -12  -5   0     -0.70    1.70  0. 1.0000     0. 
   5  12   0      0.60    0.90  0. 1.0000     0. 
  13   0   0     -3.10    2.30  0. 1.0000     0. 
-512 
#   3900 reflections output 
;
loop_
_symmetry_equiv_pos_as_xyz
x,y,z
-x,-y,-z
-y,x,z
y,-x,-z
-x,-y,z
x,y,-z
y,-x,z
-y,x,-z
-x+1/2,y+1/2,z+1/2
x+1/2,-y+1/2,-z+1/2
y+1/2,x+1/2,z+1/2
-y+1/2,-x+1/2,-z+1/2
x+1/2,-y+1/2,z+1/2
-x+1/2,y+1/2,-z+1/2
-y+1/2,-x+1/2,z+1/2
y+1/2,x+1/2,-z+1/2
loop_
_atom_site_label
_atom_site_type_symbol
_atom_site_fract_x
_atom_site_fract_y
_atom_site_fract_z
_atom_site_U_iso_or_equiv
_atom_site_occupancy
_atom_site_adp_type
_atom_site_refinement_flags_posn
_atom_site_refinement_flags_adp
_atom_site_refinement_flags_occupancy
_atom_site_disorder_assembly
_atom_site_disorder_group
_atom_site_attached_hydrogens
Pt1 Pt 0.5000 0.5000 1.0000 0.0201 1.0000 Uani S T . . . .
Pt2 Pt 0.5000 0.5000 0.5000 0.0207 1.0000 Uani S T . . . .
Cl1 Cl 0.6982(3) 0.3954(3) 0.5000 0.0371 1.0000 Uani S T . . . .
N1 N 0.6706(10) 0.6020(10) 1.0000 0.0370 1.0000 Uani S T . . . .
C1 C 0.7989(11) 0.5415(11) 1.0000 0.0379 1.0000 Uani S T . . . .
H11 H 0.8604 0.6096 1.0000 0.0471 1.0000 Uiso RS . . . . .
H12 H 0.8104 0.4898 1.1194 0.0471 1.0000 Uiso R . . . . .
H13 H 0.6672 0.6515 1.1118 0.0541 1.0000 Uiso R . . . . .
loop_
_atom_site_aniso_label
_atom_site_aniso_U_11
_atom_site_aniso_U_22
_atom_site_aniso_U_33
_atom_site_aniso_U_23
_atom_site_aniso_U_13
_atom_site_aniso_U_12
Pt1 0.0194(5) 0.0194(5) 0.0214(7) 0.0000 0.0000 0.0000
Pt2 0.0203(5) 0.0203(5) 0.0217(7) 0.0000 0.0000 0.0000
Cl1 0.0288(13) 0.0374(15) 0.0452(16) 0.0000 0.0000 0.0089(12)
N1 0.038(6) 0.028(5) 0.045(6) 0.0000 0.0000 0.001(4)
C1 0.028(5) 0.030(5) 0.055(8) 0.0000 0.0000 0.002(5)
loop_
_atom_type_symbol
_atom_type_scat_dispersion_real
_atom_type_scat_dispersion_imag
_atom_type_scat_Cromer_Mann_a1
_atom_type_scat_Cromer_Mann_b1
_atom_type_scat_Cromer_Mann_a2
_atom_type_scat_Cromer_Mann_b2
_atom_type_scat_Cromer_Mann_a3
_atom_type_scat_Cromer_Mann_b3
_atom_type_scat_Cromer_Mann_a4
_atom_type_scat_Cromer_Mann_b4
_atom_type_scat_Cromer_Mann_c
_atom_type_scat_source
C 0.0181 0.0091 2.3100 20.8439 1.0200 10.2075 1.5886 0.5687 0.8650 51.6512
0.2156 'International Tables Vol C 4.2.6.8 and 6.1.1.4'
H 0.0000 0.0000 0.4930 10.5109 0.3229 26.1257 0.1402 3.1424 0.0408 57.7998
0.0030 'International Tables Vol C 4.2.6.8 and 6.1.1.4'
N 0.0311 0.0180 12.2126 0.0057 3.1322 9.8933 2.0125 28.9975 1.1663 0.5826
-11.5290 'International Tables Vol C 4.2.6.8 and 6.1.1.4'
Cl 0.3639 0.7018 11.4604 0.0104 7.1964 1.1662 6.2556 18.5194 1.6455 47.7784
-9.5574 'International Tables Vol C 4.2.6.8 and 6.1.1.4'
Pt -4.5932 6.9264 27.0059 1.5129 17.7639 8.8117 15.7131 0.4246 5.7837 38.6103
11.6883 'International Tables Vol C 4.2.6.8 and 6.1.1.4'
loop_
_geom_angle_atom_site_label_1
_geom_angle_site_symmetry_1
_geom_angle_atom_site_label_2
_geom_angle_site_symmetry_2
_geom_angle_atom_site_label_3
_geom_angle_site_symmetry_3
_geom_angle
_geom_angle_publ_flag
N1 3_655 Pt1 . N1 4_567 179.99 yes
N1 3_655 Pt1 . N1 2_667 90.00 yes
N1 4_567 Pt1 . N1 2_667 90.00 yes
N1 3_655 Pt1 . N1 . 90.00 yes
N1 4_567 Pt1 . N1 . 90.00 yes
N1 2_667 Pt1 . N1 . 179.99 yes
Cl1 2_666 Pt2 . Cl1 3_655 90.00 yes
Cl1 2_666 Pt2 . Cl1 4_566 90.00 yes
Cl1 3_655 Pt2 . Cl1 4_566 180.00 yes
Cl1 2_666 Pt2 . Cl1 . 180.00 yes
Cl1 3_655 Pt2 . Cl1 . 90.00 yes
Cl1 4_566 Pt2 . Cl1 . 90.00 yes
H13 6_557 N1 . Pt1 . 105.2 no
H13 6_557 N1 . C1 . 106.3 no
Pt1 . N1 . C1 . 123.9(7) yes
H13 6_557 N1 . H13 . 109.5 no
Pt1 . N1 . H13 . 105.2 no
C1 . N1 . H13 . 106.3 no
N1 . C1 . H12 6_557 110.8 no
N1 . C1 . H11 . 106.8 no
H12 6_557 C1 . H11 . 109.5 no
N1 . C1 . H12 . 110.8 no
H12 6_557 C1 . H12 . 109.5 no
H11 . C1 . H12 . 109.5 no
loop_
_geom_bond_atom_site_label_1
_geom_bond_site_symmetry_1
_geom_bond_atom_site_label_2
_geom_bond_site_symmetry_2
_geom_bond_distance
_geom_bond_publ_flag
Pt1 . N1 3_655 2.057(10) yes
Pt1 . N1 4_567 2.057(10) yes
Pt1 . N1 2_667 2.057(10) yes
Pt1 . N1 . 2.057(10) yes
Pt2 . Cl1 2_666 2.320(3) yes
Pt2 . Cl1 3_655 2.320(3) yes
Pt2 . Cl1 4_566 2.320(3) yes
Pt2 . Cl1 . 2.320(3) yes
N1 . H13 6_557 0.890 no
N1 . C1 . 1.468(14) yes
N1 . H13 . 0.890 no
C1 . H12 6_557 0.950 no
C1 . H11 . 0.950 no
C1 . H12 . 0.950 no
