#------------------------------------------------------------------------------
#$Date: 2020-06-16 04:24:09 +0300 (Tue, 16 Jun 2020) $
#$Revision: 253165 $
#$URL: file:///home/coder/svn-repositories/cod/cif/7/24/07/7240723.cif $
#------------------------------------------------------------------------------
#
# This file is available in the Crystallography Open Database (COD),
# http://www.crystallography.net/
#
# All data on this site have been placed in the public domain by the
# contributors.
#
data_7240723
loop_
_publ_author_name
'Malaspina, Lorraine Andrade'
'Hoser, Anna A.'
'Edwards, Alison'
'Woinska, Magdalena'
'Turner, Michael J.'
'Price, Jason R.'
'Sugimoto, Kunihisa'
'Nishibori, Eiji'
'Burgi, Hans-Beat'
'Jayatilaka, Dylan'
'Grabowsky, Simon'
_publ_section_title
;
 Hydrogen atoms in bridging positions from quantum crystallographic
 refinements: Influence of hydrogen atom displacement parameters on
 geometry and electron density
;
_journal_name_full               CrystEngComm
_journal_paper_doi               10.1039/D0CE00378F
_journal_year                    2020
_chemical_absolute_configuration syn
_chemical_formula_moiety         'C4 H3 O4, K'
_chemical_formula_sum            'C4 H3 K O4'
_chemical_formula_weight         154.16
_chemical_name_common            'Potassium hydrogen maleate'
_space_group_IT_number           57
_space_group_name_Hall           '-P 2c 2b'
_space_group_name_H-M_alt        'P b c m'
_symmetry_cell_setting           orthorhombic
_symmetry_Int_Tables_number      57
_symmetry_space_group_name_Hall  '-P 2c 2b'
_symmetry_space_group_name_H-M   'P b c m'
_atom_sites_solution_hydrogens   difmap
_atom_sites_solution_primary     dual
_audit_creation_date             2019-04-30T12:51:47-00:00
_audit_creation_method           'WinGX routine CIF_UPDATE'
_audit_update_record
;
2020-03-10 deposited with the CCDC.	2020-06-15 downloaded from the CCDC.
;
_cell_angle_alpha                90
_cell_angle_beta                 90
_cell_angle_gamma                90
_cell_formula_units_Z            4
_cell_length_a                   4.50760(10)
_cell_length_b                   7.70270(10)
_cell_length_c                   15.9229(3)
_cell_measurement_reflns_used    111452
_cell_measurement_temperature    15(2)
_cell_measurement_theta_max      60.64
_cell_measurement_theta_min      1.27
_cell_measurement_wavelength     0.3531
_cell_volume                     552.854(18)
_computing_cell_refinement       'CrystalClear (Rigaku/MSC Inc., 2006)'
_computing_data_collection       'CrystalClear (Rigaku/MSC Inc., 2006)'
_computing_data_reduction
'CrystalClear (Rigaku/MSC Inc., 2006), SORTAV (Blessing, 1995)'
_computing_structure_refinement
'Tonto 18.12.17 github v. 2b3dd9c (Capelli, 2014)'
_computing_structure_solution    'SHELXT-2014 (Sheldrick, 2014)'
_diffrn_ambient_temperature      15(2)
_diffrn_detector                 'SPring-8 BL02B1 Curved Imaging Plate'
_diffrn_detector_area_resol_mean 10
_diffrn_measured_fraction_theta_full 1
_diffrn_measured_fraction_theta_max 1
_diffrn_measurement_device       'quarter \C-circle diffractometer'
_diffrn_measurement_device_type  IPDSC-Q
_diffrn_measurement_method       'phi or omega oscillation scans'
_diffrn_orient_matrix_type       fs_process
_diffrn_radiation_monochromator  graphite
_diffrn_radiation_probe          x-ray
_diffrn_radiation_type           synchrotron
_diffrn_radiation_wavelength     0.3531
_diffrn_reflns_av_R_equivalents  0.0422
_diffrn_reflns_av_unetI/netI     0.0124
_diffrn_reflns_Laue_measured_fraction_full 1
_diffrn_reflns_Laue_measured_fraction_max 1
_diffrn_reflns_limit_h_max       11
_diffrn_reflns_limit_h_min       -11
_diffrn_reflns_limit_k_max       20
_diffrn_reflns_limit_k_min       -20
_diffrn_reflns_limit_l_max       41
_diffrn_reflns_limit_l_min       -41
_diffrn_reflns_number            86584
_diffrn_reflns_point_group_measured_fraction_full 1
_diffrn_reflns_point_group_measured_fraction_max 1
_diffrn_reflns_theta_full        12.231
_diffrn_reflns_theta_max         27.684
_diffrn_reflns_theta_min         1.271
_diffrn_source                   SPring-8
_diffrn_standards_number         0
_exptl_absorpt_coefficient_mu    0.141
_exptl_absorpt_correction_type   none
_exptl_crystal_colour            colorless
_exptl_crystal_density_diffrn    1.852
_exptl_crystal_density_method    'not measured'
_exptl_crystal_description       platelet
_exptl_crystal_F_000             312
_exptl_crystal_size_max          0.15
_exptl_crystal_size_mid          0.15
_exptl_crystal_size_min          0.05
_refine_diff_density_max         0.4832
_refine_diff_density_min         -0.367
_refine_diff_density_rms         0.0412
_refine_ls_extinction_method     none
_refine_ls_goodness_of_fit_all   2.9351
_refine_ls_goodness_of_fit_gt    2.9351
_refine_ls_hydrogen_treatment    refxyz
_refine_ls_matrix_type           full
_refine_ls_number_constraints    13
_refine_ls_number_parameters     51
_refine_ls_number_reflns         4972
_refine_ls_number_restraints     0
_refine_ls_R_factor_all          0.0212
_refine_ls_R_factor_gt           0.0212
_refine_ls_shift/su_max          0.0056
_refine_ls_structure_factor_coef F
_refine_ls_weighting_details     w=1/\s(F)
_refine_ls_weighting_scheme      sigma
_refine_ls_wR_factor_all         0.0213
_refine_ls_wR_factor_gt          0.0213
_reflns_Friedel_coverage         0
_reflns_number_gt                4972
_reflns_number_total             5365
_reflns_threshold_expression     'F>0 & F/u(F)>4.0 & |F_calc|>10^-3'
_iucr_refine_instructions_details
;
!!!!!!!!!!!!!!!!!!!!!!!!!!!!!!!!!!!!!!!!!!!!!!!!!!!!!!!!!!!!!!!!!!!!!!!!!!!!!!!
!!!                                                                         !!!
!!!                        This stdin was written with lamaGOET             !!!
!!!                                                                         !!!
!!!                    script written by Lorraine Andrade Malaspina         !!!
!!!                        contact: lorraine.malaspina@gmail.com            !!!
!!!                                                                         !!!
!!!!!!!!!!!!!!!!!!!!!!!!!!!!!!!!!!!!!!!!!!!!!!!!!!!!!!!!!!!!!!!!!!!!!!!!!!!!!!!
{ 

   keyword_echo_on

   name= KH_HAR_neutron

   ! Process the CIF
   CIF= {
       file_name= grown_charge1_neutron_ADPs.cif
    }

   process_CIF

   name= KH_HAR_neutron

   basis_directory= /basis_sets
   basis_name= def2-TZVP

   charge= 1
   multiplicity= 1


   crystal= {    
      xray_data= {   
         thermal_smearing_model= hirshfeld
         partition_model= mulliken
         optimise_extinction= false
         correct_dispersion= no
         optimise_scale_factor= true
         wavelength= 0.3531 Angstrom
         REDIRECT from_O.hkl
         f_sigma_cutoff= 4
         refine_H_U_iso= no

	 refine_H_ADPs= false
      }  
   }  

   ! Geometry    
   put

   ! Normal SCF
   scfdata= {
      initial_density= promolecule 
      kind= rhf
      use_SC_cluster_charges= FALSE
      convergence= 0.001
      diis= { convergence_tolerance= 0.0002 }
   }

   scf

   ! SC cluster charge SCF
   scfdata= {
      initial_MOs= restricted
      kind= rhf
      use_SC_cluster_charges= TRUE
      cluster_radius= 8 angstrom
      defragment= false
      convergence= 0.001
      diis= {
         convergence_tolerance= 0.0002
      }
   }

   ! Make Hirshfeld structure factors
   refine_hirshfeld_atoms

}
;
_cod_data_source_file            d0ce00378f2.cif
_cod_data_source_block           K_HAR_neutron
_cod_depositor_comments
;
The following automatic conversions were performed:

data item '_symmetry_cell_setting' value 'Orthorhombic' was changed
to 'orthorhombic' in accordance with the
/home/data/users/saulius/crontab/automatic-downloads/rss-feeds/RSC/lib/dictionaries/cif_core.dic
dictionary named 'cif_core.dic' version 2.4.2 last updated on
2011-04-26.

Automatic conversion script
Id: cif_fix_values 7556 2019-12-06 15:28:31Z antanas 
;
_cod_original_sg_symbol_Hall     '-p 2c 2b'
_cod_original_sg_symbol_H-M      'p b c m'
_cod_database_code               7240723
_shelx_estimated_absorpt_t_min   0.979
_shelx_estimated_absorpt_t_max   0.993
_refine_ls_coordinate_system     cartesian
_refine_ls_svd_threshold         0.1E-02
_iucr_refine_reflections_details
;
reflection_data= {
   keys= { h= k= l= i_exp= i_sigma= }
      data= {
   0   0   2   29493.82     846.50
   0   0   4   44779.72     469.10
   0   0   6   665246.3   12181.97
   0   0   8   42203.39     395.42
   0   0  10   84039.25    1299.18
   0   0  12   341939.1    4782.89
   0   0  14   285957.2    3175.78
   0   0  16   87469.14     623.07
   0   0  18   62835.75     816.98
   0   0  20   18687.56     415.75
   0   0  22    5116.37      45.69
   0   0  24   37289.22     757.28
   0   0  26   10159.62     316.50
   0   0  28   129113.3    3826.10
   0   0  30   21733.73     717.78
   0   0  32     109.99      42.10
   0   0  34   34864.76    1211.85
   0   0  36     519.31      42.02
   0   0  38     268.82      41.75
   0   0  40   19353.41     679.48
   0   2   0   95420.52    1544.76
   0   2   1   542200.6    7104.62
   0   2   2   257939.8    3785.12
   0   2   3   217229.2    3255.41
   0   2   4   168376.2    2971.81
   0   2   5    8920.27     107.27
   0   2   6   883798.4   13184.74
   0   2   7   49662.09     486.56
   0   2   8   239932.8    2900.72
   0   2   9   11309.42     153.25
   0   2  10   80265.43     728.40
   0   2  11   125124.4    1108.22
   0   2  12   296726.4    1966.58
   0   2  13    3213.49      19.55
   0   2  14    3397.44      41.54
   0   2  15   15179.62     137.71
   0   2  16   85143.32     537.77
   0   2  17    7937.14      85.66
   0   2  18   126215.4     673.05
   0   2  19    3167.40      23.98
   0   2  20   10350.41      80.88
   0   2  21     441.45      14.15
   0   2  22   136545.2    1232.73
   0   2  23     444.33      15.29
   0   2  24   29890.15     429.39
   0   2  25    9292.53     108.50
   0   2  26   11542.57     242.23
   0   2  27    8885.53     154.44
   0   2  28   10513.42     197.34
   0   2  29    9563.24     163.21
   0   2  30   14789.14     320.54
   0   2  31    4325.02      85.42
   0   2  32   10077.77     216.99
   0   2  33    1027.20      25.72
   0   2  34   13289.19     317.97
   0   2  35    3571.25      80.05
   0   2  36   21617.60     532.88
   0   2  37     136.82      24.35
   0   2  38     985.92      53.44
   0   2  39    9314.56     258.48
   0   2  40    7085.68     174.32
   0   2  41       0.00      27.34
   0   4   0   234476.0    2056.38
   0   4   1     831.93      10.61
   0   4   2   15435.57     312.14
   0   4   3   120145.9    1432.93
   0   4   4   423758.8    4319.27
   0   4   5   108856.1    1074.58
   0   4   6   265265.0    2795.51
   0   4   7   46030.99     501.67
   0   4   8   56150.01     765.36
   0   4   9    1440.80      57.66
   0   4  10   333785.5    3473.39
   0   4  11    8383.34     125.26
   0   4  12   35753.66     246.68
   0   4  13   80382.04     697.26
   0   4  14   18492.98     138.61
   0   4  15   38869.40     187.01
   0   4  16   50441.42     384.90
   0   4  17   18318.55     111.38
   0   4  18   96387.48     927.87
   0   4  19    4324.98      43.48
   0   4  20   29056.32     311.48
   0   4  21   13565.38     177.70
   0   4  22   27871.07     324.79
   0   4  23    3237.29      22.92
   0   4  24   116645.8    1506.13
   0   4  25   25530.07     322.93
   0   4  26     332.36      18.22
   0   4  27     133.14      17.96
   0   4  28   11388.15     267.01
   0   4  29    1702.20      36.11
   0   4  30   22758.52     354.32
   0   4  31     258.83      19.36
   0   4  32    5017.10     113.61
   0   4  33    4800.29     126.50
   0   4  34   17710.08     334.20
   0   4  35      47.37      20.76
   0   4  36    5185.93     104.59
   0   4  37    2783.24      78.77
   0   4  38   12647.48     299.63
   0   4  39     327.10      25.81
   0   4  40    1472.52      74.99
   0   4  41    1704.28      63.48
   0   6   0   253404.2    2162.27
   0   6   1   27352.44     172.38
   0   6   2   307115.5    3168.87
   0   6   3    7024.33      63.44
   0   6   4   16283.91     234.66
   0   6   5      70.40       9.21
   0   6   6   37721.06     334.12
   0   6   7   26519.47     298.44
   0   6   8   57584.88     589.97
   0   6   9   31569.99     211.26
   0   6  10    3701.77      42.91
   0   6  11      35.37      12.12
   0   6  12   186467.8    1308.55
   0   6  13   16373.78     108.52
   0   6  14   131262.6    1293.62
   0   6  15   10163.36     157.15
   0   6  16   84154.31    1244.00
   0   6  17     447.23      13.95
   0   6  18   20652.97     236.63
   0   6  19   22024.34     185.59
   0   6  20   15295.77     157.91
   0   6  21    5779.36      97.95
   0   6  22   22001.35     362.43
   0   6  23    4799.90      83.18
   0   6  24     230.72      17.70
   0   6  25   14874.98     229.86
   0   6  26   66727.27     995.25
   0   6  27    4526.40     118.48
   0   6  28   37555.45     859.72
   0   6  29     200.30      19.81
   0   6  30   13084.85     339.27
   0   6  31    4310.41      92.35
   0   6  32   12152.95     268.96
   0   6  33    1217.54      39.34
   0   6  34    1070.32      35.34
   0   6  35     286.03      23.40
   0   6  36    2864.41     114.56
   0   6  37      56.65      22.78
   0   6  38     148.22      23.43
   0   6  39     171.38      24.08
   0   6  40    9745.68     228.09
   0   8   0   51700.71     811.38
   0   8   1   29776.12     163.98
   0   8   2   24641.12     172.22
   0   8   3   26703.14     309.41
   0   8   4   89616.23     712.80
   0   8   5    9588.07      49.97
   0   8   6   76965.52     692.45
   0   8   7   10230.91      99.38
   0   8   8   119191.1    1121.70
   0   8   9     118.06      13.10
   0   8  10   73185.62     616.28
   0   8  11   51203.04     363.32
   0   8  12    1728.13      23.26
   0   8  13    1869.93      31.76
   0   8  14   87981.30     698.06
   0   8  15     883.74      25.33
   0   8  16    7061.82     104.81
   0   8  17    3552.86      41.29
   0   8  18   15114.74     216.44
   0   8  19    4580.59      63.42
   0   8  20   105613.8    1167.74
   0   8  21    1076.21      58.37
   0   8  22   15740.05     251.29
   0   8  23     813.73      19.25
   0   8  24   22367.32     411.57
   0   8  25    6649.79     162.28
   0   8  26   11751.57     227.90
   0   8  27    3910.87      85.35
   0   8  28    7343.72     187.03
   0   8  29    5096.40     109.19
   0   8  30    2787.70      67.04
   0   8  31    2219.91      68.69
   0   8  32    8731.55     204.84
   0   8  33     283.48      21.93
   0   8  34   17271.53     423.90
   0   8  35    1030.21      50.56
   0   8  36    4186.37     127.38
   0   8  37     185.59      24.53
   0   8  38    9112.94     231.48
   0  10   0    5605.91      88.12
   0  10   1    3600.55      41.58
   0  10   2   103696.1     697.11
   0  10   3   15241.01      89.01
   0  10   4   78808.17     523.10
   0  10   5   10429.42     122.28
   0  10   6    6728.80      58.49
   0  10   7    2582.07      40.82
   0  10   8   79353.01     883.33
   0  10   9    1395.31      28.16
   0  10  10   49926.88     565.19
   0  10  11    9835.62      94.90
   0  10  12   22408.72     328.96
   0  10  13     224.24      14.75
   0  10  14    8306.11     114.30
   0  10  15      10.63      14.74
   0  10  16   36061.22     577.10
   0  10  17    6000.02      97.99
   0  10  18   21692.02     399.66
   0  10  19    2858.02      67.80
   0  10  20   18042.40     315.90
   0  10  21     226.65      20.39
   0  10  22   24170.14     441.98
   0  10  23     621.94      25.99
   0  10  24   11775.48     236.69
   0  10  25    7983.17     236.70
   0  10  26   24457.30     456.48
   0  10  27     105.45      20.80
   0  10  28      34.19      21.79
   0  10  29      21.25      20.29
   0  10  30    9194.44     157.58
   0  10  31     683.55      30.68
   0  10  32   20072.82     342.83
   0  10  33    4311.33     103.59
   0  10  34      49.85      24.54
   0  10  35     902.70      45.43
   0  10  36    9805.16     347.74
   0  12   0   48472.59     646.06
   0  12   1   12402.92     102.21
   0  12   2   44920.58     213.51
   0  12   3     659.04      20.39
   0  12   4   36944.25     414.13
   0  12   5    6741.29      80.57
   0  12   6    1061.38      19.56
   0  12   7    1386.28      36.92
   0  12   8   15056.02     162.23
   0  12   9    1044.91      23.85
   0  12  10   30251.82     320.37
   0  12  11      18.97      15.75
   0  12  12    7345.02     139.85
   0  12  13    3548.65      60.03
   0  12  14   88677.17    1141.84
   0  12  15    4512.84      62.48
   0  12  16   19152.61     325.94
   0  12  17     680.91      21.07
   0  12  18    4864.77      89.29
   0  12  19    4223.65      88.67
   0  12  20   18594.54     333.14
   0  12  21    1702.01      50.83
   0  12  22      47.39      18.73
   0  12  23      90.03      19.16
   0  12  24    7637.01     185.22
   0  12  25      43.74      21.97
   0  12  26   17765.77     441.39
   0  12  27     981.71      33.53
   0  12  28   11482.66     281.62
   0  12  29    1118.09      32.78
   0  12  30    8305.29     176.45
   0  12  31      65.23      22.93
   0  12  32    6583.86     138.49
   0  12  33    2769.96      82.43
   0  14   0    5121.95      49.19
   0  14   1    1581.82      27.46
   0  14   2   20898.77     134.39
   0  14   3     481.10      29.33
   0  14   4    7537.68     140.20
   0  14   5    2817.23      67.34
   0  14   6   26792.45     234.19
   0  14   7     347.10      21.86
   0  14   8   53656.36     632.89
   0  14   9     814.62      20.54
   0  14  10    2852.64      54.50
   0  14  11     118.92      18.83
   0  14  12    8624.16     129.46
   0  14  13    8423.53     155.36
   0  14  14   16515.70     267.91
   0  14  15    5268.70      88.65
   0  14  16    3603.14      47.08
   0  14  17    1361.78      28.22
   0  14  18    3051.10      84.16
   0  14  19     446.12      21.83
   0  14  20   30592.03     594.14
   0  14  21    3179.81      88.55
   0  14  22   14400.21     236.99
   0  14  23    1310.32      52.98
   0  14  24     203.52      22.39
   0  14  25     913.22      31.93
   0  14  26   12432.96     268.00
   0  14  27      93.07      25.33
   0  14  28    1332.05      53.52
   0  14  29     303.99      29.21
   0  14  30     223.39      27.16
   0  16   0    5653.45      77.67
   0  16   1    3531.35      34.76
   0  16   2    7918.05     111.20
   0  16   3      35.25      23.22
   0  16   4   19035.15     328.10
   0  16   5    2269.72      52.84
   0  16   6    6043.19     122.91
   0  16   7    1760.98      57.17
   0  16   8    8450.51      96.04
   0  16   9   11156.07     159.34
   0  16  10   18609.76     276.03
   0  16  11      39.55      19.91
   0  16  12    2862.91      66.52
   0  16  13      25.97      19.77
   0  16  14    6396.70     151.69
   0  16  15     415.08      21.40
   0  16  16    5586.84     114.02
   0  16  17     292.00      22.57
   0  16  18    5960.69     167.12
   0  16  19    5537.43     117.41
   0  16  20    5633.18     155.91
   0  16  21     433.86      24.11
   0  16  22    3073.35      72.05
   0  16  23    4265.84     131.03
   0  16  24    7572.11     166.83
   0  16  25     969.88      31.50
   0  18   0    6063.99     214.68
   0  18   1     223.43      26.04
   0  18   2   11544.35     134.04
   0  18   3     190.64      26.04
   0  18   4    5784.79     140.73
   0  18   5    3950.07      76.12
   0  18   6    1326.58      52.16
   0  18   7     616.03      31.09
   0  18   8    1024.67      32.39
   0  18   9    1201.70      39.82
   0  18  10    5155.74      96.52
   0  18  11    2228.08      55.69
   0  18  12    9802.01     139.36
   0  18  13    1636.28      55.66
   0  18  14    3162.29      60.34
   0  18  15     314.87      22.86
   0  18  16    8836.49     188.29
   0  18  17     145.58      23.79
   0  18  18    4684.32     119.31
   0  18  19      25.30      23.48
   0  20   0    6544.78     202.05
   0  20   1    1244.59      60.41
   0  20   2     418.22      23.97
   0  20   3     718.43      39.70
   0  20   4    1257.02      52.57
   0  20   5     818.52      33.16
   0  20   6    9907.82     234.95
   1   0   0   73146.81     685.54
!   1   0   2    1380.80      21.77
   1   0   4   79346.35    1348.66
   1   0   6   220568.7    2853.36
   1   0   8    3591.80      25.03
   1   0  10   26118.02     267.99
   1   0  12   100344.0     873.31
   1   0  14   43997.21     272.62
   1   0  16    3206.39      40.25
   1   0  18   11753.02     104.01
   1   0  20   12548.44      68.72
   1   0  22   18261.47     159.25
   1   0  24     517.43      23.86
   1   0  26     519.29      22.70
   1   0  28    1797.37      28.63
   1   0  30      74.78      23.89
   1   0  32     695.54      29.48
   1   0  34    1301.49      36.13
   1   0  36    1545.16      64.54
   1   0  38    3681.79     122.32
   1   0  40    3070.41      89.05
   1   1   0    7657.92     109.26
   1   1   1   347895.6    3742.86
   1   1   2   276541.8    2852.68
   1   1   3   163840.1    1748.82
   1   1   4   578355.5    7010.10
   1   1   5   19483.17     176.81
   1   1   6   289734.0    2774.43
   1   1   7    3792.35      15.24
   1   1   8   311823.8    2630.90
   1   1   9   20458.43     196.31
   1   1  10   250694.4    1784.24
   1   1  11   46315.63     287.26
   1   1  12   62984.35     324.76
   1   1  13   36927.89     210.96
   1   1  14   21889.09     125.73
   1   1  15   31772.69     177.94
   1   1  16   63759.62     217.42
   1   1  17   11405.16      51.51
   1   1  18   77969.31     428.02
   1   1  19       7.48       8.42
   1   1  20   47645.26     369.41
   1   1  21    6381.19      53.14
   1   1  22   57558.59     465.27
   1   1  23    4227.14      39.63
   1   1  24   54497.87     388.74
   1   1  25    9618.59      88.13
   1   1  26   14648.34     188.63
   1   1  27    5039.73      70.47
   1   1  28    4462.62      84.30
   1   1  29    6330.09      76.37
   1   1  30   16254.16     231.60
   1   1  31    2864.96      41.74
   1   1  32   15372.96     314.60
   1   1  33      60.19      19.44
   1   1  34    7652.97     159.38
   1   1  35    2775.50      69.14
   1   1  36   13242.48     290.86
   1   1  37    1610.57      25.12
   1   1  38    9612.13     193.69
   1   1  39    3443.32      82.56
   1   1  40    1121.16      38.74
   1   1  41     303.31      21.52
   1   2   0   614625.9    7189.49
   1   2   1   67516.70     648.68
   1   2   2   187887.9    1864.04
   1   2   3    1275.38       6.94
   1   2   4    1181.38      15.07
   1   2   5   58533.33     651.55
   1   2   6   103765.1     702.13
   1   2   7   37139.73     275.38
   1   2   8   77760.89     542.04
   1   2   9      12.02       4.19
   1   2  10   15637.04     103.07
   1   2  11    7104.58      57.38
   1   2  12    5533.85      37.06
   1   2  13   11470.79      54.04
   1   2  14     912.66       9.67
   1   2  15    1961.50      16.30
   1   2  16     114.79       7.49
   1   2  17     895.83       9.57
   1   2  18    7696.87      31.52
   1   2  19    1472.90      12.61
   1   2  20    2085.93      13.32
   1   2  21    1852.86      17.18
   1   2  22     307.13      11.65
   1   2  23     692.20      12.05
   1   2  24   14125.65     130.49
   1   2  25     602.43      15.00
   1   2  26   11302.36     135.55
   1   2  27    1290.59      14.98
   1   2  28    5893.92      79.58
   1   2  29     350.65      14.15
   1   2  30     989.59      16.76
   1   2  31     150.73      14.00
   1   2  32    4522.72      93.44
   1   2  33    1609.30      32.87
   1   2  34    5726.39     108.32
   1   2  35     322.24      16.88
   1   2  36     934.09      28.43
   1   2  37     493.21      18.83
   1   2  38      17.53      18.11
   1   2  39     881.08      27.57
   1   2  40     885.72      27.88
   1   2  41     323.67      19.60
   1   3   0   1276826.   15476.05
   1   3   1    2191.51      27.25
   1   3   2   423644.6    3743.96
   1   3   3    9072.35      95.42
   1   3   4   48241.18     473.50
   1   3   5   16675.58     162.00
   1   3   6   70813.48     573.33
   1   3   7      40.68       7.08
   1   3   8   37623.27     316.27
   1   3   9   12536.31      78.88
   1   3  10   28988.55     205.69
   1   3  11    9108.40      69.12
   1   3  12   168515.1     956.72
   1   3  13    1753.40      15.37
   1   3  14   303510.4    1560.53
   1   3  15      63.92       7.12
   1   3  16   79803.36     371.04
   1   3  17      15.60       7.60
   1   3  18   22369.55     131.79
   1   3  19     411.45       9.27
   1   3  20   39260.30     237.59
   1   3  21     413.31      10.74
   1   3  22    8137.14      75.68
   1   3  23    3997.47      34.48
   1   3  24    6074.71      76.26
   1   3  25    2831.69      26.00
   1   3  26   52253.09     524.23
   1   3  27     166.44      13.84
   1   3  28   69993.20     786.29
   1   3  29     257.74      13.80
   1   3  30   16031.21     229.39
   1   3  31     412.41      14.16
   1   3  32    7000.49     117.53
   1   3  33       7.14      14.43
   1   3  34    7093.87     128.27
   1   3  35      46.23      14.50
   1   3  36     370.68      15.64
   1   3  37     657.63      18.15
   1   3  38    1111.62      38.56
   1   3  39     572.16      20.30
   1   3  40    9405.32     232.27
   1   3  41      29.06      16.84
   1   4   0     486.37      24.50
   1   4   1   81663.26     631.24
   1   4   2   10586.52      87.77
   1   4   3    2860.31      26.13
   1   4   4    3993.11      29.29
   1   4   5   15011.35     128.53
   1   4   6    9841.25      57.28
   1   4   7   41424.67     297.40
   1   4   8      45.76       4.92
   1   4   9   12593.60      90.27
   1   4  10    3172.92      22.40
   1   4  11    4888.10      28.42
   1   4  12   32831.93     132.50
   1   4  13   13215.19      47.64
   1   4  14   16306.97      54.60
   1   4  15    3674.33      17.02
   1   4  16    6205.89      37.73
   1   4  17     714.09       9.50
   1   4  18    4291.70      32.80
   1   4  19   10200.40      51.17
   1   4  20    7908.37      64.76
   1   4  21    3734.18      32.46
   1   4  22    7150.57      65.62
   1   4  23     977.41      15.06
   1   4  24     295.93      12.26
   1   4  25    5792.83      67.47
   1   4  26     327.22      13.39
   1   4  27    5161.49      59.69
   1   4  28      26.07      13.08
   1   4  29     225.00      13.75
   1   4  30     460.86      14.49
   1   4  31    2437.50      44.66
   1   4  32      90.89      14.34
   1   4  33    2731.77      57.99
   1   4  34     260.10      16.97
   1   4  35     843.11      20.93
   1   4  36    1256.45      35.14
   1   4  37      46.90      16.10
   1   4  38     779.55      29.44
   1   4  39    1134.20      40.39
   1   4  40     778.44      29.61
   1   5   0   35448.19     239.02
   1   5   1   15637.62     106.38
   1   5   2   93155.14     734.52
   1   5   3   98730.16     857.18
   1   5   4   127450.1    1037.44
   1   5   5     111.64       5.20
   1   5   6   192831.4    1376.07
   1   5   7      11.80       5.63
   1   5   8   196400.5    1405.15
   1   5   9    2520.57      45.37
   1   5  10   75113.73     374.25
   1   5  11   63679.47     286.17
   1   5  12   51056.05     232.34
   1   5  13    4601.64      25.10
   1   5  14   29447.75     136.39
   1   5  15   11723.23      83.10
   1   5  16   31212.52     184.57
   1   5  17   10735.60      61.26
   1   5  18   45076.38     291.99
   1   5  19       4.24       9.14
   1   5  20   61395.93     519.48
   1   5  21     705.81      12.58
   1   5  22   53430.19     466.92
   1   5  23    1244.80      14.13
   1   5  24   22256.92     255.59
   1   5  25   26200.95     295.70
   1   5  26   16878.12     189.41
   1   5  27     382.58      15.40
   1   5  28    7403.54      98.84
   1   5  29    5226.87      60.38
   1   5  30    6729.73      89.50
   1   5  31     546.21      14.67
   1   5  32   12773.22     150.79
   1   5  33     650.95      17.35
   1   5  34   13596.78     215.21
   1   5  35     292.80      15.88
   1   5  36   12013.70     231.72
   1   5  37      19.34      16.08
   1   5  38    4740.24     101.84
   1   5  39    5185.40      99.95
   1   5  40    2012.43      62.64
   1   6   0   11093.77     106.51
   1   6   1   15574.35      71.67
   1   6   2    4991.68      35.90
   1   6   3     163.74       8.45
   1   6   4    4675.27      25.44
   1   6   5   15930.24      70.93
   1   6   6     614.23       7.33
   1   6   7   22688.33     119.75
   1   6   8     110.09       6.53
   1   6   9    2443.20      12.19
   1   6  10    6701.94      33.94
   1   6  11    8466.75      46.01
   1   6  12    7027.16      44.99
   1   6  13   27202.59     139.80
   1   6  14    9200.23      60.14
   1   6  15   11510.32      73.00
   1   6  16    1122.18      11.07
   1   6  17     590.64      10.40
   1   6  18      27.77       9.47
   1   6  19   12206.17     104.19
   1   6  20    5802.38      43.39
   1   6  21    8878.14      83.37
   1   6  22    1210.65      20.91
   1   6  23     210.81      11.80
   1   6  24    2427.29      41.79
   1   6  25    2537.15      35.08
   1   6  26     498.59      15.18
   1   6  27    2411.39      43.78
   1   6  28     561.30      14.92
   1   6  29      19.71      13.78
   1   6  30      15.36      13.65
   1   6  31    1135.39      31.29
   1   6  32      52.14      14.12
   1   6  33    1291.99      31.32
   1   6  34    1646.22      43.21
   1   6  35      60.69      15.09
   1   6  36     382.15      19.86
   1   6  37     700.57      27.02
   1   6  38     577.20      20.15
   1   6  39    1545.49      50.12
   1   7   0   15868.71     109.97
   1   7   1    1105.21      10.93
   1   7   2   59556.26     400.44
   1   7   3   34266.44     161.16
   1   7   4   160050.8    1088.85
   1   7   5    4807.93      26.65
   1   7   6   56457.53     336.98
   1   7   7      18.27       6.80
   1   7   8   56072.59     321.43
   1   7   9    2634.41      40.03
   1   7  10   142671.6     856.45
   1   7  11   29775.63     207.41
   1   7  12   30063.87     188.60
   1   7  13      83.60       8.50
   1   7  14   10448.45      92.22
   1   7  15     232.09      11.25
   1   7  16   45169.10     348.28
   1   7  17    7976.62      77.42
   1   7  18   54862.89     505.54
   1   7  19    5007.16      65.29
   1   7  20   19427.97     211.86
   1   7  21     555.69      12.79
   1   7  22   27275.27     318.05
   1   7  23     447.99      12.74
   1   7  24   53368.79     636.72
   1   7  25   10000.36     108.34
   1   7  26    6283.74      94.70
   1   7  27     461.46      13.72
   1   7  28    2938.05      57.92
   1   7  29     647.93      16.44
   1   7  30   17096.29     218.66
   1   7  31    1808.34      39.54
   1   7  32    9572.25     193.33
   1   7  33    1980.18      46.16
   1   7  34    4337.31      85.31
   1   7  35      84.43      15.86
   1   7  36    8340.67     160.76
   1   7  37     248.80      17.03
   1   7  38    9636.57     169.12
   1   7  39    2824.05      77.59
   1   8   0   14111.81      71.10
   1   8   1   22277.24      85.72
   1   8   2   17078.84      95.08
   1   8   3    2359.89      18.59
   1   8   4      71.40       8.04
   1   8   5    7113.20      37.33
   1   8   6    2444.24      20.96
   1   8   7   11087.11      52.61
   1   8   8   10752.17      66.51
   1   8   9    1794.43      16.78
   1   8  10    2574.36      18.11
   1   8  11     101.50       8.42
   1   8  12    1066.82      13.01
   1   8  13    1359.26      17.13
   1   8  14     788.21      11.29
   1   8  15     138.93      10.37
   1   8  16     734.22      11.70
   1   8  17     974.27      12.22
   1   8  18     677.02      12.89
   1   8  19    1050.22      21.94
   1   8  20    1099.21      14.32
   1   8  21     393.09      12.31
   1   8  22     936.10      17.62
   1   8  23     211.47      13.12
   1   8  24    3583.16      56.96
   1   8  25    3553.25      60.07
   1   8  26    6639.09     125.58
   1   8  27    3368.91      67.62
   1   8  28     561.45      17.12
   1   8  29     466.05      15.57
   1   8  30      43.47      14.26
   1   8  31     681.90      19.81
   1   8  32    2379.80      55.10
   1   8  33    3205.09      72.60
   1   8  34    1550.01      41.95
   1   8  35    1331.00      28.34
   1   8  36     658.55      20.46
   1   8  37      43.64      16.72
   1   8  38      35.69      17.21
   1   9   0   128306.0     973.74
   1   9   1   11875.20      54.45
   1   9   2   94344.62     661.62
   1   9   3     263.44       9.57
   1   9   4   22803.62     120.24
   1   9   5    8725.57      56.49
   1   9   6   23118.52     122.58
   1   9   7     884.02      10.16
   1   9   8   20838.87     147.07
   1   9   9    2805.19      23.29
   1   9  10   14565.73      99.39
   1   9  11      52.12       9.33
   1   9  12   74756.24     606.35
   1   9  13    4343.25      44.97
   1   9  14   76468.47     547.42
   1   9  15    5601.80      66.79
   1   9  16   46170.74     453.83
   1   9  17     536.59      12.57
   1   9  18   17414.68     161.00
   1   9  19    5744.92      73.21
   1   9  20    9074.97     134.77
   1   9  21    1976.42      37.03
   1   9  22    7875.83     102.41
   1   9  23     371.04      13.97
   1   9  24    4675.21      82.20
   1   9  25     167.98      14.22
   1   9  26   28211.94     336.33
   1   9  27     716.34      15.18
   1   9  28   28834.57     294.75
   1   9  29    1417.34      38.49
   1   9  30   11818.91     235.22
   1   9  31     262.46      15.16
   1   9  32    5466.70     101.14
   1   9  33    2406.49      58.57
   1   9  34    1507.54      37.90
   1   9  35    1424.82      33.69
   1   9  36     814.07      28.18
   1   9  37      11.28      17.07
   1  10   0    1124.67      19.69
   1  10   1      46.09      10.56
   1  10   2     571.77      10.86
   1  10   3    1278.33      12.66
   1  10   4    7131.92      46.83
   1  10   5    1084.60      11.87
   1  10   6    6705.18      61.51
   1  10   7     387.49      10.15
   1  10   8    1536.24      18.53
   1  10   9     273.35       9.75
   1  10  10    6276.75      53.91
   1  10  11    4048.59      33.88
   1  10  12   10482.53      88.75
   1  10  13    3448.35      28.24
   1  10  14   11336.84      84.08
   1  10  15    1114.26      15.57
   1  10  16     183.00      11.30
   1  10  17      43.35      11.36
   1  10  18     786.36      13.41
   1  10  19    1101.65      19.43
   1  10  20    5919.70      95.53
   1  10  21    1435.40      17.89
   1  10  22    2739.37      62.37
   1  10  23     593.65      16.61
   1  10  24     640.82      15.20
   1  10  25     191.20      15.49
   1  10  26     799.22      23.54
   1  10  27      43.47      14.43
   1  10  28     303.63      14.61
   1  10  29      31.26      14.26
   1  10  30      37.92      14.55
   1  10  31      26.61      15.00
   1  10  32     962.25      29.58
   1  10  33       0.75      15.78
   1  10  34     235.53      16.39
   1  10  35      45.54      16.43
   1  10  36     144.14      16.78
   1  11   0   49307.92     423.74
   1  11   1    8878.56      59.37
   1  11   2   11408.13      77.98
   1  11   3    3439.11      24.73
   1  11   4   22992.48     145.86
   1  11   5     152.12      11.23
   1  11   6   74448.23     532.34
   1  11   7     292.86      11.17
   1  11   8   52493.61     447.76
   1  11   9     376.71      12.62
   1  11  10   20477.45     174.47
   1  11  11    2968.68      38.62
   1  11  12   12830.60     120.17
   1  11  13    5578.18      50.74
   1  11  14   27807.12     221.04
   1  11  15    6352.59      51.83
   1  11  16    5868.72      69.54
   1  11  17    2122.86      36.35
   1  11  18   12973.06     110.18
   1  11  19      14.67      12.71
   1  11  20   41730.78     549.20
   1  11  21    1767.70      29.08
   1  11  22   18816.43     268.96
   1  11  23     631.93      23.73
   1  11  24    8422.69     139.28
   1  11  25    2295.29      55.10
   1  11  26    5448.41     106.23
   1  11  27     871.19      27.76
   1  11  28    7261.27     152.78
   1  11  29    1582.40      32.90
   1  11  30    1263.77      27.29
   1  11  31     820.70      19.12
   1  11  32    3177.40      72.07
   1  11  33       6.93      16.57
   1  11  34   13811.35     141.92
   1  11  35     857.79      27.06
   1  12   0   11590.61     110.83
   1  12   1     278.39      12.44
   1  12   2    7094.82      55.48
   1  12   3    1118.98      14.23
   1  12   4     273.35      12.16
   1  12   5    1055.75      13.56
   1  12   6    2460.09      26.40
   1  12   7      18.34      11.34
   1  12   8    7836.67      82.79
   1  12   9    1249.05      15.39
   1  12  10     267.51      11.51
   1  12  11    2751.33      29.98
   1  12  12     140.79      11.59
   1  12  13    1471.22      19.86
   1  12  14     940.04      13.46
   1  12  15     326.77      12.29
   1  12  16     106.94      12.01
   1  12  17      28.39      13.02
   1  12  18     716.01      14.27
   1  12  19     102.47      12.82
   1  12  20    2260.19      42.24
   1  12  21     611.36      15.42
   1  12  22     180.61      13.91
   1  12  23     936.34      19.94
   1  12  24    1496.57      32.05
   1  12  25     525.12      17.09
   1  12  26    4050.52      83.50
   1  12  27       9.24      16.31
   1  12  28    1068.99      35.72
   1  12  29      46.53      16.39
   1  12  30      55.42      15.92
   1  12  31      14.68      15.37
   1  12  32    2017.97      47.52
   1  12  33      14.30      16.51
   1  13   0    3327.47      38.74
   1  13   1     356.24      14.27
   1  13   2   26970.00     204.75
   1  13   3     882.08      15.27
   1  13   4   32366.21     257.70
   1  13   5    7567.56      90.30
   1  13   6   15712.98     149.62
   1  13   7       0.00      12.24
   1  13   8   19826.94     157.26
   1  13   9    8672.11      59.27
   1  13  10   27891.53     225.39
   1  13  11     317.26      12.98
   1  13  12   18968.63     182.49
   1  13  13     740.37      14.05
   1  13  14    1771.29      32.87
   1  13  15       0.00      12.53
   1  13  16   19114.25     197.19
   1  13  17    1681.19      34.61
   1  13  18   18963.41     247.76
   1  13  19    3362.58      56.08
   1  13  20    3967.13      46.90
   1  13  21      18.20      13.88
   1  13  22   13485.40     179.84
   1  13  23    4299.49      68.56
   1  13  24   11647.61     179.22
   1  13  25     127.29      16.18
   1  13  26    4111.14      84.61
   1  13  27     574.56      20.44
   1  13  28    1246.21      43.44
   1  13  29      30.90      17.54
   1  13  30    5330.32     119.42
   1  13  31    1378.29      50.97
   1  14   0      81.60      20.02
   1  14   1    4656.39      48.63
   1  14   2      45.02      14.13
   1  14   3     776.22      15.14
   1  14   4     657.97      14.86
   1  14   5     151.98      13.15
   1  14   6     546.42      14.65
   1  14   7    1959.12      30.90
   1  14   8     750.02      15.30
   1  14   9    1977.06      31.49
   1  14  10     507.03      13.28
   1  14  11     165.97      12.66
   1  14  12    1998.90      38.47
   1  14  13      32.11      12.65
   1  14  14    5037.49      73.17
   1  14  15      22.58      13.30
   1  14  16     214.27      13.91
   1  14  17     111.20      13.54
   1  14  18     503.93      14.93
   1  14  19     564.60      15.37
   1  14  20    2696.28      48.92
   1  14  21      32.44      14.40
   1  14  22     571.91      19.07
   1  14  23     743.41      19.40
   1  14  24      25.38      15.60
   1  14  25    1517.56      42.25
   1  14  26     441.16      18.70
   1  14  27    1139.89      36.11
   1  14  28      10.07      17.39
   1  14  29      42.38      18.21
   1  14  30      64.48      18.45
   1  15   0   28455.69     461.36
   1  15   1     279.16      16.26
   1  15   2   16619.02     146.98
   1  15   3     205.66      15.07
   1  15   4   15635.77     113.67
   1  15   5    3478.16      56.18
   1  15   6    3488.12      47.01
   1  15   7      21.12      13.83
   1  15   8    1889.21      38.18
   1  15   9    3346.19      54.45
   1  15  10   15315.99     142.05
   1  15  11     940.60      16.92
   1  15  12   12102.62     130.81
   1  15  13     102.60      14.14
   1  15  14   17721.47     226.53
   1  15  15     500.86      20.61
   1  15  16   14178.44     159.29
   1  15  17      86.95      14.25
   1  15  18    7590.70      99.10
   1  15  19    1697.88      26.32
   1  15  20    1504.23      30.54
   1  15  21      83.25      15.02
   1  15  22     736.64      17.26
   1  15  23    1211.43      31.63
   1  15  24    6418.70     114.29
   1  15  25     763.60      24.11
   1  15  26    3982.33      74.04
   1  15  27      25.04      17.30
   1  16   0     623.25      24.60
   1  16   1       0.00      17.33
   1  16   2     908.04      19.30
   1  16   3      85.10      15.85
   1  16   4      56.48      15.47
   1  16   5     951.55      18.11
   1  16   6      76.80      14.11
   1  16   7     831.47      24.21
   1  16   8     403.25      15.06
   1  16   9      13.14      13.41
   1  16  10      12.60      14.19
   1  16  11    1478.12      27.76
   1  16  12     179.63      14.19
   1  16  13    4420.41      63.87
   1  16  14      14.71      14.67
   1  16  15    2118.95      44.45
   1  16  16     156.18      15.03
   1  16  17      83.92      14.56
   1  16  18      13.41      15.16
   1  16  19    1645.02      43.27
   1  16  20       7.65      14.88
   1  16  21    1805.47      37.01
   1  16  22     114.34      15.82
   1  16  23     305.16      16.85
   1  16  24      55.42      15.68
   1  16  25     128.65      16.51
   1  17   0    6887.72      78.20
   1  17   1       0.00      15.06
   1  17   2    4915.72      56.84
   1  17   3     855.14      21.54
   1  17   4    2357.23      49.80
   1  17   5     395.84      16.08
   1  17   6   18651.45     207.01
   1  17   7       0.00      15.15
   1  17   8   16521.72     190.50
   1  17   9     215.02      15.73
   1  17  10    1259.10      26.57
   1  17  11     820.03      27.23
   1  17  12    6148.59      91.53
   1  17  13       8.00      15.11
   1  17  14    4286.25      64.69
   1  17  15       0.33      15.31
   1  17  16    1558.58      31.97
   1  17  17     536.56      16.33
   1  17  18    2788.92      54.75
   1  17  19     631.43      17.27
   1  17  20    9683.54     147.39
   1  17  21      20.49      16.63
   1  17  22    7566.70     130.11
   1  18   0     232.42      22.92
   1  18   1    2927.57      46.60
   1  18   2      54.49      15.74
   1  18   3     307.44      17.65
   1  18   4     133.71      15.87
   1  18   5     421.04      19.72
   1  18   6     150.43      16.21
   1  18   7    1246.29      42.23
   1  18   8      29.13      15.23
   1  18   9     550.66      21.05
   1  18  10     293.23      16.12
   1  18  11      13.96      15.10
   1  18  12      31.44      15.25
   1  18  13      15.47      15.02
   1  18  14      14.90      16.12
   1  18  15      29.40      15.61
   1  18  16      33.81      15.63
   1  18  17     115.07      16.07
   1  18  18     158.20      16.04
   1  19   0    4346.37     115.46
   1  19   1     327.71      17.83
   1  19   2    2434.12      49.72
   1  19   3     366.96      17.43
   1  19   4    5535.66      78.45
   1  19   5    2331.33      53.36
   1  19   6    3863.96      67.17
   1  19   7      83.26      16.96
   1  19   8    3059.04      63.30
   1  19   9    1600.11      37.14
   1  19  10    5415.17      92.67
   1  19  11     140.70      16.70
   1  19  12    1779.40      41.02
   1  19  13      17.32      15.74
   1  19  14    2772.34      59.17
   1  20   0     447.39      32.29
   1  20   1      12.71      17.37
   1  20   2      24.66      16.87
   1  20   3     151.89      19.35
   1  20   4      64.61      17.03
   1  20   5     258.53      18.59
   2   0   0   315990.3    4068.13
   2   0   2   1048195.   12705.51
   2   0   4   74614.63    1194.12
   2   0   6    1724.76      17.70
   2   0   8   210260.1    2389.80
   2   0  10   13078.07     191.38
   2   0  12   99946.62     941.85
   2   0  14   411771.2    3228.67
   2   0  16   78046.36     712.06
   2   0  18    5236.39      86.79
   2   0  20   75223.14     883.16
   2   0  22    7829.62     119.69
   2   0  24      68.54      19.87
   2   0  26   108876.4    1762.97
   2   0  28   36305.46     638.16
   2   0  30   10638.91     200.59
   2   0  32   20671.16     383.09
   2   0  34     426.78      31.36
   2   0  36    1573.39      58.97
   2   0  38    2504.95     118.27
   2   0  40    5151.25     173.99
   2   1   0     188.24       7.40
   2   1   1   23768.70     197.34
   2   1   2   12132.37      57.81
   2   1   3   11949.00     118.36
   2   1   4   13403.70     110.67
   2   1   5   27724.53     243.93
   2   1   6    1112.26      18.52
   2   1   7      86.00       3.37
   2   1   8     884.38       6.63
   2   1   9   26953.64     232.54
   2   1  10    8426.28      68.31
   2   1  11   12703.62      77.53
   2   1  12     540.60       6.97
   2   1  13    9205.65      50.98
   2   1  14    2181.05      15.20
   2   1  15    1974.71      13.90
   2   1  16    3035.10      27.09
   2   1  17      45.09       7.35
   2   1  18    1154.57      11.30
   2   1  19     187.56       8.97
   2   1  20     258.71       9.91
   2   1  21    1985.37      21.25
   2   1  22      71.67      10.86
   2   1  23    9764.20      96.81
   2   1  24    1815.21      16.04
   2   1  25    4337.51      62.37
   2   1  26     783.29      16.11
   2   1  27    1133.78      30.91
   2   1  28      93.52      14.91
   2   1  29      62.98      14.81
   2   1  30    1039.17      19.93
   2   1  31    1026.55      35.75
   2   1  32     528.05      19.04
   2   1  33     119.53      20.02
   2   1  34      39.64      19.33
   2   1  35     508.37      20.31
   2   1  36      69.40      19.28
   2   1  37    1713.57      56.49
   2   1  38     639.47      28.70
   2   1  39     525.31      20.64
   2   1  40      12.89      19.14
   2   1  41      51.95      18.74
   2   2   0     208.26      13.69
   2   2   1   12435.90     120.62
   2   2   2   186041.7    1257.21
   2   2   3   143927.4    1221.01
   2   2   4   396589.4    3210.93
   2   2   5   17356.03     179.53
   2   2   6   73450.72     522.69
   2   2   7    8704.13      79.65
   2   2   8   328241.6    2565.85
   2   2   9     232.86       6.04
   2   2  10   205753.9    1465.82
   2   2  11   33817.72     182.94
   2   2  12    2376.05      24.82
   2   2  13   38779.82     252.10
   2   2  14   101991.7     446.63
   2   2  15   30957.90     163.93
   2   2  16   28665.60     180.01
   2   2  17   15326.93      90.22
   2   2  18   29461.31     176.35
   2   2  19    2714.84      22.39
   2   2  20   120529.3     810.36
   2   2  21    7608.53      68.57
   2   2  22   25880.92     220.29
   2   2  23      18.69       9.66
   2   2  24   36697.53     400.94
   2   2  25   28819.39     297.52
   2   2  26   24390.32     288.91
   2   2  27      21.12      12.78
   2   2  28    2800.00      56.36
   2   2  29    4530.18      74.72
   2   2  30    8783.17     151.13
   2   2  31     218.66      15.38
   2   2  32   21279.24     249.59
   2   2  33    1775.92      40.24
   2   2  34    6533.12     105.12
   2   2  35     353.62      15.93
   2   2  36    7863.80     143.95
   2   2  37     713.16      18.94
   2   2  38   14898.10     271.48
   2   2  39    2074.99      59.48
   2   2  40      21.00      17.77
   2   2  41     758.43      34.86
   2   3   0     348.21      31.05
   2   3   1   43528.01     340.93
   2   3   2    4427.62      30.44
   2   3   3   10126.83      76.48
   2   3   4      43.99       2.90
   2   3   5      13.45       2.95
   2   3   6    8852.27      57.01
   2   3   7    3223.40      21.60
   2   3   8   22392.28     166.08
   2   3   9    4711.56      24.16
   2   3  10     495.70      13.66
   2   3  11    5502.18      44.63
   2   3  12     633.20       7.04
   2   3  13    8204.02      40.18
   2   3  14    2641.03      16.21
   2   3  15    5361.50      30.11
   2   3  16      13.48       7.28
   2   3  17     367.83       8.50
   2   3  18      82.28       8.33
   2   3  19     987.93      11.14
   2   3  20    6604.71      50.41
   2   3  21    2995.06      36.38
   2   3  22    2712.52      23.40
   2   3  23    3356.26      41.21
   2   3  24     333.81      11.43
   2   3  25    2687.00      43.61
   2   3  26    1621.46      26.79
   2   3  27    1912.12      28.89
   2   3  28     218.99      12.95
   2   3  29     385.75      13.86
   2   3  30      94.94      12.80
   2   3  31     296.51      13.81
   2   3  32     589.51      15.03
   2   3  33    1797.63      39.02
   2   3  34     844.66      28.37
   2   3  35    1725.83      53.51
   2   3  36     527.98      20.22
   2   3  37     645.65      20.27
   2   3  38       0.00      15.77
   2   3  39      70.27      16.95
   2   3  40     101.92      16.90
   2   4   0    4396.78      45.47
   2   4   1   138439.0    1042.44
   2   4   2   208366.9    1523.41
   2   4   3   44840.34     297.57
   2   4   4   229378.2    1846.63
   2   4   5    5784.23      54.99
   2   4   6   58557.86     425.24
   2   4   7   39449.11     218.39
   2   4   8   184424.8    1085.31
   2   4   9   17309.56     111.95
   2   4  10   130728.5     875.85
   2   4  11   71557.57     464.10
   2   4  12   45132.31     257.78
   2   4  13    2937.59      20.51
   2   4  14   14968.83      82.68
   2   4  15      33.27       7.24
   2   4  16   60034.51     427.41
   2   4  17    4966.47      44.02
   2   4  18   51206.18     333.13
   2   4  19   16186.29     127.44
   2   4  20   34157.44     268.10
   2   4  21    2696.49      27.65
   2   4  22   46926.95     474.43
   2   4  23     877.02      13.10
   2   4  24   31646.00     292.48
   2   4  25    2801.72      36.66
   2   4  26   23544.63     271.15
   2   4  27    9184.96     126.81
   2   4  28     887.40      25.56
   2   4  29    4094.95      81.70
   2   4  30   14721.54     198.43
   2   4  31    5869.65      90.64
   2   4  32   19533.33     358.28
   2   4  33     464.34      16.56
   2   4  34    1510.45      35.24
   2   4  35    1247.70      31.83
   2   4  36   14515.70     267.88
   2   4  37      35.86      16.31
   2   4  38    9359.79     207.72
   2   4  39    7337.93     185.44
   2   4  40     434.58      19.21
   2   5   0   14659.86     119.48
   2   5   1   15710.78     121.67
   2   5   2     368.60       6.54
   2   5   3    7267.78      46.24
   2   5   4    2367.18      16.19
   2   5   5     705.57       7.41
   2   5   6    1014.09       8.45
   2   5   7     215.25       5.88
   2   5   8      64.70       5.30
   2   5   9      11.06       5.53
   2   5  10    2918.51      29.05
   2   5  11    7534.40      40.65
   2   5  12     219.38       7.32
   2   5  13   12575.58      88.46
   2   5  14    6339.85      72.98
   2   5  15    8591.63      45.43
   2   5  16     460.37       9.03
   2   5  17     744.16      10.01
   2   5  18     311.96       9.33
   2   5  19    6018.64      56.17
   2   5  20    1550.91      16.65
   2   5  21    5578.50      48.31
   2   5  22      19.08      10.41
   2   5  23     753.83      14.24
   2   5  24    1231.16      17.30
   2   5  25     975.13      19.52
   2   5  26     307.73      12.27
   2   5  27     635.55      13.66
   2   5  28     959.01      21.06
   2   5  29     524.52      14.60
   2   5  30     348.05      15.55
   2   5  31      43.36      13.74
   2   5  32      52.76      14.19
   2   5  33    1849.87      44.89
   2   5  34     342.16      16.16
   2   5  35    1813.62      45.50
   2   5  36       0.44      15.69
   2   5  37     263.57      17.02
   2   5  38     289.48      16.89
   2   5  39     204.74      17.33
   2   6   0   383273.0    3596.43
   2   6   1   51195.31     300.60
   2   6   2   101358.1     535.63
   2   6   3     732.16       8.07
   2   6   4   37667.66     215.31
   2   6   5   36417.79     228.78
   2   6   6   41744.17     249.49
   2   6   7   22968.32     117.56
   2   6   8   16651.41     105.21
   2   6   9     136.20       9.24
   2   6  10   32409.06     189.89
   2   6  11    6555.38      46.11
   2   6  12   77167.50     527.96
   2   6  13    4141.79      48.07
   2   6  14   168453.6    1105.30
   2   6  15      36.21       8.97
   2   6  16   48204.92     436.11
   2   6  17    1922.02      19.55
   2   6  18   20272.87     163.82
   2   6  19     420.33      10.68
   2   6  20   22584.99     223.51
   2   6  21    1049.97      12.54
   2   6  22    4182.48      56.28
   2   6  23     491.56      12.94
   2   6  24   11300.85     156.71
   2   6  25    1412.23      30.37
   2   6  26   24577.40     284.24
   2   6  27    5608.54      94.28
   2   6  28   49384.06     707.49
   2   6  29    2022.71      46.45
   2   6  30   14240.77     262.70
   2   6  31     457.17      16.64
   2   6  32    3523.11      84.08
   2   6  33    6751.24     126.33
   2   6  34    5984.82     138.08
   2   6  35    2437.99      57.12
   2   6  36      82.35      15.70
   2   6  37     591.09      23.96
   2   6  38    1308.90      49.90
   2   6  39    2508.51      68.40
   2   7   0    2321.90      70.38
   2   7   1    9408.55      58.61
   2   7   2    8525.25      56.89
   2   7   3    7559.18      43.98
   2   7   4    2536.16      16.54
   2   7   5     135.74       6.16
   2   7   6      40.03       6.10
   2   7   7    1567.57      18.18
   2   7   8     885.22      10.03
   2   7   9    1930.05      13.17
   2   7  10    1215.53      10.74
   2   7  11    6863.98      43.78
   2   7  12    4514.08      33.80
   2   7  13    2412.75      21.45
   2   7  14     609.52      10.19
   2   7  15    1019.25      13.77
   2   7  16    4117.72      48.49
   2   7  17     908.78      13.46
   2   7  18    2120.62      26.90
   2   7  19     477.06      12.65
   2   7  20     637.85      11.88
   2   7  21    1181.86      17.92
   2   7  22    1275.54      20.29
   2   7  23    1349.79      25.76
   2   7  24     429.89      12.65
   2   7  25    3396.35      71.49
   2   7  26     815.12      15.58
   2   7  27    1109.51      20.95
   2   7  28      24.84      13.26
   2   7  29      44.16      14.32
   2   7  30     981.22      23.76
   2   7  31      41.48      14.87
   2   7  32     694.03      16.42
   2   7  33    1507.24      40.09
   2   7  34     455.67      18.59
   2   7  35    1067.17      32.36
   2   7  36     503.04      20.03
   2   7  37     185.26      16.77
   2   7  38     113.24      16.61
   2   8   0   59173.09     457.24
   2   8   1    1971.37      31.80
   2   8   2   27501.72     133.99
   2   8   3   14382.11      94.59
   2   8   4   27592.65     102.62
   2   8   5    4289.07      34.64
   2   8   6   149544.6     799.55
   2   8   7    3944.25      41.12
   2   8   8   70155.34     427.00
   2   8   9     623.30      10.25
   2   8  10   21673.13     178.39
   2   8  11    3766.95      28.77
   2   8  12   59954.73     504.94
   2   8  13   25579.59     256.89
   2   8  14    7788.04      65.31
   2   8  15   21786.63     195.01
   2   8  16   20845.66     233.48
   2   8  17    6312.23      68.80
   2   8  18   34347.82     365.79
   2   8  19    4082.03      68.52
   2   8  20   26021.31     259.78
   2   8  21    8216.67      75.89
   2   8  22   45219.07     673.56
   2   8  23     280.19      12.82
   2   8  24   11592.00     152.86
   2   8  25   13094.01     194.03
   2   8  26    6580.11     135.69
   2   8  27      42.08      13.69
   2   8  28    9610.66     149.91
   2   8  29    2259.26      43.55
   2   8  30    3665.47      64.94
   2   8  31      48.65      15.63
   2   8  32    3884.55     101.01
   2   8  33    1311.01      35.89
   2   8  34   13118.77     226.21
   2   8  35     403.33      17.22
   2   8  36    8753.38     164.01
   2   8  37     952.57      37.51
   2   9   0    5820.62      35.22
   2   9   1     650.09      10.01
   2   9   2     703.05      12.22
   2   9   3    3743.10      22.34
   2   9   4    1685.78      12.55
   2   9   5    3142.71      26.28
   2   9   6    3656.78      27.20
   2   9   7      10.05       8.68
   2   9   8     550.79      10.49
   2   9   9    4462.54      40.03
   2   9  10    2772.35      24.76
   2   9  11    7341.73      63.55
   2   9  12     309.09       9.64
   2   9  13    2358.61      35.10
   2   9  14    2144.52      21.85
   2   9  15     226.30      11.09
   2   9  16      54.81      10.45
   2   9  17     110.88      10.91
   2   9  18     381.27      12.13
   2   9  19       8.60      12.49
   2   9  20    2880.04      46.92
   2   9  21     866.50      16.27
   2   9  22      61.08      12.52
   2   9  23    2838.29      68.26
   2   9  24    1307.06      28.70
   2   9  25    2265.22      50.05
   2   9  26     108.89      13.28
   2   9  27     127.03      13.53
   2   9  28     455.74      14.88
   2   9  29     190.65      14.23
   2   9  30      49.27      14.52
   2   9  31     112.43      14.90
   2   9  32      13.65      15.40
   2   9  33       9.85      15.50
   2   9  34    1505.73      49.97
   2   9  35     137.13      16.55
   2   9  36      13.63      16.52
   2  10   0   38889.71     424.44
   2  10   1    5537.01      45.59
   2  10   2   14291.42      98.66
   2  10   3    2696.93      29.45
   2  10   4   61370.47     527.46
   2  10   5    4061.21      38.77
   2  10   6   54828.13     380.76
   2  10   7    1096.39      12.31
   2  10   8   10003.19      73.22
   2  10   9   10643.83      64.84
   2  10  10   71771.01     556.07
   2  10  11    3432.79      34.27
   2  10  12   32763.13     362.06
   2  10  13     404.75      10.77
   2  10  14     878.94      15.67
   2  10  15      78.33      10.77
   2  10  16   29880.73     363.56
   2  10  17    2427.52      52.77
   2  10  18   44459.25     653.04
   2  10  19    5763.60     106.00
   2  10  20    2401.91      47.48
   2  10  21     120.54      13.66
   2  10  22   19494.29     280.72
   2  10  23    4253.36      59.47
   2  10  24   38814.26     686.86
   2  10  25     294.37      14.85
   2  10  26     144.14      14.22
   2  10  27    2213.21      55.16
   2  10  28    6169.46     113.94
   2  10  29     132.66      14.89
   2  10  30   11262.22     206.40
   2  10  31    2570.05      67.96
   2  10  32    1436.72      38.38
   2  10  33     287.94      16.41
   2  10  34    6821.17     167.99
   2  10  35     103.58      16.05
   2  11   0     622.89      29.11
   2  11   1    1972.94      19.16
   2  11   2    2941.95      18.69
   2  11   3    1078.45      15.25
   2  11   4     477.13      12.09
   2  11   5    1155.68      15.26
   2  11   6    1717.50      18.72
   2  11   7     302.80      10.45
   2  11   8    1601.87      17.20
   2  11   9    3623.90      43.76
   2  11  10    1280.81      17.12
   2  11  11    1769.61      21.88
   2  11  12    5207.05      53.80
   2  11  13     890.35      16.35
   2  11  14      94.18      10.89
   2  11  15     171.72      11.67
   2  11  16     810.24      16.16
   2  11  17      34.13      11.48
   2  11  18     133.57      12.61
   2  11  19     196.93      12.55
   2  11  20       6.29      13.02
   2  11  21     192.89      13.93
   2  11  22    1582.90      24.84
   2  11  23    2002.77      44.77
   2  11  24     525.66      16.43
   2  11  25    1058.30      34.54
   2  11  26    1182.67      26.55
   2  11  27     450.55      16.23
   2  11  28     466.59      20.81
   2  11  29      32.15      15.34
   2  11  30      16.36      16.44
   2  11  31     308.53      16.40
   2  11  32     123.08      15.61
   2  11  33      75.84      16.65
   2  11  34      23.43      16.08
   2  12   0   74791.82    1260.95
   2  12   1     147.59      15.42
   2  12   2   30570.81     332.57
   2  12   3     700.93      14.00
   2  12   4   11067.57     107.92
   2  12   5    4826.42      54.19
   2  12   6   24628.84     241.34
   2  12   7     110.87      11.81
   2  12   8    2357.27      25.54
   2  12   9    7013.18      70.21
   2  12  10   10537.75     115.01
   2  12  11    1712.36      24.28
   2  12  12   57815.04     585.26
   2  12  13     452.64      13.44
   2  12  14   14949.15     134.16
   2  12  15    1287.94      28.22
   2  12  16   31353.24     347.20
   2  12  17      66.51      13.00
   2  12  18   19956.04     257.30
   2  12  19    3711.73      52.18
   2  12  20      46.05      12.71
   2  12  21     315.74      14.11
   2  12  22    6893.04     122.63
   2  12  23    2314.64      54.03
   2  12  24    6660.71     108.67
   2  12  25    2161.01      52.09
   2  12  26    5246.77     112.66
   2  12  27      83.20      16.10
   2  12  28   17806.54     332.15
   2  12  29     473.87      18.14
   2  12  30    9899.02     203.42
   2  12  31     774.38      24.74
   2  12  32     848.96      24.12
   2  12  33     218.82      18.00
   2  13   0    2623.29      47.83
   2  13   1    2361.41      31.02
   2  13   2     144.28      12.43
   2  13   3      82.04      12.82
   2  13   4    2596.80      31.24
   2  13   5      29.12      12.36
   2  13   6     123.13      12.20
   2  13   7     120.57      12.47
   2  13   8     398.97      12.04
   2  13   9     335.93      12.35
   2  13  10    4370.21      47.37
   2  13  11     196.12      12.01
   2  13  12      75.61      12.01
   2  13  13    1660.14      29.88
   2  13  14     541.81      16.70
   2  13  15    1308.14      23.97
   2  13  16     231.05      12.88
   2  13  17      17.14      12.85
   2  13  18     692.20      17.14
   2  13  19     176.01      13.70
   2  13  20      30.32      13.26
   2  13  21     518.66      15.39
   2  13  22     139.38      14.41
   2  13  23     413.19      15.66
   2  13  24    2395.92      51.49
   2  13  25      13.96      15.53
   2  13  26     269.80      16.56
   2  13  27     210.02      16.76
   2  13  28     226.36      17.61
   2  13  29     199.94      17.35
   2  13  30     459.25      17.82
   2  13  31      86.41      17.47
   2  14   0   34209.88     388.58
   2  14   1    1700.44      38.85
   2  14   2    2707.48      35.73
   2  14   3    2716.33      34.04
   2  14   4    6704.15      58.89
   2  14   5     236.17      13.74
   2  14   6   51137.65     487.60
   2  14   7    1166.44      21.30
   2  14   8   18491.04     208.32
   2  14   9     157.50      12.80
   2  14  10    7022.09     108.57
   2  14  11    6014.43      80.66
   2  14  12   11737.81     177.73
   2  14  13     738.35      19.81
   2  14  14    7308.91      85.18
   2  14  15       0.00      13.06
   2  14  16    3015.35      57.01
   2  14  17     751.56      15.07
   2  14  18    9217.45     129.68
   2  14  19    2412.19      44.38
   2  14  20   14172.83     209.83
   2  14  21     454.03      22.01
   2  14  22   12492.88     144.47
   2  14  23      20.86      15.50
   2  14  24    4574.80     103.23
   2  14  25     513.48      18.55
   2  14  26    1056.26      28.75
   2  14  27     646.68      21.86
   2  14  28    5677.24     126.29
   2  14  29     399.99      18.78
   2  15   0     615.67      20.53
   2  15   1    1175.78      17.44
   2  15   2    1268.24      19.15
   2  15   3      69.56      13.04
   2  15   4      23.69      12.93
   2  15   5     109.07      13.92
   2  15   6     568.11      20.24
   2  15   7      42.39      12.89
   2  15   8     866.25      18.35
   2  15   9      12.49      12.83
   2  15  10      48.23      13.40
   2  15  11     108.85      13.09
   2  15  12    1793.49      32.54
   2  15  13     937.85      21.86
   2  15  14     871.77      18.73
   2  15  15     910.20      19.85
   2  15  16     597.41      15.62
   2  15  17       0.00      13.73
   2  15  18     480.65      15.13
   2  15  19     446.27      15.91
   2  15  20      67.60      14.72
   2  15  21     389.94      16.06
   2  15  22    1311.82      36.02
   2  15  23      50.43      15.31
   2  15  24      12.39      15.72
   2  15  25       0.00      16.06
   2  15  26     193.81      17.10
   2  15  27      78.85      17.42
   2  16   0    4428.65      78.46
   2  16   1    3566.18      42.03
   2  16   2    8858.47      93.67
   2  16   3    1810.69      33.33
   2  16   4   11365.12     125.01
   2  16   5    7642.56     117.05
   2  16   6    9036.35     115.79
   2  16   7    2273.26      47.15
   2  16   8    7254.34      93.28
   2  16   9    1067.19      22.60
   2  16  10   10590.59     126.61
   2  16  11     144.47      14.71
   2  16  12    8413.33     108.72
   2  16  13     571.51      20.74
   2  16  14    1482.62      28.13
   2  16  15       6.95      14.09
   2  16  16    7055.38     109.42
   2  16  17    1660.67      41.00
   2  16  18    7474.87     136.55
   2  16  19     527.17      17.01
   2  16  20    2184.38      56.02
   2  16  21      10.76      15.06
   2  16  22    5432.09      86.39
   2  16  23     749.90      18.43
   2  16  24    4765.42      74.48
   2  17   0    3770.98      57.03
   2  17   1     207.54      15.52
   2  17   2     226.02      15.00
   2  17   3     245.24      15.42
   2  17   4      83.40      15.17
   2  17   5       5.82      14.62
   2  17   6     522.15      15.90
   2  17   7      82.05      14.41
   2  17   8       8.77      14.28
   2  17   9      74.21      14.60
   2  17  10     305.55      14.79
   2  17  11     238.31      15.03
   2  17  12      60.49      15.00
   2  17  13      34.19      15.04
   2  17  14    1676.15      39.89
   2  17  15      21.35      14.97
   2  17  16      33.81      15.12
   2  17  17      53.53      15.79
   2  17  18       7.17      15.82
   2  17  19       0.00      16.66
   2  17  20     514.58      19.30
   2  17  21      38.28      15.65
   2  18   0    5450.03     129.44
   2  18   1       1.61      15.71
   2  18   2    9117.44     109.54
   2  18   3      34.22      16.36
   2  18   4    7279.71     140.70
   2  18   5      25.59      16.49
   2  18   6     409.54      18.66
   2  18   7     394.38      16.34
   2  18   8    1338.84      33.92
   2  18   9     738.68      24.38
   2  18  10    6181.02     112.09
   2  18  11     365.04      16.12
   2  18  12    4118.49      79.27
   2  18  13    2019.22      38.60
   2  18  14    6491.68      84.03
   2  18  15    1233.95      37.28
   2  18  16    6656.98     112.10
   2  18  17      19.21      15.70
   2  19   0     155.68      22.91
   2  19   1      59.06      16.02
   2  19   2     721.18      25.21
   2  19   3     188.95      17.43
   2  19   4       0.00      16.80
   2  19   5     149.67      16.88
   2  19   6      44.64      16.25
   2  19   7      14.26      16.92
   2  19   8     220.00      18.96
   2  19   9     105.40      16.78
   2  19  10      72.35      16.09
   2  19  11     378.03      17.58
   2  19  12     728.74      21.44
   3   0   0   30335.28     540.31
   3   0   2   30294.95     260.76
   3   0   4    5970.71      37.05
   3   0   6     477.20      24.54
   3   0   8   93261.27     824.53
   3   0  10      32.96       4.42
   3   0  12    8085.48      84.07
   3   0  14   36685.67     358.41
   3   0  16     685.23      23.49
   3   0  18    3032.91      86.45
   3   0  20   41465.13     267.89
   3   0  22    1087.88      33.74
   3   0  24    2603.27      62.44
   3   0  26   11907.09     149.67
   3   0  28     131.67      21.22
   3   0  30     769.99      39.67
   3   0  32    5226.59      95.67
   3   0  34     108.50      26.74
   3   0  36     820.01      30.56
   3   0  38     976.24      85.09
   3   0  40     425.31      33.41
   3   1   0   51725.70     391.48
   3   1   1     671.65       8.61
   3   1   2   68786.98     279.89
   3   1   3   125515.5     675.97
   3   1   4   181541.2     993.17
   3   1   5      97.46       3.52
   3   1   6   167859.9    1268.08
   3   1   7     220.99       4.75
   3   1   8   102985.5     647.11
   3   1   9    1815.59      16.44
   3   1  10   138383.1     948.51
   3   1  11   87108.71     651.81
   3   1  12   55052.77     408.36
   3   1  13      18.01       4.57
   3   1  14   12331.63      87.19
   3   1  15    1333.80      13.06
   3   1  16   46232.47     323.39
   3   1  17   12834.17     105.62
   3   1  18   63826.20     612.64
   3   1  19    1885.51      22.88
   3   1  20   29554.92     301.83
   3   1  21     567.90      14.87
   3   1  22   43986.28     411.45
   3   1  23    2525.59      57.16
   3   1  24   43854.41     377.80
   3   1  25   28749.54     215.34
   3   1  26    7125.45      77.34
   3   1  27      13.18      13.17
   3   1  28    6007.91      81.49
   3   1  29    2447.23      57.58
   3   1  30   12374.78     165.71
   3   1  31     442.34      17.09
   3   1  32    8579.14     127.41
   3   1  33    2614.40      55.64
   3   1  34    8711.85     142.11
   3   1  35     237.55      16.19
   3   1  36    8879.32     149.22
   3   1  37     100.33      17.13
   3   1  38    6241.83     124.71
   3   1  39    5124.05     107.42
   3   1  40    1652.66      51.31
   3   2   0   12623.38     188.98
   3   2   1    6007.70      33.49
   3   2   2   43482.78     259.30
   3   2   3      40.90       3.14
   3   2   4   20811.46     104.18
   3   2   5     984.38       9.15
   3   2   6   18603.88     149.62
   3   2   7    8796.96      70.11
   3   2   8   19791.69     119.31
   3   2   9   18842.94     138.36
   3   2  10    7717.55      64.60
   3   2  11     975.12       8.85
   3   2  12    1891.93      12.68
   3   2  13    8962.69      72.88
   3   2  14   26064.24     196.24
   3   2  15    7134.96      54.86
   3   2  16    1982.98      19.60
   3   2  17      87.29       7.10
   3   2  18     224.82       7.79
   3   2  19   13676.62     129.28
   3   2  20    9821.45      87.15
   3   2  21    4231.65      53.95
   3   2  22     194.20      11.57
   3   2  23    2353.53      40.42
   3   2  24     284.98      11.15
   3   2  25    2703.63      47.27
   3   2  26    8290.24     100.07
   3   2  27    1195.82      28.09
   3   2  28      33.30      12.71
   3   2  29     283.73      14.02
   3   2  30     702.73      20.03
   3   2  31    1922.06      50.28
   3   2  32    3729.07      66.15
   3   2  33       1.54      16.54
   3   2  34     926.76      43.33
   3   2  35      44.52      15.64
   3   2  36     106.52      15.83
   3   2  37      69.13      16.26
   3   2  38    2351.79      68.12
   3   2  39     191.65      18.55
   3   2  40     374.95      24.64
   3   3   0   422345.9    5339.37
   3   3   1   18226.62     143.22
   3   3   2   188147.8    1196.67
   3   3   3    7239.10      32.47
   3   3   4   23824.32     114.91
   3   3   5     141.73       3.74
   3   3   6   53134.69     332.59
   3   3   7     110.63      10.17
   3   3   8   29579.91     178.44
   3   3   9    1152.67      11.25
   3   3  10   14286.96      71.90
   3   3  11    9743.09      72.54
   3   3  12   137817.3    1099.86
   3   3  13   16316.57      94.83
   3   3  14   154862.1    1045.00
   3   3  15    9473.81      85.46
   3   3  16   64811.27     399.44
   3   3  17     436.33      10.39
   3   3  18   23005.97     184.96
   3   3  19    4564.37      57.85
   3   3  20   18060.43     172.34
   3   3  21    6153.57      76.15
   3   3  22   11981.11     130.03
   3   3  23    2549.87      41.49
   3   3  24    4299.14      85.15
   3   3  25    1393.55      40.80
   3   3  26   36126.21     456.24
   3   3  27    1024.86      20.76
   3   3  28   47489.37     690.31
   3   3  29     462.84      13.65
   3   3  30   13479.71     200.05
   3   3  31       7.06      13.15
   3   3  32    5037.32      93.97
   3   3  33    1561.57      44.82
   3   3  34    4594.02      97.88
   3   3  35    1685.89      37.05
   3   3  36     779.49      29.38
   3   3  37     715.28      27.00
   3   3  38     424.06      16.60
   3   3  39     242.25      16.55
   3   3  40   10002.11     180.69
   3   4   0    6512.62      62.17
   3   4   1   22726.10     144.59
   3   4   2   22393.99     168.97
   3   4   3    2649.56      16.07
   3   4   4   17508.41      95.93
   3   4   5   28931.57     170.88
   3   4   6    5202.63      43.42
   3   4   7   18240.21     148.11
   3   4   8    4667.93      29.05
   3   4   9     186.87       4.92
   3   4  10   11283.70      77.03
   3   4  11    2507.70      16.62
   3   4  12     218.03       7.54
   3   4  13   10672.00      92.16
   3   4  14    2886.75      35.58
   3   4  15    2302.18      23.56
   3   4  16    5706.29      59.17
   3   4  17    2595.45      31.21
   3   4  18    1410.93      17.88
   3   4  19    1516.19      17.48
   3   4  20     614.51      11.64
   3   4  21    2495.03      39.10
   3   4  22     143.22       9.80
   3   4  23     879.40      18.17
   3   4  24    1962.81      32.29
   3   4  25    2847.65      50.58
   3   4  26    3113.95      60.21
   3   4  27    3145.81      62.05
   3   4  28      49.35      12.51
   3   4  29     518.72      16.59
   3   4  30    1817.60      41.61
   3   4  31     201.50      13.88
   3   4  32    2357.02      46.73
   3   4  33    4195.76      82.12
   3   4  34     987.00      27.95
   3   4  35    1003.04      28.54
   3   4  36     371.19      15.65
   3   4  37     916.93      32.55
   3   4  38    1444.81      32.65
   3   4  39    1114.50      32.10
   3   5   0   63880.47     340.77
   3   5   1   75873.21     399.78
   3   5   2   29382.66     109.83
   3   5   3    5852.48      56.20
   3   5   4   87198.50     326.37
   3   5   5     111.92       5.67
   3   5   6   126713.2     915.47
   3   5   7    5003.27      41.80
   3   5   8   86828.88     483.43
   3   5   9    6731.70      47.35
   3   5  10   77067.25     635.66
   3   5  11    4677.06      41.52
   3   5  12   26044.38     175.62
   3   5  13   21390.29     144.60
   3   5  14   29140.97     215.43
   3   5  15   20794.11     202.11
   3   5  16   20642.88     158.46
   3   5  17    3089.76      40.49
   3   5  18   34325.20     280.82
   3   5  19      70.87       8.95
   3   5  20   47592.13     453.35
   3   5  21    5833.68      78.69
   3   5  22   30422.20     330.50
   3   5  23    4267.46      67.79
   3   5  24   26675.13     284.63
   3   5  25    1520.49      31.65
   3   5  26    6652.26     108.91
   3   5  27    6013.89      78.89
   3   5  28    7837.95     122.74
   3   5  29    5027.73      94.64
   3   5  30    5869.13     114.35
   3   5  31    2647.10      72.20
   3   5  32    6429.50     136.74
   3   5  33     883.19      32.30
   3   5  34   13993.14     218.63
   3   5  35    4323.91      77.00
   3   5  36    5506.41     121.31
   3   5  37    1384.95      48.00
   3   5  38    4571.03     113.14
   3   5  39    2097.60      64.74
   3   6   0    6939.79      48.54
   3   6   1   29012.97     149.28
   3   6   2      26.39       5.33
   3   6   3       8.12       4.58
   3   6   4     561.91       8.11
   3   6   5   18870.13      96.61
   3   6   6   15087.14      92.99
   3   6   7   17544.69     106.48
   3   6   8    7101.53      56.36
   3   6   9     225.09       6.29
   3   6  10     422.23       7.21
   3   6  11    7562.86      69.71
   3   6  12     907.41      11.47
   3   6  13    6561.09      66.69
   3   6  14    2137.87      25.26
   3   6  15     582.19      12.01
   3   6  16      38.92       8.63
   3   6  17     455.08      11.20
   3   6  18     867.31      16.32
   3   6  19    2279.44      39.68
   3   6  20    6058.91      86.93
   3   6  21    2283.22      42.98
   3   6  22    2717.51      56.77
   3   6  23     264.59      12.08
   3   6  24     226.55      12.54
   3   6  25     994.12      21.35
   3   6  26     197.66      12.25
   3   6  27    3847.22      74.56
   3   6  28     918.42      20.99
   3   6  29    1179.88      33.45
   3   6  30      17.21      13.51
   3   6  31     791.31      22.05
   3   6  32      95.34      14.97
   3   6  33    3469.32      61.52
   3   6  34    2676.31      61.18
   3   6  35    1020.05      38.01
   3   6  36     346.50      17.14
   3   6  37     483.33      22.34
   3   6  38      19.03      16.89
   3   7   0    2861.74      52.42
   3   7   1   16041.55      80.11
   3   7   2   69820.56     484.25
   3   7   3    2314.47      18.03
   3   7   4   83289.58     521.77
   3   7   5   10603.17      65.43
   3   7   6   40330.38     164.23
   3   7   7      54.68       6.10
   3   7   8   57192.48     439.24
   3   7   9   12582.26     105.50
   3   7  10   64268.92     408.66
   3   7  11     176.01       7.67
   3   7  12   42008.61     369.52
   3   7  13   18199.56     161.11
   3   7  14    3294.51      58.89
   3   7  15    9688.39     100.08
   3   7  16   39777.81     329.58
   3   7  17    3644.09      54.14
   3   7  18   40027.28     362.26
   3   7  19     193.91      10.12
   3   7  20   10450.58     134.45
   3   7  21    3762.53      61.19
   3   7  22   31141.78     362.33
   3   7  23    8605.86     107.94
   3   7  24   23286.73     307.62
   3   7  25     998.52      19.36
   3   7  26    9216.79     172.71
   3   7  27    2112.69      51.69
   3   7  28    1622.75      39.67
   3   7  29     731.50      20.99
   3   7  30    9747.04     196.08
   3   7  31    2062.50      54.57
   3   7  32    9342.84     183.39
   3   7  33     246.91      15.37
   3   7  34    1718.59      47.15
   3   7  35     838.16      28.35
   3   7  36    9357.03     201.41
   3   7  37    2456.18      61.54
   3   8   0   21769.37     141.65
   3   8   1    2080.93      26.29
   3   8   2     286.86       7.48
   3   8   3      70.62       7.71
   3   8   4      54.18       8.41
   3   8   5      15.57       6.20
   3   8   6   11553.13      81.87
   3   8   7    4563.24      42.18
   3   8   8      29.88       7.62
   3   8   9    6775.43      57.83
   3   8  10      29.38       7.58
   3   8  11     881.37      19.37
   3   8  12   10548.48      86.34
   3   8  13    6736.07      88.13
   3   8  14     384.14      10.62
   3   8  15    4753.96      71.68
   3   8  16    1766.76      37.12
   3   8  17       2.40       9.80
   3   8  18    2403.79      52.30
   3   8  19    9303.90     129.68
   3   8  20      88.44      11.02
   3   8  21    3576.03      64.50
   3   8  22    1947.83      35.74
   3   8  23    1175.74      24.64
   3   8  24     510.42      14.74
   3   8  25    2311.56      46.10
   3   8  26      19.56      12.41
   3   8  27    1543.20      35.98
   3   8  28    3413.67      61.57
   3   8  29      62.14      14.02
   3   8  30     377.63      19.11
   3   8  31    1548.16      46.67
   3   8  32     181.01      14.66
   3   8  33     105.01      15.17
   3   8  34    1252.68      40.56
   3   8  35       9.30      15.25
   3   8  36      63.88      15.84
   3   8  37      12.68      15.78
   3   9   0   126785.6    1037.30
   3   9   1    1548.98      14.75
   3   9   2   41829.74     351.67
   3   9   3    3823.74      24.41
   3   9   4   29838.56     204.14
   3   9   5    6114.10      62.88
   3   9   6   15799.93     141.53
   3   9   7     649.53      11.63
   3   9   8   10487.95     112.40
   3   9   9   13535.30     135.63
   3   9  10   26941.30     269.32
   3   9  11    6463.76      67.13
   3   9  12   27496.14     305.56
   3   9  13     214.93      10.53
   3   9  14   84740.85     769.10
   3   9  15     229.50      11.60
   3   9  16   25207.16     295.98
   3   9  17      14.94      10.90
   3   9  18   11072.82     160.93
   3   9  19    2752.52      55.44
   3   9  20   13058.44     180.40
   3   9  21       9.51      12.91
   3   9  22    1271.45      36.31
   3   9  23    5089.06      88.70
   3   9  24    9210.42     171.82
   3   9  25    4914.13      83.97
   3   9  26   13062.97     216.61
   3   9  27     690.98      25.79
   3   9  28   22487.45     261.09
   3   9  29     308.61      15.40
   3   9  30    9632.89     177.61
   3   9  31    1136.19      37.60
   3   9  32    2970.22      71.29
   3   9  33       0.00      15.05
   3   9  34    2572.72      69.31
   3   9  35      66.00      16.32
   3   9  36      68.85      16.43
   3  10   0    7077.36      85.18
   3  10   1      69.69       8.83
   3  10   2      25.50       9.26
   3  10   3     762.97      12.92
   3  10   4    2651.68      23.14
   3  10   5     572.80      15.90
   3  10   6    4830.56      62.44
   3  10   7     646.87       9.99
   3  10   8    2495.44      30.57
   3  10   9      29.10       9.15
   3  10  10    5371.76      55.25
   3  10  11     166.43      10.03
   3  10  12    7309.64     112.69
   3  10  13    1237.75      24.18
   3  10  14    2639.51      41.34
   3  10  15     966.40      21.38
   3  10  16    4123.28      75.24
   3  10  17     461.62      12.65
   3  10  18    7051.69     117.07
   3  10  19     219.24      13.15
   3  10  20    3533.37      66.78
   3  10  21     320.32      13.04
   3  10  22    1064.92      32.42
   3  10  23       4.94      13.19
   3  10  24    5445.46     110.06
   3  10  25     913.29      32.06
   3  10  26    1220.48      29.83
   3  10  27      88.55      14.45
   3  10  28    1190.68      32.31
   3  10  29      74.42      15.78
   3  10  30    1968.41      44.95
   3  10  31       0.00      15.31
   3  10  32     282.47      15.79
   3  10  33     254.71      16.09
   3  10  34     453.41      16.86
   3  11   0    9973.27     193.87
   3  11   1     175.00      10.77
   3  11   2   27026.22     228.55
   3  11   3   10050.85      88.74
   3  11   4   12437.06     143.99
   3  11   5     208.04      11.45
   3  11   6   44974.69     454.65
   3  11   7      37.27      10.26
   3  11   8   60039.01     628.09
   3  11   9     647.56      12.01
   3  11  10    6079.41      88.68
   3  11  11   13980.22     177.14
   3  11  12   21290.09     238.55
   3  11  13     174.85      10.81
   3  11  14   11437.00     127.15
   3  11  15     239.83      11.33
   3  11  16    8408.19      97.31
   3  11  17    2497.10      47.47
   3  11  18    9396.05     120.26
   3  11  19     815.95      27.09
   3  11  20   24044.45     389.24
   3  11  21     125.18      14.43
   3  11  22   20827.42     300.48
   3  11  23     521.51      15.82
   3  11  24    1580.48      50.07
   3  11  25    5147.01     114.36
   3  11  26    9696.70     197.66
   3  11  27      54.60      15.87
   3  11  28    2378.02      67.45
   3  11  29     722.66      26.73
   3  11  30     846.07      31.13
   3  11  31     341.37      15.86
   3  11  32    5485.00     117.58
   3  11  33     530.84      18.04
   3  12   0    5128.78     100.37
   3  12   1     352.19      11.06
   3  12   2     133.31      10.63
   3  12   3     343.93      10.84
   3  12   4      96.29      11.72
   3  12   5     656.80      12.35
   3  12   6   11053.79     159.23
   3  12   7      44.39      10.81
   3  12   8      22.67       9.99
   3  12   9    1325.82      23.79
   3  12  10     453.06      12.21
   3  12  11     379.90      11.47
   3  12  12    4928.42      71.44
   3  12  13     903.18      18.06
   3  12  14    1755.43      31.64
   3  12  15    1481.08      28.80
   3  12  16     739.22      16.80
   3  12  17      40.40      12.69
   3  12  18    3548.86      50.16
   3  12  19    1332.87      24.85
   3  12  20     245.54      13.60
   3  12  21     368.51      13.98
   3  12  22    2836.43      67.01
   3  12  23     263.61      14.78
   3  12  24    1187.75      35.91
   3  12  25     827.84      31.66
   3  12  26     670.05      26.21
   3  12  27      38.53      15.89
   3  12  28     757.03      28.74
   3  12  29     309.24      17.80
   3  12  30     185.22      17.30
   3  12  31     100.28      17.79
   3  12  32     112.93      17.17
   3  13   0    9698.87     208.03
   3  13   1    1237.89      22.81
   3  13   2   10169.99      94.21
   3  13   3    4275.38      66.47
   3  13   4   34670.28     348.01
   3  13   5    3618.31      46.89
   3  13   6    9824.30     135.27
   3  13   7     258.66      12.52
   3  13   8   11851.00     168.70
   3  13   9    1516.20      24.62
   3  13  10   37466.01     409.86
   3  13  11    4095.34      64.01
   3  13  12    2950.55      45.87
   3  13  13     304.57      13.04
   3  13  14   10245.61     120.71
   3  13  15     640.74      18.46
   3  13  16    8167.33     119.36
   3  13  17    2202.15      49.88
   3  13  18   11002.24     171.68
   3  13  19    3308.73      60.59
   3  13  20    9855.20     136.62
   3  13  21     758.43      20.04
   3  13  22    3702.30      69.32
   3  13  23     459.42      15.01
   3  13  24   14721.39     223.56
   3  13  25    1812.09      42.74
   3  13  26    1819.26      52.12
   3  13  27      30.46      17.32
   3  13  28    1525.74      54.53
   3  13  29     106.73      17.22
   3  13  30    3648.65     112.84
   3  14   0   10706.64     255.28
   3  14   1    1052.88      21.33
   3  14   2      10.28      11.70
   3  14   3     122.83      12.58
   3  14   4     160.47      12.64
   3  14   5    1741.59      36.28
   3  14   6    4973.46      72.67
   3  14   7    1175.50      25.21
   3  14   8       2.64      11.88
   3  14   9      25.25      12.17
   3  14  10      13.96      12.83
   3  14  11     201.10      12.42
   3  14  12    2675.47      53.66
   3  14  13    1001.10      19.77
   3  14  14     696.53      16.06
   3  14  15     247.33      13.25
   3  14  16     167.59      13.30
   3  14  17     289.29      14.04
   3  14  18     465.76      16.70
   3  14  19     194.38      14.19
   3  14  20      47.08      14.51
   3  14  21     308.10      16.10
   3  14  22     479.95      15.33
   3  14  23     131.12      14.62
   3  14  24     114.16      15.09
   3  14  25     452.01      16.89
   3  14  26      14.65      16.95
   3  14  27     322.59      20.82
   3  14  28    1904.94      52.17
   3  15   0    6736.91     129.59
   3  15   1    2354.71      43.92
   3  15   2   27213.44     323.35
   3  15   3     233.28      14.23
   3  15   4    7598.44      73.63
   3  15   5    1633.41      28.44
   3  15   6    1619.53      44.78
   3  15   7     239.69      13.62
   3  15   8    5979.61      87.82
   3  15   9     403.82      13.80
   3  15  10    4133.50      81.77
   3  15  11      20.46      13.15
   3  15  12   17137.42     216.27
   3  15  13     882.37      19.44
   3  15  14    8351.95     143.91
   3  15  15    1072.32      32.08
   3  15  16   14860.12     191.31
   3  15  17     285.87      14.49
   3  15  18    4945.09      84.59
   3  15  19    1342.83      33.67
   3  15  20     653.84      22.85
   3  15  21     429.24      18.09
   3  15  22    2649.04      61.24
   3  15  23      55.82      15.28
   3  15  24    1141.65      34.22
   3  15  25      10.91      16.81
   3  15  26    7970.60     138.58
   3  16   0     246.98      20.00
   3  16   1    2876.72      36.97
   3  16   2     512.58      15.74
   3  16   3     131.30      13.70
   3  16   4     518.41      15.14
   3  16   5    1424.89      32.23
   3  16   6     184.54      14.69
   3  16   7    1478.01      33.82
   3  16   8      32.71      13.40
   3  16   9      22.15      13.54
   3  16  10     565.96      17.15
   3  16  11    1416.82      38.17
   3  16  12     743.22      15.38
   3  16  13     381.98      14.90
   3  16  14       4.41      13.94
   3  16  15      15.82      14.72
   3  16  16     648.78      21.06
   3  16  17       0.55      15.66
   3  16  18     597.55      19.08
   3  16  19     345.08      18.24
   3  16  20      72.25      16.93
   3  16  21     221.34      16.34
   3  16  22     192.54      16.55
   3  16  23      30.15      16.32
   3  17   0   10587.10     180.05
   3  17   1     219.87      15.04
   3  17   2     934.62      31.94
   3  17   3     121.96      15.18
   3  17   4    5055.92      95.70
   3  17   5     780.61      27.81
   3  17   6   12304.18     227.81
   3  17   7       0.00      14.51
   3  17   8    8551.94     172.25
   3  17   9     570.86      20.06
   3  17  10    5168.24      99.33
   3  17  11      34.28      16.65
   3  17  12     656.83      25.83
   3  17  13     632.08      27.76
   3  17  14    8112.01     134.62
   3  17  15     334.14      17.75
   3  17  16     480.43      20.68
   3  17  17     307.93      17.12
   3  17  18    1839.62      48.32
   3  17  19     115.01      16.54
   3  17  20   11284.44     181.40
   3  18   0     126.78      24.99
   3  18   1     130.55      16.72
   3  18   2     199.83      17.52
   3  18   3      72.45      16.18
   3  18   4     858.74      27.43
   3  18   5      41.03      17.48
   3  18   6      15.71      16.72
   3  18   7     550.19      24.58
   3  18   8     367.76      18.35
   3  18   9     361.71      16.95
   3  18  10     805.81      25.52
   3  18  11      32.14      16.04
   3  18  12      18.81      16.07
   3  18  13     969.51      31.91
   3  18  14      27.71      16.26
   3  18  15     658.78      22.91
   3  18  16     111.63      16.58
   3  19   0     619.79      35.59
   3  19   1      69.28      19.57
   3  19   2    5579.22      87.72
   3  19   3     114.47      19.31
   3  19   4    2314.78      71.54
   3  19   5    1267.49      36.37
   3  19   6    2850.94      64.33
   3  19   7      16.69      19.97
   3  19   8    4493.64      93.29
   3  19   9    1881.37      59.25
   3  19  10    1432.89      47.25
   4   0   0   416293.6    5583.64
   4   0   2   103548.9    1321.07
   4   0   4    6129.80      59.37
   4   0   6   117298.1     912.31
   4   0   8    7426.05      89.71
   4   0  10    5308.56      62.16
   4   0  12   214360.7    2439.87
   4   0  14   52001.16     664.22
   4   0  16   70906.99     804.69
   4   0  18   40434.57     636.40
   4   0  20    1302.02      44.24
   4   0  22   23282.29     223.52
   4   0  24    4663.45      73.74
   4   0  26   18487.22     188.72
   4   0  28   49633.30    1107.46
   4   0  30   13037.15     170.45
   4   0  32    1830.49      99.15
   4   0  34    6473.57     230.58
   4   0  36    1399.86      72.73
   4   0  38     323.03      30.12
   4   1   0    7280.31      57.02
   4   1   1   13302.26      74.12
   4   1   2    8646.47      38.37
   4   1   3    8013.39      52.13
   4   1   4   10400.05      51.85
   4   1   5    4813.88      29.07
   4   1   6    2336.97      16.16
   4   1   7     349.57       5.06
   4   1   8      11.77       6.02
   4   1   9    1444.95      14.76
   4   1  10   10955.85      72.69
   4   1  11    6873.13      60.55
   4   1  12   11037.36      67.51
   4   1  13   10009.02      64.63
   4   1  14      95.49       7.61
   4   1  15    8360.34      98.98
   4   1  16    9942.00      91.07
   4   1  17    1855.92      34.23
   4   1  18    7917.77     101.92
   4   1  19    8654.09     115.55
   4   1  20     558.51      14.28
   4   1  21    5328.84      88.29
   4   1  22    1913.26      43.15
   4   1  23      30.69       8.75
   4   1  24    5371.15      96.16
   4   1  25    1018.81      45.42
   4   1  26     418.78      14.55
   4   1  27     681.67      17.91
   4   1  28    1351.78      42.62
   4   1  29     849.48      34.19
   4   1  30    3116.95      56.39
   4   1  31     306.53      17.17
   4   1  32     372.48      16.95
   4   1  33    2552.06      36.95
   4   1  34      31.63      16.15
   4   1  35    1985.72      66.15
   4   1  36     330.22      25.29
   4   1  37      37.60      21.33
   4   1  38     425.51      22.20
   4   1  39      84.17      22.33
   4   2   0   148451.5     884.77
   4   2   1   36408.27     157.08
   4   2   2    7053.83      32.38
   4   2   3   21680.05     159.64
   4   2   4   86576.74     432.69
   4   2   5    1422.16       8.46
   4   2   6   180344.4     731.34
   4   2   7    6868.06      51.18
   4   2   8   30922.03     154.70
   4   2   9    1491.20      15.62
   4   2  10   98039.26     601.49
   4   2  11   32130.72     182.58
   4   2  12   44497.93     274.29
   4   2  13     141.97       5.96
   4   2  14    9513.33      69.93
   4   2  15    2478.17      42.79
   4   2  16   25637.12     202.83
   4   2  17    3744.12      43.23
   4   2  18   57771.62     416.01
   4   2  19    3385.02      51.60
   4   2  20   20320.79     253.89
   4   2  21      59.63       7.81
   4   2  22   31241.54     282.45
   4   2  23     153.02       9.14
   4   2  24   48175.41     501.44
   4   2  25    4577.28     100.86
   4   2  26     338.72      15.49
   4   2  27    3984.39      72.87
   4   2  28   12647.48     170.29
   4   2  29    3243.14      40.61
   4   2  30    8953.89     135.78
   4   2  31    2374.24      37.99
   4   2  32    1463.39      45.12
   4   2  33     121.56      14.13
   4   2  34   17367.92     246.05
   4   2  35    1150.52      32.36
   4   2  36    4476.92     105.26
   4   2  37      32.66      19.22
   4   2  38    2832.20      74.38
   4   2  39    4245.03      86.51
   4   3   0   23956.40     255.73
   4   3   1    6233.55      33.42
   4   3   2     299.53       9.84
   4   3   3    6949.72      30.96
   4   3   4     352.91       8.46
   4   3   5    1491.36      17.61
   4   3   6   37959.09     247.29
   4   3   7    1199.36      10.37
   4   3   8   12457.60      83.69
   4   3   9    8000.80      56.71
   4   3  10     411.24       8.02
   4   3  11    7624.53      69.90
   4   3  12    1922.41      23.42
   4   3  13    1453.61      14.84
   4   3  14    5283.35      56.28
   4   3  15     128.83       5.63
   4   3  16       1.88       6.17
   4   3  17     408.87      10.77
   4   3  18    1398.69      26.73
   4   3  19     252.34       8.30
   4   3  20   12496.81     176.34
   4   3  21     461.43      12.32
   4   3  22    5074.91      71.51
   4   3  23    3734.36      59.02
   4   3  24     299.06      10.94
   4   3  25    4576.84      63.67
   4   3  26     234.22      10.97
   4   3  27    1149.48      34.26
   4   3  28    2631.88      58.56
   4   3  29      34.46      11.51
   4   3  30      92.56      12.14
   4   3  31     500.95      15.27
   4   3  32      72.93      13.71
   4   3  33     542.29      25.03
   4   3  34    5777.70     122.95
   4   3  35     577.17      20.80
   4   3  36     449.31      18.27
   4   3  37     482.73      20.38
   4   3  38       0.00      18.00
   4   4   0   15529.78     130.68
   4   4   1    2078.20      28.08
   4   4   2   60728.56     323.76
   4   4   3   24264.68     145.16
   4   4   4   65511.68     433.61
   4   4   5   16198.42      79.84
   4   4   6   87283.95     522.93
   4   4   7   10923.73      71.76
   4   4   8   55350.65     518.91
   4   4   9     106.14       6.67
   4   4  10   54497.16     418.10
   4   4  11    5936.07      66.14
   4   4  12   71683.59     557.59
   4   4  13   18918.56     197.44
   4   4  14     693.42      11.97
   4   4  15   11324.91     103.67
   4   4  16   42264.49     336.09
   4   4  17    8939.23      91.96
   4   4  18   50320.14     456.73
   4   4  19    1185.48      21.28
   4   4  20    7821.81      92.27
   4   4  21    4311.58      61.30
   4   4  22   44126.20     498.79
   4   4  23     533.18      15.89
   4   4  24   22907.72     276.35
   4   4  25   16860.01     228.43
   4   4  26    7116.30      97.21
   4   4  27     599.46      17.27
   4   4  28    3691.05      84.48
   4   4  29     507.24      17.36
   4   4  30    9830.20     184.44
   4   4  31      41.96      12.64
   4   4  32    6894.42     118.86
   4   4  33    4581.55      92.51
   4   4  34    4035.26      90.32
   4   4  35     101.33      16.73
   4   4  36   10674.57     183.81
   4   4  37    1099.64      31.27
   4   4  38    2603.46      82.89
   4   5   0    7654.75      86.79
   4   5   1      47.80       5.81
   4   5   2    9183.09      43.09
   4   5   3    2092.45      14.41
   4   5   4    1045.04      17.27
   4   5   5   18696.49     115.46
   4   5   6    3783.96      19.43
   4   5   7     302.82       5.91
   4   5   8    2345.66      30.12
   4   5   9   16679.38     117.49
   4   5  10     589.23      10.99
   4   5  11    8667.25      93.57
   4   5  12   11149.37     126.18
   4   5  13    3745.17      56.05
   4   5  14    2618.47      44.68
   4   5  15     107.17       7.50
   4   5  16    4795.57      88.80
   4   5  17     254.52       9.51
   4   5  18    2106.30      34.41
   4   5  19    1324.57      25.07
   4   5  20     290.97      10.58
   4   5  21     663.36      17.70
   4   5  22    2427.01      51.44
   4   5  23    8378.82     114.42
   4   5  24     322.25      10.98
   4   5  25    1933.31      40.40
   4   5  26    2312.91      43.21
   4   5  27      79.97      11.48
   4   5  28    1930.46      43.55
   4   5  29     710.12      23.89
   4   5  30     860.90      27.97
   4   5  31     798.37      32.20
   4   5  32     480.56      23.44
   4   5  33     636.61      26.70
   4   5  34     123.38      14.52
   4   5  35      14.73      15.86
   4   5  36     410.68      17.34
   4   5  37    1776.37      52.72
   4   5  38      39.52      19.13
   4   6   0   177557.8    1634.09
   4   6   1    2629.78      26.90
   4   6   2   53191.63     429.06
   4   6   3     108.73       5.93
   4   6   4   31892.93     207.95
   4   6   5     987.41       8.70
   4   6   6   20544.28     142.33
   4   6   7    7780.13      48.95
   4   6   8   14375.72     128.91
   4   6   9    4993.84      59.93
   4   6  10   27654.06     243.47
   4   6  11    2384.66      25.77
   4   6  12   33316.32     367.79
   4   6  13   15225.57     166.66
   4   6  14   113633.7    1135.90
   4   6  15    8490.26     108.41
   4   6  16   28495.41     293.52
   4   6  17     144.93       8.67
   4   6  18   11973.13     137.94
   4   6  19   11979.05     115.03
   4   6  20   19034.53     185.85
   4   6  21    6398.24      99.98
   4   6  22    1553.32      49.62
   4   6  23     210.37      11.09
   4   6  24    9183.70     135.69
   4   6  25    3258.67      54.08
   4   6  26   17064.70     299.29
   4   6  27    1797.36      49.51
   4   6  28   27724.30     314.14
   4   6  29      33.48      12.45
   4   6  30    9649.23     161.44
   4   6  31    1565.96      41.46
   4   6  32    3221.12      84.39
   4   6  33     371.77      16.18
   4   6  34    3352.11      75.34
   4   6  35      12.21      15.96
   4   6  36      53.30      16.18
   4   6  37     148.70      17.47
   4   7   0    1579.33      16.96
   4   7   1    9141.55      71.76
   4   7   2    2898.04      36.97
   4   7   3     495.72      10.84
   4   7   4   16139.98     118.84
   4   7   5     805.37      12.51
   4   7   6      10.95       6.50
   4   7   7    1749.17      14.15
   4   7   8      23.77       5.06
   4   7   9    7547.39      85.25
   4   7  10   18628.63     187.44
   4   7  11     450.27      12.32
   4   7  12     626.72      12.65
   4   7  13    1145.00      21.79
   4   7  14     987.27      21.29
   4   7  15     633.99      13.98
   4   7  16    5044.94      92.19
   4   7  17      73.91       9.34
   4   7  18    4822.04      80.24
   4   7  19     869.40      17.85
   4   7  20      13.34      10.21
   4   7  21     120.40      10.54
   4   7  22      15.97      10.30
   4   7  23    3231.44      68.50
   4   7  24    7614.62     103.48
   4   7  25    1228.53      33.20
   4   7  26      38.23      12.89
   4   7  27    1574.17      51.36
   4   7  28     278.20      13.32
   4   7  29     177.29      13.42
   4   7  30    2884.57      65.40
   4   7  31    1171.51      33.74
   4   7  32     442.52      20.24
   4   7  33     259.54      15.28
   4   7  34      24.81      16.22
   4   7  35     546.41      24.21
   4   7  36      58.27      17.47
   4   8   0    3581.24     124.54
   4   8   1   24169.67     213.73
   4   8   2   47483.87     549.52
   4   8   3    3559.85      44.97
   4   8   4   28117.50     323.41
   4   8   5    1884.32      20.41
   4   8   6   36037.77     321.84
   4   8   7    6852.69      90.44
   4   8   8   87115.84     739.43
   4   8   9    1926.05      22.05
   4   8  10   15551.06     165.52
   4   8  11   10656.72     116.85
   4   8  12   17224.00     204.26
   4   8  13      82.21       9.96
   4   8  14   19592.02     192.76
   4   8  15    1469.86      27.99
   4   8  16   11990.69     144.56
   4   8  17    1123.72      26.17
   4   8  18    9635.76     160.64
   4   8  19    2334.67      51.90
   4   8  20   36098.79     472.58
   4   8  21      13.67      11.84
   4   8  22   23591.43     316.90
   4   8  23     512.63      16.71
   4   8  24    2809.61      71.83
   4   8  25     481.09      13.10
   4   8  26   16477.71     261.74
   4   8  27    3862.83      79.57
   4   8  28    1497.99      37.40
   4   8  29    2172.11      45.97
   4   8  30    1452.95      38.16
   4   8  31    2220.40      49.52
   4   8  32    9534.47     174.01
   4   8  33     590.83      23.42
   4   8  34    3058.68      84.97
   4   8  35    1504.29      41.81
   4   9   0      12.31      10.17
   4   9   1    5334.79      59.17
   4   9   2    3935.61      40.41
   4   9   3      85.67       7.92
   4   9   4     442.33       9.47
   4   9   5     518.76       9.80
   4   9   6    6273.22      60.00
   4   9   7      16.08       6.76
   4   9   8   11156.05     150.28
   4   9   9     309.14      10.96
   4   9  10       8.20       7.82
   4   9  11     350.33       9.35
   4   9  12    2814.86      45.89
   4   9  13    7031.23     100.09
   4   9  14     342.13      10.48
   4   9  15    6581.63      99.36
   4   9  16     676.10      13.80
   4   9  17       6.94       9.92
   4   9  18     758.91      20.25
   4   9  19    3876.79      74.21
   4   9  20    3693.76      70.03
   4   9  21    2729.04      52.95
   4   9  22    4006.01      76.46
   4   9  23      68.35      13.47
   4   9  24      73.35      12.85
   4   9  25     201.06      13.54
   4   9  26    1802.69      45.18
   4   9  27     165.74      13.85
   4   9  28      32.78      13.98
   4   9  29     800.42      23.26
   4   9  30      16.57      13.76
   4   9  31      68.80      14.67
   4   9  32    1058.60      33.85
   4   9  33     524.71      21.32
   4   9  34     443.28      17.88
   4  10   0    2354.81      56.33
   4  10   1     385.50      10.09
   4  10   2   27019.25     300.57
   4  10   3    1979.32      36.14
   4  10   4   57371.65     631.70
   4  10   5    6698.18      88.34
   4  10   6    5454.53      72.43
   4  10   7     267.94       9.85
   4  10   8   33219.42     399.86
   4  10   9    4080.93      62.52
   4  10  10   48047.80     635.05
   4  10  11     482.20       9.92
   4  10  12    1513.11      30.10
   4  10  13    3504.24      54.48
   4  10  14   20918.77     214.72
   4  10  15    1213.14      25.81
   4  10  16   10690.94     137.39
   4  10  17    2575.14      64.39
   4  10  18    9072.33     138.29
   4  10  19     683.31      19.23
   4  10  20   20885.24     271.79
   4  10  21     476.53      16.01
   4  10  22    4616.60      85.23
   4  10  23    2656.54      67.67
   4  10  24   13602.41     237.98
   4  10  25    1365.13      44.89
   4  10  26    8020.10     198.29
   4  10  27     242.16      15.96
   4  10  28     560.42      17.11
   4  10  29      24.13      14.12
   4  10  30    4306.44      93.38
   4  10  31     873.08      28.18
   4  10  32    7030.04     194.15
   4  10  33     982.45      30.99
   4  11   0   12366.14     164.76
   4  11   1    3735.57      62.62
   4  11   2     302.46      10.06
   4  11   3    1099.57      19.16
   4  11   4     734.04      18.10
   4  11   5    1741.04      24.09
   4  11   6    1461.46      25.39
   4  11   7     610.29      15.09
   4  11   8    1484.91      26.12
   4  11   9     108.92       8.72
   4  11  10     945.61      20.41
   4  11  11     621.91      18.21
   4  11  12       4.48       9.67
   4  11  13     751.72      16.80
   4  11  14   13349.19     181.75
   4  11  15    1010.77      23.66
   4  11  16      20.00      10.64
   4  11  17     523.40      16.30
   4  11  18       4.35      11.61
   4  11  19    1033.30      31.24
   4  11  20    4524.87      80.20
   4  11  21     544.93      22.88
   4  11  22      53.51      13.37
   4  11  23      27.02      13.55
   4  11  24     256.13      15.14
   4  11  25     509.23      20.63
   4  11  26     964.28      38.06
   4  11  27     265.09      16.21
   4  11  28    1791.98      58.72
   4  11  29     269.20      16.18
   4  11  30      48.91      14.76
   4  11  31      44.88      15.80
   4  11  32      64.78      16.68
   4  12   0   10097.16     199.46
   4  12   1     367.85      12.86
   4  12   2   45334.54     506.00
   4  12   3     254.98      11.76
   4  12   4   14676.09     231.06
   4  12   5    3945.81      58.98
   4  12   6     593.41      12.50
   4  12   7     174.58      11.22
   4  12   8   16598.57     290.52
   4  12   9    2650.37      49.17
   4  12  10    7136.33     124.32
   4  12  11    1687.32      26.70
   4  12  12   14627.70     236.50
   4  12  13     169.53      11.52
   4  12  14   32142.42     538.72
   4  12  15      56.29      11.73
   4  12  16   17109.88     238.82
   4  12  17     139.17      12.62
   4  12  18    3066.67      68.16
   4  12  19     484.50      15.81
   4  12  20    6796.46     127.93
   4  12  21      34.48      13.73
   4  12  22    1700.84      38.94
   4  12  23    1271.24      46.85
   4  12  24     821.84      28.91
   4  12  25     376.98      16.40
   4  12  26   15853.75     321.83
   4  12  27       4.50      16.37
   4  12  28    4097.33      88.68
   4  12  29     243.19      16.67
   4  12  30    4350.18     118.55
   4  13   0    1629.58      38.25
   4  13   1      20.33      10.55
   4  13   2    6923.76      78.39
   4  13   3    1662.12      32.37
   4  13   4    2158.31      40.55
   4  13   5     281.82      10.89
   4  13   6     153.27      10.42
   4  13   7       0.00      10.09
   4  13   8    1488.71      28.02
   4  13   9     549.88      17.38
   4  13  10    1030.40      20.16
   4  13  11    2580.07      53.41
   4  13  12    2141.98      49.11
   4  13  13      44.72      11.98
   4  13  14      19.47      12.46
   4  13  15     126.04      11.92
   4  13  16    2819.48      52.21
   4  13  17     378.87      13.12
   4  13  18     951.66      27.52
   4  13  19      11.93      12.93
   4  13  20      18.29      13.67
   4  13  21      49.14      13.28
   4  13  22     724.89      19.98
   4  13  23     289.77      16.10
   4  13  24     162.36      17.76
   4  13  25    1268.67      49.01
   4  13  26    1341.79      40.99
   4  13  27      11.05      16.82
   4  13  28      27.14      18.59
   4  14   0    7776.83     153.67
   4  14   1     634.18      18.03
   4  14   2    5885.13     120.55
   4  14   3    2556.19      56.95
   4  14   4    9972.77     176.74
   4  14   5    1170.58      27.64
   4  14   6   13679.78     225.34
   4  14   7     974.08      26.32
   4  14   8   19537.62     347.49
   4  14   9     141.48      12.96
   4  14  10    7960.46     152.69
   4  14  11    1064.22      22.07
   4  14  12    1074.80      23.10
   4  14  13     912.28      25.69
   4  14  14   15489.19     179.70
   4  14  15     683.47      19.07
   4  14  16    1326.14      39.72
   4  14  17    1299.08      34.81
   4  14  18    2201.50      49.83
   4  14  19       0.00      14.41
   4  14  20   19607.76     302.02
   4  14  21     287.02      16.74
   4  14  22    4257.47      78.35
   4  14  23       8.41      15.96
   4  14  24    2129.22      51.28
   4  14  25    2699.97      62.72
   4  14  26    3552.01      96.49
   4  15   0     278.07      19.60
   4  15   1     194.11      12.45
   4  15   2      23.21      12.61
   4  15   3     490.30      17.82
   4  15   4    2970.74      50.32
   4  15   5    1101.89      39.32
   4  15   6     346.22      16.05
   4  15   7      54.07      13.84
   4  15   8     707.39      26.78
   4  15   9     911.14      22.47
   4  15  10    3453.93      51.59
   4  15  11    1267.76      38.75
   4  15  12     428.69      15.40
   4  15  13      17.42      13.94
   4  15  14     888.73      22.32
   4  15  15     157.30      14.67
   4  15  16      32.97      14.49
   4  15  17       5.31      14.87
   4  15  18     360.84      16.77
   4  15  19     215.95      15.91
   4  15  20    1679.96      58.47
   4  15  21       4.55      15.36
   4  15  22       4.35      15.89
   4  15  23     453.82      17.82
   4  15  24    1312.94      45.13
   4  16   0    1351.27      32.84
   4  16   1     178.65      18.19
   4  16   2    8492.06     134.35
   4  16   3     853.07      22.50
   4  16   4    7682.34     145.05
   4  16   5     293.78      15.43
   4  16   6    4275.40      94.56
   4  16   7     565.79      20.19
   4  16   8    6950.74     148.85
   4  16   9    1871.03      50.32
   4  16  10    5686.35     124.04
   4  16  11    2279.62      51.83
   4  16  12    4615.02      99.10
   4  16  13    1495.80      39.85
   4  16  14    1995.19      49.92
   4  16  15    1141.95      24.73
   4  16  16    4522.56      94.59
   4  16  17     358.77      16.62
   4  16  18    3667.87      84.69
   4  16  19    4280.51      91.37
   4  16  20    2552.75      54.09
   4  16  21    1314.59      40.02
   4  17   0     448.29      28.79
   4  17   1     436.48      18.46
   4  17   2    1591.62      43.32
   4  17   3       0.00      16.59
   4  17   4     118.57      17.53
   4  17   5      10.59      16.50
   4  17   6     527.41      19.22
   4  17   7     128.13      19.13
   4  17   8    1485.87      47.70
   4  17   9     177.09      16.97
   4  17  10     516.87      17.69
   4  17  11      59.36      15.12
   4  17  12    1333.93      39.44
   4  17  13      15.08      18.96
   4  17  14     989.37      28.06
   4  17  15      14.54      16.41
   4  17  16     180.50      16.22
   4  17  17      16.74      15.93
   4  18   0    7770.68     231.86
   4  18   1    1754.79      53.07
   4  18   2    4317.60      89.45
   4  18   3     202.71      18.26
   4  18   4    4281.05      97.98
   4  18   5    1214.69      31.53
   4  18   6    1224.27      28.94
   4  18   7     860.76      33.72
   4  18   8     370.97      18.17
   4  18   9       5.02      17.22
   4  18  10    4042.03      85.11
   4  18  11      14.93      16.88
   4  18  12    4185.30     103.11
   4  18  13      45.52      18.53
   4  19   0     840.56      33.57
   4  19   1     217.37      18.68
   4  19   2      19.07      18.07
   4  19   3     128.32      19.02
   5   0   0   120433.1     862.13
   5   0   2   17002.47      92.14
   5   0   4     605.78      28.85
   5   0   6   88761.39     565.79
   5   0   8     839.82      12.13
   5   0  10    4735.01      62.41
   5   0  12    2554.71      64.14
   5   0  14    5489.72      67.83
   5   0  16     260.91      15.71
   5   0  18    6025.88     158.76
   5   0  20    9953.18     163.01
   5   0  22    3743.85      93.18
   5   0  24    6040.72     147.11
   5   0  26    3203.31     123.61
   5   0  28    8784.19     129.45
   5   0  30      23.36      26.15
   5   0  32    1450.98      79.84
   5   0  34   16892.78     311.09
   5   0  36      53.56      27.62
   5   1   0    9215.02      82.03
   5   1   1   14432.38      97.59
   5   1   2   50928.05     325.94
   5   1   3    6439.15      42.51
   5   1   4   72131.72     310.84
   5   1   5    1386.27       9.99
   5   1   6   40628.25     237.65
   5   1   7     583.71       8.73
   5   1   8   70196.46     479.37
   5   1   9    3126.92      38.59
   5   1  10   55208.38     482.75
   5   1  11    5267.28      29.66
   5   1  12   18637.90     121.59
   5   1  13    6292.28      60.53
   5   1  14   19139.45     203.44
   5   1  15    5677.75      75.84
   5   1  16   21674.36     147.82
   5   1  17    3037.83      45.56
   5   1  18   23996.13     292.94
   5   1  19     452.80       8.09
   5   1  20   29469.07     284.58
   5   1  21    1156.17      26.78
   5   1  22   21247.82     261.25
   5   1  23    1974.03      46.07
   5   1  24   17254.40     221.10
   5   1  25    2436.32      54.10
   5   1  26   10272.90      99.52
   5   1  27    2051.32      55.69
   5   1  28    2282.23      64.70
   5   1  29    1440.46      35.73
   5   1  30    5482.38      77.95
   5   1  31    1422.18      42.29
   5   1  32    8134.14     174.45
   5   1  33      43.73      18.36
   5   1  34    3158.35      53.62
   5   1  35     757.72      34.96
   5   1  36    5553.05     145.73
   5   1  37     660.86      36.29
   5   2   0    9105.67     108.75
   5   2   1   13549.47      86.86
   5   2   2   15055.21     114.17
   5   2   3     768.30      12.04
   5   2   4     228.93       7.08
   5   2   5   23693.50     161.24
   5   2   6   15888.23     103.88
   5   2   7    5133.40      33.89
   5   2   8     274.67       7.83
   5   2   9    5014.55      36.70
   5   2  10      82.28       5.80
   5   2  11     802.80      15.88
   5   2  12   50474.41     272.67
   5   2  13     191.57       8.42
   5   2  14    3825.44      44.60
   5   2  15     665.98      10.08
   5   2  16   15508.47     144.24
   5   2  17    1827.60      30.18
   5   2  18   12139.03     110.53
   5   2  19    1953.40      31.14
   5   2  20    5042.51      76.73
   5   2  21      26.75       6.38
   5   2  22   11276.42     175.38
   5   2  23    2493.41      54.05
   5   2  24     966.73      23.85
   5   2  25     234.93      10.74
   5   2  26    1231.38      44.85
   5   2  27    1149.37      34.66
   5   2  28    2846.41      86.86
   5   2  29    1353.07      43.13
   5   2  30    2651.99      61.48
   5   2  31     110.31      16.34
   5   2  32     178.51      17.61
   5   2  33    4019.62      91.87
   5   2  34      58.11      19.00
   5   2  35    1333.59      40.56
   5   2  36    1529.34      37.15
   5   2  37     729.12      25.68
   5   3   0   126184.7    1304.07
   5   3   1      21.02       4.30
   5   3   2   76216.87     500.65
   5   3   3     626.00       9.67
   5   3   4   25846.60     182.47
   5   3   5    2011.61      20.92
   5   3   6   15843.80     130.87
   5   3   7     211.75       5.57
   5   3   8   21855.64     169.25
   5   3   9    1075.09       9.45
   5   3  10   17480.14     155.44
   5   3  11    2097.76      22.93
   5   3  12   41477.63     309.36
   5   3  13    1570.01      16.17
   5   3  14   98521.10     771.56
   5   3  15     395.47      11.07
   5   3  16   32152.19     366.22
   5   3  17       0.06       7.39
   5   3  18   10786.70     124.59
   5   3  19      52.46       6.22
   5   3  20   17351.29     218.21
   5   3  21     571.58      16.99
   5   3  22    3284.66      57.11
   5   3  23    1021.00      26.04
   5   3  24    4690.73      74.69
   5   3  25     258.10      10.34
   5   3  26   22866.61     271.16
   5   3  27       0.00      10.62
   5   3  28   21333.40     364.75
   5   3  29      37.12      12.64
   5   3  30    8918.03     165.41
   5   3  31       0.00      15.60
   5   3  32    4878.06      89.23
   5   3  33      78.97      17.68
   5   3  34    1677.98      52.42
   5   3  35       5.53      18.83
   5   3  36     304.15      20.11
   5   3  37     223.69      20.41
   5   4   0   24312.52     267.13
   5   4   1    2685.57      20.66
   5   4   2      51.19       4.33
   5   4   3     648.48       8.71
   5   4   4   23353.20     176.81
   5   4   5      20.45       6.33
   5   4   6    2157.30      36.16
   5   4   7    5651.70      48.90
   5   4   8    2412.28      25.67
   5   4   9    7032.67      73.34
   5   4  10   34736.86     329.05
   5   4  11    5248.37      62.05
   5   4  12    1053.71      16.85
   5   4  13   10260.58      92.80
   5   4  14    2269.50      22.37
   5   4  15    5528.27      72.56
   5   4  16    5874.70      68.86
   5   4  17     177.30       7.03
   5   4  18   10039.02     137.40
   5   4  19   13452.69     177.38
   5   4  20      43.51       6.84
   5   4  21    5449.99      91.98
   5   4  22      49.03       8.57
   5   4  23     742.11      21.03
   5   4  24   18530.47     256.71
   5   4  25    1085.55      27.94
   5   4  26     914.00      40.10
   5   4  27    1669.24      38.95
   5   4  28    2253.82      55.82
   5   4  29       3.69      12.72
   5   4  30    4475.13      84.91
   5   4  31    2106.78      36.39
   5   4  32      10.89      15.78
   5   4  33      25.70      16.18
   5   4  34     830.27      27.66
   5   4  35      17.07      16.92
   5   4  36      29.06      18.84
   5   4  37      43.42      20.91
   5   5   0   14282.25     235.29
   5   5   1     148.35       6.56
   5   5   2   34831.05     328.38
   5   5   3   13308.29     110.46
   5   5   4   38712.03     365.81
   5   5   5     584.07      10.27
   5   5   6   48080.78     478.42
   5   5   7     684.71      12.24
   5   5   8   58885.27     479.03
   5   5   9     435.63      11.77
   5   5  10   28682.55     327.79
   5   5  11   11152.79     137.88
   5   5  12   19876.32     175.24
   5   5  13    2526.40      33.90
   5   5  14   14535.75     127.43
   5   5  15    3287.10      65.42
   5   5  16   15024.38     190.32
   5   5  17    4090.52      72.27
   5   5  18   17602.73     231.51
   5   5  19      12.18       7.18
   5   5  20   26362.10     281.49
   5   5  21     609.41      15.60
   5   5  22   22213.80     355.27
   5   5  23      18.75      10.47
   5   5  24    9956.82     148.05
   5   5  25    8785.84     140.97
   5   5  26    8629.18     140.52
   5   5  27       0.00      10.40
   5   5  28    2886.08      68.00
   5   5  29     786.15      28.43
   5   5  30    3108.16      77.50
   5   5  31     169.34      16.01
   5   5  32    5798.76     130.00
   5   5  33    1097.92      21.53
   5   5  34    4568.82     110.01
   5   5  35      16.21      18.66
   5   5  36    4849.50     100.76
   5   6   0      11.51       9.23
   5   6   1    4466.57      50.82
   5   6   2    9619.25      96.53
   5   6   3    3048.84      27.59
   5   6   4       6.89       5.31
   5   6   5      80.61       8.91
   5   6   6   15958.18     186.58
   5   6   7    6832.47      61.10
   5   6   8   25453.61     256.00
   5   6   9    8577.47      90.38
   5   6  10    1315.82      20.50
   5   6  11     278.04       7.92
   5   6  12    8486.66      97.07
   5   6  13    6087.23      83.29
   5   6  14     551.41       8.75
   5   6  15    4836.67      55.91
   5   6  16    1111.77      25.85
   5   6  17     682.41      14.60
   5   6  18     893.42      22.08
   5   6  19    7480.52      57.88
   5   6  20    6980.68      82.65
   5   6  21    2444.80      52.90
   5   6  22   10448.06     131.94
   5   6  23    1562.87      38.42
   5   6  24    1287.64      32.94
   5   6  25    6982.59     115.87
   5   6  26    4425.05      66.13
   5   6  27    2119.10      49.66
   5   6  28     140.77      11.73
   5   6  29     171.68      13.76
   5   6  30      91.60      14.16
   5   6  31    1381.83      38.08
   5   6  32    1812.09      56.46
   5   6  33     687.94      20.60
   5   6  34     868.49      31.55
   5   6  35     184.58      19.29
   5   7   0   14338.91     414.88
   5   7   1    1384.41      20.46
   5   7   2   22693.88     292.94
   5   7   3    6955.00      90.56
   5   7   4   48364.54     476.32
   5   7   5     404.40       9.13
   5   7   6   26434.20     274.04
   5   7   7     552.27       9.59
   5   7   8   25944.53     217.96
   5   7   9    1361.48      21.91
   5   7  10   44656.38     405.06
   5   7  11    9335.27     130.16
   5   7  12   12809.06     128.56
   5   7  13     233.46       8.10
   5   7  14    8970.38      74.79
   5   7  15      18.68       7.35
   5   7  16   16167.38     221.00
   5   7  17    2626.95      57.85
   5   7  18   20084.53     239.30
   5   7  19    3958.87      59.25
   5   7  20   11788.78     140.06
   5   7  21     610.01      20.47
   5   7  22   11954.15     165.08
   5   7  23     313.93      12.21
   5   7  24   17819.92     264.79
   5   7  25    1954.42      48.54
   5   7  26    3333.54      62.87
   5   7  27     884.97      20.09
   5   7  28    2543.11      59.07
   5   7  29     308.03      15.08
   5   7  30    5387.41      96.70
   5   7  31    1329.44      38.16
   5   7  32    3729.93      83.38
   5   7  33     246.85      19.69
   5   7  34    2897.31      73.24
   5   7  35      25.62      19.54
   5   8   0   14233.54     242.57
   5   8   1    3103.70      46.70
   5   8   2    1624.14      28.80
   5   8   3      98.75       8.37
   5   8   4    4983.32      73.28
   5   8   5   16096.37     184.33
   5   8   6     290.81       9.39
   5   8   7    3006.11      36.06
   5   8   8    3544.70      32.17
   5   8   9    4684.44      50.26
   5   8  10    5028.82      61.68
   5   8  11    4276.72      44.31
   5   8  12     621.35      12.96
   5   8  13    3588.83      72.31
   5   8  14   27428.99     282.74
   5   8  15     163.89       8.48
   5   8  16     117.31       9.11
   5   8  17     835.13      26.81
   5   8  18      48.86       9.27
   5   8  19      45.87       9.73
   5   8  20   10290.12     157.73
   5   8  21     780.21      25.84
   5   8  22     463.68      13.83
   5   8  23    3227.83      51.48
   5   8  24    1091.36      38.10
   5   8  25      17.79      12.09
   5   8  26    2214.03      49.39
   5   8  27     420.85      13.43
   5   8  28    1828.55      45.48
   5   8  29     726.01      27.03
   5   8  30     198.74      17.29
   5   8  31      80.03      17.29
   5   8  32     500.42      19.63
   5   8  33    1698.82      54.74
   5   8  34     582.23      21.40
   5   9   0   47209.21     960.00
   5   9   1    3846.00      48.78
   5   9   2   35815.25     531.87
   5   9   3     188.24      10.24
   5   9   4   11547.03     160.54
   5   9   5    2568.74      38.18
   5   9   6   12616.89     181.11
   5   9   7    1049.62      13.74
   5   9   8    8078.07      98.43
   5   9   9     158.23       9.66
   5   9  10    7973.42      68.63
   5   9  11      36.86       9.28
   5   9  12   33859.10     350.25
   5   9  13      65.00       9.76
   5   9  14   25920.13     388.08
   5   9  15     368.51      12.27
   5   9  16   22440.66     258.17
   5   9  17     321.14      10.94
   5   9  18    9220.59     149.47
   5   9  19     303.38      12.20
   5   9  20    2637.23      61.96
   5   9  21      49.40      11.03
   5   9  22    3983.73      79.70
   5   9  23      81.36      13.43
   5   9  24    2883.06      78.21
   5   9  25     112.62      14.16
   5   9  26    8835.96     196.74
   5   9  27     457.94      15.42
   5   9  28   10714.20     230.03
   5   9  29     292.22      16.71
   5   9  30    6051.75     114.33
   5   9  31       5.47      16.54
   5   9  32    2066.32      70.85
   5   9  33     823.63      26.04
   5  10   0    9975.21     153.87
   5  10   1    5043.08      59.68
   5  10   2   20845.67     316.45
   5  10   3      13.54       6.84
   5  10   4    8060.48     129.72
   5  10   5       0.00       9.31
   5  10   6    3186.55      53.07
   5  10   7     835.98      19.06
   5  10   8    6436.71     107.54
   5  10   9    1345.84      30.70
   5  10  10    3355.93      54.69
   5  10  11      95.08       9.90
   5  10  12    1589.00      37.52
   5  10  13     614.79      16.79
   5  10  14     518.85      16.35
   5  10  15     839.45      12.90
   5  10  16    5655.95      82.80
   5  10  17     152.76      11.64
   5  10  18     843.07      24.02
   5  10  19     123.04      10.78
   5  10  20     294.55      12.90
   5  10  21      95.87      13.41
   5  10  22     790.60      27.70
   5  10  23     801.85      30.12
   5  10  24     151.44      13.58
   5  10  25      29.61      14.26
   5  10  26    4730.88      98.46
   5  10  27     748.93      30.78
   5  10  28     514.10      20.36
   5  10  29     347.77      25.53
   5  10  30    1318.82      37.14
   5  10  31     532.71      20.23
   5  11   0   22094.17     413.58
   5  11   1    1167.85      23.64
   5  11   2    4932.56     107.14
   5  11   3    1278.20      30.36
   5  11   4   11996.15     166.96
   5  11   5     582.80      16.31
   5  11   6   32198.09     480.58
   5  11   7      26.11      10.42
   5  11   8   18530.90     274.10
   5  11   9     254.41      11.04
   5  11  10   12405.46     211.00
   5  11  11     854.36      17.00
   5  11  12    7765.15     146.79
   5  11  13    2213.98      44.36
   5  11  14    8094.57     133.38
   5  11  15    1797.00      43.26
   5  11  16    3886.87      85.33
   5  11  17     993.79      32.38
   5  11  18    8064.33     122.62
   5  11  19      10.37      11.04
   5  11  20   12087.97     203.06
   5  11  21     599.08      21.44
   5  11  22    8858.33     174.70
   5  11  23     321.00      18.40
   5  11  24    5139.14     126.62
   5  11  25    1132.26      41.89
   5  11  26    1410.84      49.10
   5  11  27     151.38      16.81
   5  11  28    2932.98      67.38
   5  11  29     279.57      21.84
   5  11  30    1058.50      42.89
   5  12   0      28.48      17.69
   5  12   1    6492.98     126.51
   5  12   2     576.32      27.71
   5  12   3      27.29      10.91
   5  12   4    5920.72     110.95
   5  12   5    1999.96      35.12
   5  12   6     183.97      11.93
   5  12   7     802.26      15.30
   5  12   8    5631.30      90.14
   5  12   9      94.03      12.83
   5  12  10    4940.95      77.14
   5  12  11      83.61      11.55
   5  12  12    1989.12      55.99
   5  12  13    1279.89      29.90
   5  12  14    5954.07     130.40
   5  12  15    2297.46      54.55
   5  12  16      18.72      12.19
   5  12  17      10.01      12.80
   5  12  18      58.35      13.40
   5  12  19     902.82      18.06
   5  12  20    8230.34     178.98
   5  12  21     539.86      16.41
   5  12  22      41.06      16.32
   5  12  23       8.96      15.73
   5  12  24     895.86      41.46
   5  12  25       0.41      17.24
   5  12  26     774.84      33.30
   5  12  27     548.47      23.06
   5  12  28      36.93      19.21
   5  13   0    4881.36     175.68
   5  13   1     226.97      11.23
   5  13   2    9745.76     175.24
   5  13   3     713.42      28.48
   5  13   4    9409.05     108.77
   5  13   5    2086.98      53.95
   5  13   6   11450.43     184.07
   5  13   7       0.00      12.94
   5  13   8    7776.93     138.82
   5  13   9    2229.42      55.64
   5  13  10    8836.03     141.08
   5  13  11     511.89      16.85
   5  13  12   11850.17     168.31
   5  13  13     263.66      15.89
   5  13  14     873.77      28.81
   5  13  15      39.34      13.30
   5  13  16    8144.82     156.06
   5  13  17     822.46      32.90
   5  13  18    8678.82     141.56
   5  13  19    1244.30      39.66
   5  13  20    1664.53      46.54
   5  13  21      22.65      15.54
   5  13  22    7407.31     152.00
   5  13  23    1136.73      41.90
   5  13  24    4792.40     137.72
   5  13  25     231.28      17.32
   5  13  26    1580.80      50.42
   5  14   0     732.68      30.88
   5  14   1      10.64      14.52
   5  14   2    4406.15     127.53
   5  14   3     613.14      16.65
   5  14   4      23.01      14.57
   5  14   5      52.62      12.26
   5  14   6     372.78      15.07
   5  14   7     348.85      17.90
   5  14   8    4688.42     104.71
   5  14   9     113.83      13.43
   5  14  10     451.18      13.96
   5  14  11    2042.71      50.45
   5  14  12    1243.10      36.53
   5  14  13    2316.02      64.62
   5  14  14    4420.29      88.70
   5  14  15    1181.81      30.12
   5  14  16     352.03      18.87
   5  14  17      66.66      15.40
   5  14  18     108.90      16.18
   5  14  19    2075.34      53.35
   5  14  20    2484.99      67.60
   5  14  21    1337.02      35.14
   5  14  22     481.83      18.20
   5  14  23      39.37      16.49
   5  14  24     687.69      30.84
   5  15   0   17813.92     464.73
   5  15   1      27.67      16.05
   5  15   2    6650.42     149.84
   5  15   3      14.66      15.27
   5  15   4    6079.53     147.40
   5  15   5     484.21      18.51
   5  15   6    3133.02      69.83
   5  15   7      21.22      16.39
   5  15   8     687.65      28.53
   5  15   9     651.06      25.82
   5  15  10    5642.66     117.39
   5  15  11      18.88      14.94
   5  15  12    6445.78     125.02
   5  15  13      83.15      14.69
   5  15  14    7246.01     123.62
   5  15  15     102.82      15.88
   5  15  16    6355.54     128.32
   5  15  17      51.98      17.17
   5  15  18    3842.97      89.61
   5  15  19     526.99      19.29
   5  15  20     516.99      22.92
   5  15  21      83.69      17.19
   5  16   0     635.34      27.13
   5  16   1     638.48      20.37
   5  16   2     483.93      24.73
   5  16   3    1711.45      42.69
   5  16   4    2072.78      57.50
   5  16   5       8.28      16.95
   5  16   6      14.13      16.54
   5  16   7    1005.49      39.10
   5  16   8      92.81      17.75
   5  16   9    1515.55      48.70
   5  16  10    2108.82      56.47
   5  16  11     927.13      21.06
   5  16  12      40.62      16.08
   5  16  13     571.80      23.97
   5  16  14     800.53      21.65
   5  16  15     828.17      24.86
   5  16  16     556.35      22.95
   5  16  17     534.92      19.92
   5  16  18     460.74      20.06
   5  17   0    2885.80      84.40
   5  17   1     188.42      17.29
   5  17   2    2406.24      48.66
   5  17   3     258.11      17.58
   5  17   4    1837.10      41.19
   5  17   5      74.96      17.86
   5  17   6    8506.99     215.20
   5  17   7     103.13      19.23
   5  17   8    6064.55     114.12
   5  17   9     230.96      17.49
   5  17  10    1272.95      44.90
   5  17  11     356.13      18.58
   5  17  12    3247.82     106.69
   5  17  13      24.09      18.94
   5  17  14    1028.65      34.13
   5  18   0      65.85      24.88
   5  18   1     278.25      18.88
   5  18   2     406.04      19.56
   5  18   3     312.32      18.40
   5  18   4     665.95      20.94
   5  18   5    1290.15      40.70
   5  18   6     656.20      32.44
   5  18   7     304.46      20.22
   6   0   0   83670.24    1563.36
   6   0   2   43150.88     709.15
   6   0   4   45923.90     950.11
   6   0   6    1932.96      35.77
   6   0   8   18751.44     259.53
   6   0  10   35938.83     177.02
   6   0  12    3466.00      54.13
   6   0  14   129776.4    2002.29
   6   0  16   14642.81     120.56
   6   0  18    3793.25      81.34
   6   0  20   31226.78     347.14
   6   0  22     197.34      20.34
   6   0  24    7305.18     109.52
   6   0  26   16640.26     230.94
   6   0  28   12836.04     213.47
   6   0  30    6469.05     169.70
   6   0  32    5248.98     152.17
   6   0  34    1182.02      46.84
   6   0  36       0.00      37.86
   6   1   0     362.59      17.74
   6   1   1    2987.19      23.38
   6   1   2   16674.73     159.03
   6   1   3     687.38      11.86
   6   1   4   16375.02     141.63
   6   1   5    9584.01      97.04
   6   1   6      94.80       6.13
   6   1   7     467.83       6.98
   6   1   8    3562.96      39.09
   6   1   9    5106.18      54.54
   6   1  10   12904.32     116.35
   6   1  11      22.25       8.75
   6   1  12    2848.84      37.64
   6   1  13     407.98      10.70
   6   1  14    5086.05      68.46
   6   1  15    1341.12      23.32
   6   1  16    7722.88     108.82
   6   1  17    1038.62      19.46
   6   1  18    3478.28      64.64
   6   1  19    4435.27      86.56
   6   1  20     967.83      25.61
   6   1  21     698.47      13.46
   6   1  22     439.95      13.71
   6   1  23    1687.18      42.62
   6   1  24    3720.38      71.33
   6   1  25       0.00      14.59
   6   1  26    3160.10      53.45
   6   1  27      63.75      14.63
   6   1  28     286.09      17.80
   6   1  29     454.63      18.69
   6   1  30    2678.15      61.67
   6   1  31     533.86      22.51
   6   1  32    1959.53      38.81
   6   1  33    1517.99      30.17
   6   1  34     177.63      22.61
   6   1  35     544.54      24.51
   6   1  36     366.41      26.22
   6   2   0    1004.87      15.70
   6   2   1     296.23       7.07
   6   2   2   75985.13     477.02
   6   2   3    5418.29      63.51
   6   2   4   31037.18     293.15
   6   2   5    3998.57      38.21
   6   2   6   16912.65     166.22
   6   2   7    1285.69      17.71
   6   2   8   85871.74     707.06
   6   2   9     163.40       8.70
   6   2  10   13764.37     128.92
   6   2  11    1657.18      18.57
   6   2  12   21642.16     226.56
   6   2  13    7855.40      65.77
   6   2  14   11053.09      94.55
   6   2  15    4866.09      59.96
   6   2  16   17975.96     200.61
   6   2  17    3056.91      47.25
   6   2  18    9757.33     125.95
   6   2  19     178.11      10.72
   6   2  20   23725.05     323.51
   6   2  21    2145.77      33.99
   6   2  22   23224.99     298.37
   6   2  23     662.97      14.47
   6   2  24    1846.43      58.65
   6   2  25    4531.97      68.70
   6   2  26   20689.93     269.77
   6   2  27      12.29      14.22
   6   2  28     236.29      14.83
   6   2  29     342.69      15.63
   6   2  30    2192.57      41.54
   6   2  31     155.19      18.52
   6   2  32   11327.94     155.56
   6   2  33    1076.74      24.93
   6   2  34     344.75      22.50
   6   2  35      67.54      21.20
   6   3   0    6371.20      47.23
   6   3   1    1014.39      13.49
   6   3   2    2246.70      20.87
   6   3   3     344.57       7.77
   6   3   4    1149.55      23.53
   6   3   5    2091.81      15.72
   6   3   6   19657.08     206.67
   6   3   7     459.46      13.19
   6   3   8   26020.31     269.80
   6   3   9     556.21       7.96
   6   3  10     177.39       9.38
   6   3  11    1565.39      18.32
   6   3  12     657.64      12.27
   6   3  13     193.10      10.65
   6   3  14   11005.57     105.99
   6   3  15      51.32      10.77
   6   3  16       3.09      10.83
   6   3  17       0.00      11.20
   6   3  18     249.71      13.22
   6   3  19       5.75      10.57
   6   3  20   20741.82     231.96
   6   3  21     114.38      11.79
   6   3  22    4928.47      90.46
   6   3  23     420.73      14.00
   6   3  24      21.63       8.66
   6   3  25     162.73      13.02
   6   3  26    2796.55      57.91
   6   3  27     162.90      14.24
   6   3  28     820.70      18.50
   6   3  29     285.64      17.55
   6   3  30     136.02      17.59
   6   3  31       5.15      17.59
   6   3  32    1217.14      29.67
   6   3  33     206.05      18.46
   6   3  34    3220.57      79.08
   6   3  35      51.26      20.54
   6   4   0   24105.00     442.41
   6   4   1   16701.87     165.45
   6   4   2   12319.48     149.83
   6   4   3    1819.43      25.27
   6   4   4   57071.71     492.30
   6   4   5     123.50       5.90
   6   4   6   20220.69     211.17
   6   4   7    6344.79      64.95
   6   4   8   26397.24     257.97
   6   4   9    5554.12      80.63
   6   4  10   56396.14     524.07
   6   4  11    6603.31      94.25
   6   4  12    1363.21      16.97
   6   4  13     194.66       7.90
   6   4  14   29502.81     305.01
   6   4  15      26.24       7.40
   6   4  16    8048.87     105.93
   6   4  17     759.78      13.49
   6   4  18   12387.61     177.14
   6   4  19    5669.92      60.31
   6   4  20   28086.21     329.48
   6   4  21     461.64      17.57
   6   4  22    4815.58      60.94
   6   4  23    1585.33      31.03
   6   4  24   20709.14     298.71
   6   4  25       0.00      12.24
   6   4  26    2941.33      54.81
   6   4  27    4095.05      72.63
   6   4  28    2791.34      65.36
   6   4  29     731.36      22.80
   6   4  30    3842.41      89.81
   6   4  31    2665.39      53.45
   6   4  32    3312.47      77.11
   6   4  33     271.36      18.87
   6   4  34    4145.54      86.94
   6   4  35     699.08      21.40
   6   5   0    8167.40     167.15
   6   5   1      33.83       6.01
   6   5   2    8684.72     120.28
   6   5   3      53.48       7.55
   6   5   4    4044.18      50.23
   6   5   5    6305.80     100.92
   6   5   6    1827.49      27.97
   6   5   7     365.12       9.74
   6   5   8    4079.48      49.05
   6   5   9   11464.14     133.45
   6   5  10    2766.05      38.33
   6   5  11     112.24       8.50
   6   5  12    4280.08      57.32
   6   5  13    1410.30      15.61
   6   5  14    9214.45     127.83
   6   5  15    2974.91      41.05
   6   5  16    3368.32      56.45
   6   5  17     311.73      10.25
   6   5  18    1291.80      27.53
   6   5  19    7412.62     107.83
   6   5  20    2275.39      37.58
   6   5  21    1395.14      30.04
   6   5  22     772.05      15.03
   6   5  23    3320.75      61.46
   6   5  24     872.10      25.97
   6   5  25    1381.42      33.60
   6   5  26    2805.28      57.65
   6   5  27     352.52      17.12
   6   5  28    1765.21      41.77
   6   5  29     467.90      18.11
   6   5  30     846.86      25.15
   6   5  31    1357.53      31.39
   6   5  32     719.10      21.23
   6   5  33     293.77      22.77
   6   5  34     178.92      21.69
   6   6   0   33785.75     648.32
   6   6   1    2541.25      46.25
   6   6   2   58196.92    1181.04
   6   6   3     115.12       7.81
   6   6   4    8004.74      89.93
   6   6   5    6568.51      89.85
   6   6   6   13188.16     141.71
   6   6   7    4217.74      53.50
   6   6   8   13641.99     232.11
   6   6   9     125.94       8.83
   6   6  10    2991.70      48.30
   6   6  11    4219.94      69.76
   6   6  12   52080.20     744.98
   6   6  13    6698.31     103.80
   6   6  14   18881.59     250.87
   6   6  15    1841.41      30.22
   6   6  16   28904.17     310.59
   6   6  17     322.25      12.24
   6   6  18   10627.70     160.31
   6   6  19    1750.23      22.35
   6   6  20    1450.68      37.86
   6   6  21    2333.90      41.60
   6   6  22    8168.42     117.14
   6   6  23     660.63      17.12
   6   6  24     803.61      22.69
   6   6  25     286.09      13.83
   6   6  26   14699.97     251.60
   6   6  27     837.22      23.76
   6   6  28    9007.64     197.21
   6   6  29     152.88      17.41
   6   6  30    5761.89     115.62
   6   6  31     111.71      18.49
   6   6  32    3363.92      73.00
   6   6  33     910.11      29.60
   6   7   0     220.04      11.46
   6   7   1     122.20       8.25
   6   7   2    8246.15     124.73
   6   7   3     592.05      11.42
   6   7   4   13807.71     278.20
   6   7   5    3405.53      49.51
   6   7   6      17.32       7.92
   6   7   7     758.54      13.22
   6   7   8     320.02      13.45
   6   7   9     763.06      16.16
   6   7  10   12757.12     179.68
   6   7  11      21.04      11.24
   6   7  12    3626.32      72.56
   6   7  13    1747.91      39.02
   6   7  14     198.44      10.59
   6   7  15     792.19      14.52
   6   7  16    7864.14     121.41
   6   7  17     966.80      25.11
   6   7  18    5550.24     100.61
   6   7  19       7.58      10.65
   6   7  20     120.69       9.99
   6   7  21     396.87      11.36
   6   7  22     625.95      23.51
   6   7  23     799.59      22.52
   6   7  24    5038.17     115.34
   6   7  25     564.20      21.78
   6   7  26     521.32      19.11
   6   7  27      91.59      16.73
   6   7  28     155.05      17.30
   6   7  29       0.00      17.79
   6   7  30    3041.94      61.16
   6   7  31     126.39      18.84
   6   7  32     781.66      30.32
   6   7  33     558.28      21.05
   6   8   0   43287.31    1199.81
   6   8   1    1655.79      21.20
   6   8   2    1634.78      32.53
   6   8   3    6154.43     105.50
   6   8   4   21253.44     379.23
   6   8   5    1749.06      47.43
   6   8   6   40913.70     516.37
   6   8   7    2338.33      39.84
   6   8   8   10263.37     115.36
   6   8   9     559.81      15.16
   6   8  10   24722.53     224.73
   6   8  11    3147.03      47.48
   6   8  12    6909.08     123.23
   6   8  13    1868.98      45.26
   6   8  14    8318.65     123.49
   6   8  15    1260.38      35.97
   6   8  16    4413.63      76.12
   6   8  17    2373.93      46.51
   6   8  18   12994.45     176.16
   6   8  19     120.76      11.09
   6   8  20   10499.55     187.72
   6   8  21     528.95      19.99
   6   8  22    6967.43     136.69
   6   8  23      50.38      14.04
   6   8  24   13552.72     235.29
   6   8  25    5610.40     112.17
   6   8  26     141.08      18.43
   6   8  27     384.43      19.89
   6   8  28    4683.46     125.08
   6   8  29      90.45      19.14
   6   8  30    1926.43      62.41
   6   8  31       0.00      19.44
   6   8  32     412.28      21.64
   6   9   0    3717.73      78.94
   6   9   1    5683.68      91.15
   6   9   2     590.96      12.00
   6   9   3     122.43      10.86
   6   9   4    1433.36      27.68
   6   9   5    4113.93      75.55
   6   9   6   11171.14     150.96
   6   9   7    1033.71      21.82
   6   9   8    5898.92      96.83
   6   9   9     591.73      20.54
   6   9  10    1114.65      29.84
   6   9  11    1308.79      30.80
   6   9  12    1759.95      34.84
   6   9  13     196.57      11.68
   6   9  14     699.19      16.76
   6   9  15    1214.88      28.90
   6   9  16     295.35      17.67
   6   9  17       9.09       9.21
   6   9  18    1778.31      43.42
   6   9  19     565.93      15.30
   6   9  20    3478.46      78.44
   6   9  21      84.28      14.31
   6   9  22    3352.89      85.58
   6   9  23     220.66      16.94
   6   9  24     636.54      34.80
   6   9  25     124.56      17.66
   6   9  26     150.66      19.72
   6   9  27     466.15      21.40
   6   9  28     509.45      24.23
   6   9  29     817.31      28.76
   6   9  30      24.09      21.11
   6  10   0    8696.11     301.08
   6  10   1      33.38      10.64
   6  10   2   13450.63     280.01
   6  10   3    3898.82      77.47
   6  10   4    8647.18     182.55
   6  10   5     399.25      17.53
   6  10   6   25193.74     390.52
   6  10   7      28.65       9.52
   6  10   8    8272.57     100.26
   6  10   9     310.75      16.26
   6  10  10    7539.97     129.94
   6  10  11    5167.98      88.67
   6  10  12   25127.01     394.65
   6  10  13     426.01      14.72
   6  10  14      17.45       8.22
   6  10  15     221.55      13.10
   6  10  16   11316.17     195.32
   6  10  17    1267.43      28.92
   6  10  18   13212.04     221.62
   6  10  19    2172.25      47.03
   6  10  20     457.26      16.90
   6  10  21     661.73      32.92
   6  10  22   12320.80     268.77
   6  10  23      41.61      17.35
   6  10  24    4822.13     112.92
   6  10  25    1393.19      48.91
   6  10  26    1288.35      72.06
   6  10  27     145.71      20.75
   6  10  28    2061.95      62.44
   6  10  29      39.79      20.63
   6  11   0   14682.27     487.38
   6  11   1     174.44      12.64
   6  11   2    1094.03      32.86
   6  11   3     174.46      12.92
   6  11   4      38.37      12.11
   6  11   5    1129.90      25.40
   6  11   6    5796.52     121.48
   6  11   7      26.36       9.25
   6  11   8     948.20      24.69
   6  11   9    1538.08      39.82
   6  11  10      27.93      10.33
   6  11  11     187.80      10.67
   6  11  12    4017.74      92.96
   6  11  13     600.34      21.69
   6  11  14    4271.26      85.15
   6  11  15     790.87      19.16
   6  11  16     801.98      27.36
   6  11  17     176.85      15.18
   6  11  18     481.32      20.28
   6  11  19    1904.63      36.70
   6  11  20    1016.56      31.17
   6  11  21     560.95      16.35
   6  11  22     836.15      33.03
   6  11  23     387.83      18.68
   6  11  24      95.78      17.96
   6  11  25      37.26      17.97
   6  11  26     725.66      22.17
   6  11  27      36.87      20.92
   6  11  28    2478.43      82.38
   6  12   0   38919.80     610.16
   6  12   1     755.07      23.46
   6  12   2    4411.34      93.44
   6  12   3     499.12      17.39
   6  12   4    6741.06     122.39
   6  12   5      31.42      14.52
   6  12   6    9761.03     235.33
   6  12   7      13.75      10.50
   6  12   8      81.12      11.04
   6  12   9       1.69      10.96
   6  12  10    7902.20     171.29
   6  12  11     926.48      27.08
   6  12  12   11215.32     205.03
   6  12  13    1669.87      42.36
   6  12  14    8536.02     186.09
   6  12  15     994.50      20.84
   6  12  16    7201.27     127.01
   6  12  17     114.01      14.38
   6  12  18    7590.68     146.70
   6  12  19    1102.40      25.74
   6  12  20     350.90      16.66
   6  12  21     794.33      21.31
   6  12  22     813.47      40.29
   6  12  23      73.42      18.25
   6  12  24    5130.07     152.38
   6  12  25      54.13      18.73
   6  12  26     529.77      29.63
   6  13   0    1065.90      41.06
   6  13   1     349.97      16.30
   6  13   2    1641.66      40.94
   6  13   3    1059.10      25.63
   6  13   4    3082.76      85.30
   6  13   5      94.44      14.45
   6  13   6     605.95      19.94
   6  13   7       0.00      13.19
   6  13   8       6.66      15.12
   6  13   9     134.62      13.16
   6  13  10    3229.04      77.94
   6  13  11    1318.64      49.16
   6  13  12    2499.11      66.02
   6  13  13     153.92      15.75
   6  13  14      44.44      15.45
   6  13  15     520.96      18.15
   6  13  16    2618.41      70.89
   6  13  17     315.57      16.98
   6  13  18    2680.29      54.12
   6  13  19      43.94      15.57
   6  13  20     272.61      17.15
   6  13  21      12.88      18.27
   6  13  22     517.54      24.24
   6  13  23      31.30      18.56
   6  13  24    1889.82      70.43
   6  14   0    4562.11     159.37
   6  14   1    4027.13     102.81
   6  14   2    3890.48      91.20
   6  14   3       0.00      14.93
   6  14   4    2599.62      63.40
   6  14   5      12.14      14.55
   6  14   6   14356.83     175.72
   6  14   7    1266.42      33.35
   6  14   8    6736.61     142.18
   6  14   9    1676.43      54.04
   6  14  10    2023.89      68.58
   6  14  11      83.74      16.11
   6  14  12    7279.04     131.99
   6  14  13      83.40      16.29
   6  14  14     385.54      17.85
   6  14  15     122.17      17.26
   6  14  16    2534.55      74.96
   6  14  17      63.01      17.45
   6  14  18    4068.41     103.05
   6  14  19     734.45      26.69
   6  14  20    2357.62      77.04
   6  14  21      22.40      19.59
   6  15   0     330.73      22.81
   6  15   1     166.48      16.59
   6  15   2     189.65      16.25
   6  15   3     335.27      16.10
   6  15   4    1375.79      40.40
   6  15   5     584.23      21.83
   6  15   6    2370.01      79.67
   6  15   7      25.78      18.66
   6  15   8     671.36      22.37
   6  15   9     843.36      27.24
   6  15  10    1591.59      64.90
   6  15  11     528.12      25.54
   6  15  12     677.68      32.54
   6  15  13     240.82      18.19
   6  15  14      98.36      17.36
   6  15  15     603.00      22.96
   6  15  16     503.97      21.05
   6  15  17      15.90      18.47
   6  15  18    1399.17      42.95
   6  16   0    4225.89     185.21
   6  16   1      27.21      16.61
   6  16   2    1891.89      55.64
   6  16   3      50.92      16.88
   6  16   4    4568.28     108.28
   6  16   5    2583.04      79.44
   6  16   6    3769.07     118.73
   6  16   7     443.76      19.96
   6  16   8    2388.58      66.83
   6  16   9     904.50      43.92
   6  16  10    4377.86     113.34
   6  16  11     293.53      18.99
   6  16  12    1568.56      56.45
   6  16  13    2351.19      68.06
   6  16  14    2090.68      62.15
   6  17   0    3780.79     159.48
   6  17   1      15.42      18.89
   6  17   2     308.98      19.95
   6  17   3      64.20      20.00
   6  17   4      19.82      18.36
   6  17   5     195.65      19.12
   6  17   6    1598.30      60.18
   6  17   7      92.26      20.06
   6  17   8     414.96      22.05
   7   0   0     434.40      13.71
   7   0   2   15475.63     250.33
   7   0   4     554.95      20.38
   7   0   6    9119.72     150.13
   7   0   8   45921.83     757.72
   7   0  10     533.17      35.98
   7   0  12    1361.76      36.04
   7   0  14    9247.01     146.21
   7   0  16     181.04      17.90
   7   0  18      28.68      14.07
   7   0  20   23567.18     419.88
   7   0  22    7233.43     155.61
   7   0  24    2182.50      75.34
   7   0  26    9580.26     188.12
   7   0  28       7.07      29.19
   7   0  30     332.09      32.54
   7   0  32    3929.37     180.82
   7   1   0   21266.96     379.49
   7   1   1    4472.78      64.07
   7   1   2   12836.22     160.14
   7   1   3     502.76      13.57
   7   1   4   20493.11     402.06
   7   1   5    2575.84      44.74
   7   1   6   35248.36     574.24
   7   1   7     103.20      10.96
   7   1   8   18237.89     195.61
   7   1   9    3298.74      50.02
   7   1  10   19008.54     211.27
   7   1  11      73.67       9.81
   7   1  12   18438.71     269.38
   7   1  13    4313.24      65.32
   7   1  14    3827.02      55.23
   7   1  15    2334.23      37.67
   7   1  16   10669.24     191.35
   7   1  17    1058.34      20.93
   7   1  18   15096.29     173.29
   7   1  19     146.53      10.03
   7   1  20    6868.87      94.25
   7   1  21    1138.14      20.48
   7   1  22   13428.01     137.42
   7   1  23    2403.41      46.93
   7   1  24    8772.32     115.47
   7   1  25     258.18      18.24
   7   1  26    1796.93      35.92
   7   1  27     639.46      23.90
   7   1  28    3129.88      40.11
   7   1  29     161.40      21.81
   7   1  30    2417.90      56.66
   7   1  31     629.97      25.85
   7   1  32    1350.11      35.57
   7   1  33      83.04      29.78
   7   2   0    5542.15     111.44
   7   2   1       3.75       5.76
   7   2   2    7337.99      89.40
   7   2   3       0.00       6.80
   7   2   4   17448.86     274.36
   7   2   5    4957.81      83.48
   7   2   6     183.30       5.10
   7   2   7     671.02      13.69
   7   2   8    3748.31      64.17
   7   2   9   10649.28     131.52
   7   2  10   16128.42     253.45
   7   2  11       6.90      11.07
   7   2  12     203.75      11.53
   7   2  13    1958.82      23.45
   7   2  14   20426.06     309.89
   7   2  15    2954.83      41.16
   7   2  16    2365.39      57.63
   7   2  17     263.75      13.18
   7   2  18     642.27      15.90
   7   2  19    8290.55     106.41
   7   2  20    6815.89     107.83
   7   2  21    1716.77      28.94
   7   2  22     212.42      14.37
   7   2  23    2912.57      44.00
   7   2  24    3605.19      50.94
   7   2  25    1293.31      29.88
   7   2  26    2740.56      58.28
   7   2  27     511.49      20.07
   7   2  28     836.99      22.25
   7   2  29     307.44      21.51
   7   2  30    1394.99      30.79
   7   2  31    1498.67      47.64
   7   2  32    1368.78      47.57
   7   2  33     228.31      28.36
   7   3   0   58081.52     768.25
   7   3   1    3565.28      44.29
   7   3   2   23532.85     377.77
   7   3   3    1041.66      10.38
   7   3   4   13581.46     155.48
   7   3   5       5.26       7.02
   7   3   6   14165.70     209.38
   7   3   7     904.37      15.06
   7   3   8    3894.25      79.05
   7   3   9    1766.58      22.77
   7   3  10   11470.52     240.87
   7   3  11     762.46      12.15
   7   3  12   26286.92     338.36
   7   3  13     284.52      11.54
   7   3  14   22863.13     321.13
   7   3  15     102.44      11.42
   7   3  16   18398.91     253.98
   7   3  17      31.18      11.97
   7   3  18   10417.91     113.67
   7   3  19      75.77      12.79
   7   3  20    2097.20      34.14
   7   3  21      67.53      13.45
   7   3  22    2548.43      40.27
   7   3  23     764.40      16.53
   7   3  24    5034.28      79.30
   7   3  25    1046.10      21.70
   7   3  26    5008.54      92.53
   7   3  27     606.01      18.24
   7   3  28   10901.64     165.41
   7   3  29      32.09      16.61
   7   3  30    5451.01      87.06
   7   3  31     247.07      22.74
   7   3  32    1222.21      25.81
   7   3  33     389.94      22.59
   7   4   0    1922.04      37.00
   7   4   1    2736.23      56.76
   7   4   2   25403.40     313.26
   7   4   3     351.52      13.55
   7   4   4   10363.00     156.37
   7   4   5   11956.66     153.02
   7   4   6     161.17       6.10
   7   4   7    3590.34      56.49
   7   4   8    4669.55      97.66
   7   4   9    1709.39      29.08
   7   4  10    5761.80      83.13
   7   4  11    1006.24      13.66
   7   4  12    7683.38     121.19
   7   4  13    3393.99      75.07
   7   4  14     215.55      11.10
   7   4  15     697.40      13.69
   7   4  16   10920.55     160.79
   7   4  17    1431.99      31.23
   7   4  18    3714.66      60.82
   7   4  19      17.61      12.95
   7   4  20      23.01      13.12
   7   4  21     803.83      16.66
   7   4  22    2087.86      31.61
   7   4  23    1646.66      34.56
   7   4  24    1299.78      28.95
   7   4  25     672.56      23.45
   7   4  26    4111.22      91.35
   7   4  27     538.14      17.64
   7   4  28      18.68      16.34
   7   4  29     170.20      17.91
   7   4  30    2772.98      70.08
   7   4  31      41.58      17.99
   7   4  32    2380.94      54.09
   7   5   0   11761.74     279.75
   7   5   1     175.01      11.25
   7   5   2   13232.86     217.04
   7   5   3    4592.81      65.10
   7   5   4   15954.86     244.91
   7   5   5      25.70       9.73
   7   5   6   27143.36     357.92
   7   5   7     416.87      12.94
   7   5   8   20747.99     266.58
   7   5   9      85.23       7.36
   7   5  10   12865.84     220.62
   7   5  11    8240.14      99.52
   7   5  12   13195.20     194.71
   7   5  13    1162.80      21.76
   7   5  14    3912.47      64.13
   7   5  15     305.55      11.85
   7   5  16    7441.02     106.74
   7   5  17     968.59      28.56
   7   5  18   10486.55     181.00
   7   5  19    2693.39      45.81
   7   5  20    8244.71     151.18
   7   5  21     845.90      18.84
   7   5  22   11535.93     206.92
   7   5  23      36.38      15.03
   7   5  24    5400.82     112.67
   7   5  25    1283.80      23.28
   7   5  26    2619.64      54.82
   7   5  27     298.68      17.90
   7   5  28    1907.38      51.30
   7   5  29     144.37      17.34
   7   5  30    1609.94      42.44
   7   5  31     439.52      19.62
   7   5  32    1954.97      66.87
   7   6   0   16677.48     419.58
   7   6   1   11984.24     185.56
   7   6   2     104.03       9.40
   7   6   3      32.48      10.15
   7   6   4    2728.86      74.99
   7   6   5    6177.76      68.70
   7   6   6   18602.38     214.53
   7   6   7    4525.34      75.64
   7   6   8    7099.90      90.83
   7   6   9       6.93       8.75
   7   6  10    3297.85      70.76
   7   6  11    1531.41      31.66
   7   6  12     130.67       7.92
   7   6  13     167.69       8.07
   7   6  14    5958.05      98.88
   7   6  15     203.46      11.91
   7   6  16      17.84       9.39
   7   6  17     212.16      10.96
   7   6  18    1410.24      27.08
   7   6  19      25.31      10.90
   7   6  20    9892.71     171.53
   7   6  21      79.78      15.49
   7   6  22    2046.54      43.87
   7   6  23      35.46      15.12
   7   6  24    1615.90      42.88
   7   6  25     287.13      18.26
   7   6  26      67.60      17.79
   7   6  27    1729.36      44.87
   7   6  28    1419.18      38.36
   7   6  29     866.63      26.12
   7   6  30       5.31      19.47
   7   6  31     255.00      20.08
   7   7   0   10825.59     320.13
   7   7   1    1524.32      30.47
   7   7   2    9272.87     183.93
   7   7   3    5055.56     104.57
   7   7   4   17179.36     396.37
   7   7   5    2161.80      73.72
   7   7   6   14783.51     208.58
   7   7   7    1218.88      21.60
   7   7   8   13296.42     203.59
   7   7   9      44.02       9.17
   7   7  10   16132.52     221.81
   7   7  11    3174.11      73.38
   7   7  12    5987.65     108.47
   7   7  13     302.85      10.86
   7   7  14    7112.49     142.68
   7   7  15     123.54       8.72
   7   7  16    5589.70     106.00
   7   7  17    1855.67      43.53
   7   7  18    6883.76     129.37
   7   7  19     170.26      14.73
   7   7  20    7936.67     194.65
   7   7  21      15.97      16.44
   7   7  22    5452.52      94.54
   7   7  23       8.04      17.11
   7   7  24    6250.05     112.42
   7   7  25    3629.02      96.55
   7   7  26    2026.82      61.18
   7   7  27     140.05      18.75
   7   7  28    1673.54      48.97
   7   7  29      13.78      18.92
   7   7  30    1869.99      46.84
   7   8   0   11820.95     311.62
   7   8   1     216.86       9.16
   7   8   2    4999.18     126.15
   7   8   3     375.90      13.58
   7   8   4      12.43      10.92
   7   8   5    1134.13      25.30
   7   8   6    8569.19     143.87
   7   8   7     465.44      18.71
   7   8   8    1577.44      37.87
   7   8   9    3275.39      60.29
   7   8  10      23.72      10.95
   7   8  11    1149.47      28.58
   7   8  12   13620.07     166.49
   7   8  13    3892.23      61.71
   7   8  14    1022.23      26.37
   7   8  15    3854.58      83.83
   7   8  16    3248.08      80.57
   7   8  17     206.50      15.10
   7   8  18    1924.29      55.42
   7   8  19    6053.43     152.72
   7   8  20      38.05      17.64
   7   8  21    2456.47      63.53
   7   8  22    2872.39      87.37
   7   8  23     492.83      19.61
   7   8  24      64.68      17.92
   7   8  25     239.26      18.72
   7   8  26    1215.71      49.58
   7   8  27     215.58      19.90
   7   8  28    2706.26      75.41
   7   8  29     201.36      19.90
   7   9   0   14723.11     518.13
   7   9   1      61.22       9.20
   7   9   2   20065.72     162.44
   7   9   3     452.22      13.37
   7   9   4    7468.58     175.05
   7   9   5     138.37      13.98
   7   9   6    2899.03      77.43
   7   9   7     112.12      11.26
   7   9   8    5556.79     122.59
   7   9   9       0.00       9.81
   7   9  10    4268.32      97.67
   7   9  11    1365.97      33.91
   7   9  12   11712.78     159.09
   7   9  13    1829.93      48.80
   7   9  14   13021.60     181.68
   7   9  15     880.68      16.22
   7   9  16    9505.98     165.08
   7   9  17      33.85      14.32
   7   9  18    3574.71      78.52
   7   9  19     934.10      34.48
   7   9  20    2072.20      53.06
   7   9  21     886.47      23.82
   7   9  22    1456.91      45.36
   7   9  23     139.58      21.23
   7   9  24    1042.88      45.90
   7   9  25      22.27      19.88
   7   9  26    5159.30     123.74
   7   9  27      24.30      19.65
   7   9  28    3635.33      91.40
   7  10   0    7397.19     303.88
   7  10   1     196.15      12.22
   7  10   2     440.61      12.67
   7  10   3    2077.44      67.96
   7  10   4    6644.73     157.28
   7  10   5      91.23      11.66
   7  10   6    2248.33      66.82
   7  10   7     226.21      14.07
   7  10   8     797.20      17.61
   7  10   9     156.70      13.29
   7  10  10   10861.98     256.34
   7  10  11    1847.20      46.65
   7  10  12    3220.62      69.02
   7  10  13      19.84      13.34
   7  10  14      13.20      13.76
   7  10  15     126.02      13.38
   7  10  16    3856.27      76.78
   7  10  17     673.27      21.09
   7  10  18    5744.84      99.46
   7  10  19      12.29      15.42
   7  10  20     719.70      18.58
   7  10  21      21.05      18.74
   7  10  22     333.18      21.57
   7  10  23      43.62      20.45
   7  10  24    5686.69     127.04
   7  10  25    1347.12      43.08
   7  10  26     327.27      22.43
   7  11   0    3736.82     168.73
   7  11   1    2108.82      54.03
   7  11   2    4743.55     126.24
   7  11   3      79.07      11.06
   7  11   4   10080.31     295.18
   7  11   5     168.04      14.49
   7  11   6    7468.16     195.92
   7  11   7     407.75      15.62
   7  11   8   11029.84     245.63
   7  11   9    1190.76      31.81
   7  11  10    7739.45     133.05
   7  11  11     146.49      14.36
   7  11  12    1166.24      52.52
   7  11  13     419.09      15.32
   7  11  14    5782.75     126.44
   7  11  15     263.54      18.94
   7  11  16    1733.02      55.11
   7  11  17     183.16      20.50
   7  11  18    2244.82      67.63
   7  11  19     333.38      17.38
   7  11  20    8286.38     142.75
   7  11  21      67.64      18.92
   7  11  22    2582.22      85.58
   7  11  23     544.45      29.48
   7  11  24    2565.34      83.16
   7  11  25       0.00      20.71
   7  12   0    1469.51      77.02
   7  12   1      19.29      12.90
   7  12   2     478.76      19.43
   7  12   3    1189.97      42.68
   7  12   4     613.77      27.08
   7  12   5    1111.60      26.69
   7  12   6    9547.69     172.40
   7  12   7     141.64      15.46
   7  12   8    1633.12      72.14
   7  12   9    2430.68      59.62
   7  12  10     548.76      17.74
   7  12  11    1595.37      53.85
   7  12  12    4012.57     113.29
   7  12  13     169.51      15.31
   7  12  14     647.30      34.71
   7  12  15     706.92      27.08
   7  12  16    1058.85      34.92
   7  12  17      68.01      18.33
   7  12  18    2547.78      88.45
   7  12  19     986.16      35.81
   7  12  20     135.61      18.83
   7  12  21      83.97      21.99
   7  12  22    3152.29     112.57
   7  12  23     730.06      27.52
   7  13   0     654.14      43.40
   7  13   1     616.37      19.64
   7  13   2    7729.09     174.26
   7  13   3     198.89      17.58
   7  13   4    5319.93     131.25
   7  13   5     791.83      36.01
   7  13   6    2629.85      79.84
   7  13   7      39.77      16.74
   7  13   8    7560.10     149.18
   7  13   9    1064.13      38.52
   7  13  10    3182.53      71.64
   7  13  11      79.13      15.61
   7  13  12    2647.14      75.80
   7  13  13     661.53      24.99
   7  13  14    2712.82      68.64
   7  13  15     241.57      18.29
   7  13  16    2560.46      87.01
   7  13  17     339.04      22.29
   7  13  18    1667.20      66.93
   7  13  19     177.65      18.84
   7  13  20    3333.89     111.68
   7  14   0   10859.08     256.23
   7  14   1      20.26      18.40
   7  14   2     102.28      17.32
   7  14   3       7.91      16.93
   7  14   4      15.05      16.84
   7  14   5    1886.91      74.37
   7  14   6    3814.17      92.07
   7  14   7     398.35      17.93
   7  14   8     254.70      19.04
   7  14   9     554.43      22.40
   7  14  10      72.05      16.42
   7  14  11     468.09      17.54
   7  14  12    1687.96      71.43
   7  14  13    1531.63      56.83
   7  14  14    2802.92      89.76
   7  14  15     454.85      27.97
   7  14  16     250.25      19.75
   7  14  17     187.48      21.84
   7  15   0    5805.51     228.12
   7  15   1      48.35      20.52
   7  15   2    4348.38     103.98
   7  15   3       5.90      19.20
   7  15   4    3608.31     102.27
   7  15   5     279.20      20.98
   7  15   6     450.42      18.85
   7  15   7      40.56      19.19
   7  15   8    1409.61      54.80
   7  15   9     169.80      18.57
   7  15  10    2922.81      92.23
   7  15  11     119.35      18.22
   7  15  12    1224.57      55.34
   7  15  13     270.96      18.29
   7  16   0     177.19      29.24
   7  16   1    3480.50      88.15
   7  16   2    1371.64      34.60
   7  16   3      65.85      20.02
   7  16   4    1052.70      46.14
   7  16   5     597.16      29.52
   7  16   6     139.09      19.41
   7  16   7     936.94      30.52
   8   0   0   38323.77     677.85
   8   0   2   17093.73     529.94
   8   0   4    6588.83     192.78
   8   0   6   14051.28     311.22
   8   0   8    1055.27      41.18
   8   0  10    5608.73     163.38
   8   0  12   30571.36     834.86
   8   0  14    4413.81     130.76
   8   0  16   15829.62     387.13
   8   0  18   11517.76     236.88
   8   0  20      11.31      31.61
   8   0  22    3775.07      46.58
   8   0  24    3571.81      87.44
   8   0  26    1887.38      46.22
   8   0  28    6903.72     151.61
   8   0  30    4468.28     124.42
   8   1   0    8001.85     175.28
   8   1   1    1281.88      25.12
   8   1   2    5358.44      94.12
   8   1   3     568.83       9.44
   8   1   4    8052.23     150.15
   8   1   5    6411.96     128.64
   8   1   6    2960.71      64.12
   8   1   7     191.67      12.74
   8   1   8     108.30      10.75
   8   1   9   10198.54     169.77
   8   1  10    8102.71     135.73
   8   1  11    1737.36      20.29
   8   1  12    6964.81     116.44
   8   1  13     675.94      25.61
   8   1  14     458.84      16.22
   8   1  15       0.00      11.25
   8   1  16    6432.56     103.19
   8   1  17     236.90      12.22
   8   1  18    5611.92     125.31
   8   1  19    1825.04      40.78
   8   1  20     125.89      18.24
   8   1  21      32.59      18.29
   8   1  22    1186.76      28.65
   8   1  23    4452.11      58.06
   8   1  24    4189.27      59.49
   8   1  25    1139.33      30.35
   8   1  26     161.90      21.16
   8   1  27     471.58      22.75
   8   1  28    1444.19      44.50
   8   1  29      69.97      22.02
   8   1  30    2298.47      41.69
   8   2   0   25858.79     487.78
   8   2   1    1298.59      25.01
   8   2   2    3223.31      60.45
   8   2   3    1079.64      28.91
   8   2   4   10933.00     218.19
   8   2   5     115.63       7.61
   8   2   6   26268.66     291.20
   8   2   7     825.39      14.53
   8   2   8    6827.19     136.71
   8   2   9    1450.39      24.80
   8   2  10   13033.87     210.06
   8   2  11    2264.17      50.67
   8   2  12   10547.30     189.53
   8   2  13     251.01      11.96
   8   2  14    2338.53      39.25
   8   2  15     129.78      11.79
   8   2  16    5030.91      85.30
   8   2  17     424.37      16.69
   8   2  18   10544.70     173.03
   8   2  19    2409.96      46.74
   8   2  20    3516.25      69.02
   8   2  21     242.33      18.06
   8   2  22    7359.56     131.07
   8   2  23     343.69      18.88
   8   2  24    7334.53      89.26
   8   2  25      62.80      19.32
   8   2  26     212.38      21.98
   8   2  27     603.10      23.23
   8   2  28    3063.31      47.15
   8   2  29      52.04      23.11
   8   2  30    1451.37      33.32
   8   3   0   10181.83     260.55
   8   3   1    2618.97      48.68
   8   3   2     701.81      14.94
   8   3   3     606.78      14.43
   8   3   4     337.09      12.55
   8   3   5      38.80       6.70
   8   3   6   25470.23     399.02
   8   3   7       8.56       7.82
   8   3   8   10779.21     237.55
   8   3   9     107.41      10.39
   8   3  10     130.27      11.75
   8   3  11    1487.05      34.93
   8   3  12    4482.80      83.81
   8   3  13    4644.05      80.26
   8   3  14    1521.93      38.66
   8   3  15    2946.00      67.04
   8   3  16     292.81      13.19
   8   3  17      14.62      12.07
   8   3  18    1891.41      46.69
   8   3  19    1563.43      37.15
   8   3  20    6353.95     119.14
   8   3  21    1811.34      40.61
   8   3  22    5778.80     118.44
   8   3  23     455.63      19.75
   8   3  24     156.84      17.92
   8   3  25      34.31      18.47
   8   3  26     501.23      19.20
   8   3  27      69.39      18.84
   8   3  28    1283.86      32.68
   8   3  29     127.00      20.16
   8   3  30      10.31      20.81
   8   4   0    8449.30     291.25
   8   4   1    1292.98      28.93
   8   4   2    9905.77     143.21
   8   4   3    2139.69      54.24
   8   4   4    8081.41     135.73
   8   4   5    4175.72      97.49
   8   4   6   20551.35     268.72
   8   4   7    2101.09      45.61
   8   4   8   12395.44     143.84
   8   4   9      12.84       7.94
   8   4  10    6639.76     147.65
   8   4  11     189.97      13.50
   8   4  12   12162.42     235.50
   8   4  13    2331.67      72.09
   8   4  14    2236.41      43.58
   8   4  15     836.05      18.31
   8   4  16    5935.78      98.76
   8   4  17    1473.41      30.20
   8   4  18    6563.75     105.56
   8   4  19      45.58      13.24
   8   4  20    3933.20      59.73
   8   4  21     670.72      17.04
   8   4  22    8325.65     122.00
   8   4  23     208.09      17.31
   8   4  24    3187.84      83.31
   8   4  25    2387.95      64.86
   8   4  26    1831.87      71.63
   8   4  27     233.97      21.54
   8   4  28    1784.77      64.82
   8   4  29      27.62      21.46
   8   5   0   14341.83     587.32
   8   5   1   10220.06     244.41
   8   5   2    2898.05      73.12
   8   5   3    1983.70      44.57
   8   5   4    3235.40      76.99
   8   5   5    6770.13     112.89
   8   5   6    3917.39      77.61
   8   5   7    2349.31      48.59
   8   5   8     918.09      24.97
   8   5   9     599.36      12.44
   8   5  10    3417.93      85.88
   8   5  11     460.86      16.40
   8   5  12    3670.66      74.97
   8   5  13     623.44      25.94
   8   5  14    4856.46     170.96
   8   5  15    1635.61      33.35
   8   5  16    2523.27      70.97
   8   5  17    1075.16      27.71
   8   5  18    1841.47      49.94
   8   5  19    1903.10      47.85
   8   5  20     943.38      19.98
   8   5  21     674.04      18.22
   8   5  22     520.69      18.03
   8   5  23     152.12      17.02
   8   5  24    1641.98      45.80
   8   5  25     818.95      32.74
   8   5  26     802.69      36.41
   8   5  27     777.68      33.78
   8   5  28    2207.68      73.30
   8   5  29     642.17      28.94
   8   6   0   19494.81     690.23
   8   6   1    1448.21      46.33
   8   6   2   13394.90     233.12
   8   6   3      51.29       9.51
   8   6   4   10189.66     213.89
   8   6   5    1375.30      34.77
   8   6   6    2559.63      57.74
   8   6   7    1804.34      44.78
   8   6   8    3316.92      65.45
   8   6   9     115.27       9.04
   8   6  10    7601.88     166.19
   8   6  11    1279.51      33.29
   8   6  12    6702.79     181.81
   8   6  13    1998.00      52.71
   8   6  14   14665.26     260.01
   8   6  15     632.37      17.08
   8   6  16    7886.28     195.41
   8   6  17      27.36      16.47
   8   6  18    3781.15     103.39
   8   6  19    1197.15      39.18
   8   6  20    2421.33      57.15
   8   6  21     880.35      29.33
   8   6  22     559.11      19.16
   8   6  23      26.31      17.61
   8   6  24    2459.83      62.71
   8   6  25     248.91      20.97
   8   6  26    3347.99      94.25
   8   6  27     544.88      21.99
   8   6  28    3807.35     120.15
   8   7   0      13.76       7.23
   8   7   1      60.55       9.83
   8   7   2    9200.41     183.41
   8   7   3    2496.17      83.48
   8   7   4    7306.33     205.24
   8   7   5      10.60      10.36
   8   7   6      53.21      10.48
   8   7   7     204.27      11.01
   8   7   8     962.10      25.72
   8   7   9      91.99      11.03
   8   7  10    5599.94     128.40
   8   7  11    4285.14      94.10
   8   7  12    4210.04      82.96
   8   7  13    2414.96      43.47
   8   7  14      71.27      16.37
   8   7  15     855.36      22.36
   8   7  16    5698.48     147.59
   8   7  17     463.60      19.32
   8   7  18    3587.91      88.21
   8   7  19    2345.71      57.43
   8   7  20      86.59      17.87
   8   7  21    1358.30      31.05
   8   7  22     988.17      27.55
   8   7  23      44.51      17.64
   8   7  24    2135.97      66.43
   8   7  25     336.89      19.32
   8   7  26     927.48      32.80
   8   7  27      52.87      19.64
   8   8   0     463.91      47.37
   8   8   1    2201.73      66.59
   8   8   2    9114.01     118.65
   8   8   3     169.79      12.02
   8   8   4    9303.89     185.41
   8   8   5      39.19      12.27
   8   8   6    4702.51     113.78
   8   8   7    1055.12      32.07
   8   8   8   14544.81     251.22
   8   8   9    1537.10      39.29
   8   8  10    5929.36      97.60
   8   8  11     713.78      20.47
   8   8  12    2132.83      50.54
   8   8  13      67.02      13.74
   8   8  14    4191.96      89.92
   8   8  15      24.11      15.51
   8   8  16    2706.56      74.64
   8   8  17     126.96      17.27
   8   8  18    2170.59      61.02
   8   8  19    1450.21      42.19
   8   8  20    7090.93     177.19
   8   8  21      87.20      19.33
   8   8  22    3295.70      92.24
   8   8  23     368.99      20.67
   8   8  24    1378.04      31.95
   8   8  25      53.31      18.66
   8   8  26    2980.27      80.71
   8   9   0    2484.73     113.50
   8   9   1     363.17      15.56
   8   9   2     379.93      18.18
   8   9   3    1662.97      64.38
   8   9   4    2865.73      84.23
   8   9   5     865.92      20.83
   8   9   6    5095.83      97.88
   8   9   7     546.20      15.03
   8   9   8    6551.13     139.55
   8   9   9    3400.31      88.21
   8   9  10    2361.84      68.05
   8   9  11    1740.61      55.21
   8   9  12       7.20      14.43
   8   9  13     156.95      15.43
   8   9  14    2776.83      66.28
   8   9  15     630.33      21.84
   8   9  16      70.90      18.75
   8   9  17     127.66      19.96
   8   9  18     576.22      22.04
   8   9  19    1193.97      35.82
   8   9  20    5246.49     141.92
   8   9  21      64.46      19.25
   8   9  22     953.95      34.16
   8   9  23    1049.60      44.05
   8   9  24     811.09      31.76
   8  10   0    1460.24     138.52
   8  10   1     282.21      18.14
   8  10   2    6532.33     180.72
   8  10   3     402.34      16.76
   8  10   4    7749.22     277.41
   8  10   5     822.79      33.69
   8  10   6    2173.03      78.82
   8  10   7      12.34      13.46
   8  10   8   11249.73     244.83
   8  10   9     581.64      23.96
   8  10  10    4934.78     120.49
   8  10  11     165.37      16.94
   8  10  12     679.96      28.13
   8  10  13     783.45      31.45
   8  10  14    7021.74     129.10
   8  10  15     343.46      19.86
   8  10  16    1557.28      48.94
   8  10  17     403.26      22.69
   8  10  18     977.93      39.69
   8  10  19     114.98      21.05
   8  10  20    6140.10     162.23
   8  10  21     166.59      21.93
   8  10  22    1407.76      47.93
   8  10  23     397.27      23.27
   8  11   0    1984.06      98.15
   8  11   1      37.08      16.19
   8  11   2    4556.89     120.66
   8  11   3      35.38      16.93
   8  11   4     154.91      16.67
   8  11   5    2494.15      81.37
   8  11   6     956.09      28.08
   8  11   7      73.24      14.33
   8  11   8    3653.66     102.96
   8  11   9    2174.93      81.31
   8  11  10      50.39      16.92
   8  11  11     546.11      22.99
   8  11  12    2217.80      70.53
   8  11  13     734.61      29.60
   8  11  14    4110.46     114.95
   8  11  15      61.75      19.43
   8  11  16     801.17      31.09
   8  11  17     144.76      20.65
   8  11  18      25.06      25.05
   8  11  19     192.51      23.34
   8  11  20    1793.33      67.76
   8  12   0    2710.24     106.27
   8  12   1      37.46      19.44
   8  12   2    8729.02     233.83
   8  12   3       0.00      17.09
   8  12   4    4088.26     124.73
   8  12   5     161.84      17.62
   8  12   6     144.80      18.06
   8  12   7      70.61      17.86
   8  12   8    3362.90     102.45
   8  12   9      11.86      16.73
   8  12  10    2114.47      67.60
   8  12  11      73.08      16.83
   8  12  12    1825.74      63.29
   8  12  13     489.20      20.46
   8  12  14    6894.31     166.01
   8  12  15     267.43      20.87
   8  12  16    3211.90     110.51
   8  12  17      60.53      19.95
   8  12  18     751.99      34.90
   8  13   0     385.19      30.12
   8  13   1    1599.32      55.19
   8  13   2    1657.64      69.85
   8  13   3     157.02      19.42
   8  13   4    4594.55     154.23
   8  13   5       0.00      17.84
   8  13   6      75.60      19.11
   8  13   7      89.44      18.14
   8  13   8     418.44      20.04
   8  13   9      89.84      20.39
   8  13  10    3903.92     128.08
   8  13  11      84.25      17.60
   8  13  12      13.09      18.11
   8  13  13     792.27      44.55
   8  13  14    1769.84      74.96
   8  13  15     877.49      45.45
   8  14   0     371.91      28.53
   8  14   1     516.54      29.69
   8  14   2    2372.20      97.31
   8  14   3     507.51      26.87
   8  14   4    3381.49     100.63
   8  14   5     641.63      38.77
   8  14   6    1999.58      63.13
   8  14   7     426.74      22.95
   8  14   8    4502.54     146.67
   8  14   9      15.40      22.98
   8  14  10    2205.82      79.58
   9   0   0   12818.62     475.64
   9   0   2     172.55      10.83
   9   0   4     119.19      12.03
   9   0   6   21925.96     130.03
   9   0   8    5732.06     208.36
   9   0  10      58.60      23.33
   9   0  12    5746.87     201.76
   9   0  14     315.83      26.54
   9   0  16     297.65      25.52
   9   0  18    2593.07     112.31
   9   0  20    2866.54      99.57
   9   0  22    5196.13     119.00
   9   0  24     298.72      30.43
   9   0  26      64.01      30.33
   9   1   0    2885.78     106.33
   9   1   1    1173.54      33.15
   9   1   2    6980.23     148.11
   9   1   3    2563.85      82.78
   9   1   4    7531.84     192.84
   9   1   5     269.90       8.71
   9   1   6    5115.85      85.72
   9   1   7      19.96       9.59
   9   1   8   11328.11     181.73
   9   1   9      13.09      15.87
   9   1  10    5616.14     198.82
   9   1  11    3105.80      79.47
   9   1  12    1612.21      56.21
   9   1  13    1014.04      38.85
   9   1  14    7019.81     212.97
   9   1  15     684.25      31.75
   9   1  16    2022.42      51.45
   9   1  17     561.89      21.02
   9   1  18    1691.80      49.49
   9   1  19    1468.16      52.97
   9   1  20    7761.55     189.75
   9   1  21     578.52      25.28
   9   1  22    2465.96      84.90
   9   1  23      70.38      19.30
   9   1  24    1441.70      42.83
   9   1  25     908.59      37.28
   9   1  26    2590.64      83.73
   9   1  27      40.73      25.32
   9   2   0   12600.45     394.33
   9   2   1    1948.08      54.21
   9   2   2    2078.51      74.14
   9   2   3     208.65      13.85
   9   2   4    3597.69      97.09
   9   2   5    6343.92     129.27
   9   2   6    4759.58     114.67
   9   2   7     795.91      33.61
   9   2   8      42.22      12.91
   9   2   9    2174.06      61.64
   9   2  10    4147.73      86.78
   9   2  11     168.75      14.75
   9   2  12    5679.90     194.61
   9   2  13     115.03      15.07
   9   2  14    1042.82      40.87
   9   2  15     139.97      16.48
   9   2  16    3409.58     112.48
   9   2  17     653.95      23.03
   9   2  18    3382.22      89.88
   9   2  19     776.82      26.94
   9   2  20      13.30      19.26
   9   2  21      13.77      19.64
   9   2  22     861.90      39.04
   9   2  23    1039.75      47.84
   9   2  24    2739.71      91.70
   9   2  25      61.44      23.57
   9   2  26     111.52      25.33
   9   3   0    5674.47     180.98
   9   3   1    2717.28      71.06
   9   3   2   16871.17     309.30
   9   3   3    1234.67      53.50
   9   3   4    7997.89     184.83
   9   3   5       1.47       7.49
   9   3   6     626.49      20.45
   9   3   7     693.19      29.24
   9   3   8    4346.72     109.73
   9   3   9    1364.04      48.82
   9   3  10    4678.70      97.59
   9   3  11     974.23      35.45
   9   3  12    5562.00      90.55
   9   3  13     221.34      16.63
   9   3  14    7589.35     108.80
   9   3  15      74.05      18.33
   9   3  16    6651.44     183.02
   9   3  17     168.33      18.10
   9   3  18    2686.94      73.85
   9   3  19      27.92      18.99
   9   3  20    1573.04      49.58
   9   3  21      74.10      19.02
   9   3  22     665.58      27.48
   9   3  23     668.05      31.21
   9   3  24    1106.66      43.97
   9   3  25    1078.82      41.65
   9   3  26    3773.54     126.47
   9   4   0    1832.99     121.43
   9   4   1     854.91      32.13
   9   4   2    6111.57     148.93
   9   4   3     188.43      10.19
   9   4   4    6135.64     125.61
   9   4   5     235.08      11.49
   9   4   6     952.12      44.87
   9   4   7     999.23      23.03
   9   4   8     377.81      14.55
   9   4   9    2526.28      73.43
   9   4  10    5312.91     144.55
   9   4  11     773.10      33.68
   9   4  12    5442.41     157.07
   9   4  13    1041.12      24.14
   9   4  14     139.72      14.61
   9   4  15     649.10      21.52
   9   4  16    5599.03     176.37
   9   4  17     152.77      18.19
   9   4  18    3716.58     127.15
   9   4  19    3214.98      97.29
   9   4  20     107.73      18.43
   9   4  21     779.70      35.86
   9   4  22    1128.74      44.81
   9   4  23     614.87      27.55
   9   4  24    2219.41      72.98
   9   4  25     197.68      22.47
   9   4  26     431.45      24.84
   9   5   0    4163.56     187.43
   9   5   1     238.18      12.41
   9   5   2    3945.49      94.54
   9   5   3      23.23      10.63
   9   5   4    8494.10     144.91
   9   5   5    3131.62      60.26
   9   5   6    6253.50     125.56
   9   5   7     160.59      17.81
   9   5   8    7628.58     187.75
   9   5   9    1713.62      46.13
   9   5  10    6995.32     201.86
   9   5  11     863.77      36.55
   9   5  12    1415.20      62.62
   9   5  13    2856.34      76.14
   9   5  14    4018.03     111.53
   9   5  15     831.93      34.45
   9   5  16    1831.51      46.60
   9   5  17     239.38      17.98
   9   5  18    2419.25      80.70
   9   5  19      10.92      17.94
   9   5  20    5070.23     161.12
   9   5  21     979.06      32.31
   9   5  22    2123.15      75.34
   9   5  23    1377.50      54.28
   9   5  24    2619.10      93.85
   9   5  25      20.87      21.20
   9   6   0    3344.19     119.03
   9   6   1     123.64      14.15
   9   6   2     695.85      27.58
   9   6   3     314.74      15.39
   9   6   4    1926.89      64.01
   9   6   5       2.71      13.05
   9   6   6    7672.63     141.79
   9   6   7     920.23      23.35
   9   6   8    7181.68     255.95
   9   6   9    1164.89      31.02
   9   6  10    1273.75      45.10
   9   6  11       5.61      17.68
   9   6  12     327.45      18.58
   9   6  13    2077.70      65.03
   9   6  14    2769.78      83.34
   9   6  15    1575.01      56.77
   9   6  16      95.70      16.32
   9   6  17      80.97      16.75
   9   6  18     569.06      20.35
   9   6  19    1969.31      52.68
   9   6  20    5456.89     145.37
   9   6  21     817.60      32.36
   9   6  22    1773.68      74.39
   9   6  23     139.04      20.08
   9   6  24     403.23      24.88
   9   7   0    3398.94     156.70
   9   7   1    4081.51     136.46
   9   7   2    5490.95     177.90
   9   7   3       7.46      15.28
   9   7   4    2884.46      97.41
   9   7   5     119.29      16.25
   9   7   6    6727.31     150.62
   9   7   7    1050.99      32.16
   9   7   8    7560.79     170.85
   9   7   9    2164.64      62.65
   9   7  10    1683.38      60.88
   9   7  11      35.06      17.14
   9   7  12    4701.28     143.19
   9   7  13     167.67      20.09
   9   7  14    1888.49      75.70
   9   7  15      95.38      18.70
   9   7  16    2256.61      80.44
   9   7  17      46.10      19.93
   9   7  18    2037.66      74.44
   9   7  19     715.50      23.26
   9   7  20    2430.65      73.90
   9   7  21      16.82      21.19
   9   7  22    3667.10     119.25
   9   7  23     871.51      39.57
   9   8   0    2179.81     128.93
   9   8   1    1504.53      58.57
   9   8   2    5412.25     162.88
   9   8   3     175.03      14.68
   9   8   4    1232.94      54.82
   9   8   5    3713.37     130.43
   9   8   6     517.08      28.61
   9   8   7     810.80      40.01
   9   8   8    3646.71     112.01
   9   8   9    1022.07      41.86
   9   8  10     383.44      19.24
   9   8  11     113.76      17.35
   9   8  12    1378.39      57.51
   9   8  13     188.05      19.19
   9   8  14    6391.10     148.28
   9   8  15      24.16      19.18
   9   8  16    1049.89      41.17
   9   8  17     401.01      26.46
   9   8  18     118.89      20.93
   9   8  19     296.67      22.49
   9   8  20    2112.45      86.62
   9   8  21       0.00      19.31
   9   9   0   12445.70     510.68
   9   9   1     292.85      16.34
   9   9   2    2814.21     104.07
   9   9   3      87.52      15.74
   9   9   4    4140.78     158.73
   9   9   5     205.89      19.59
   9   9   6    2357.12      89.55
   9   9   7     106.90      16.97
   9   9   8     348.43      20.18
   9   9   9      19.97      20.21
   9   9  10    3870.33     143.98
   9   9  11     473.76      20.66
   9   9  12    2972.40     117.01
   9   9  13    1760.97      54.74
   9   9  14    4079.94     107.72
   9   9  15    1027.60      49.78
   9   9  16    2746.09      78.35
   9   9  17      31.90      20.39
   9   9  18    2306.60      99.64
   9   9  19     495.40      25.71
   9  10   0      17.27      24.36
   9  10   1     349.18      17.27
   9  10   2    3753.33      69.80
   9  10   3     500.69      25.94
   9  10   4    5245.41      61.81
   9  10   5      41.56      19.08
   9  10   6     316.73      19.70
   9  10   7      20.83      17.53
   9  10   8    1240.08      67.64
   9  10   9     113.34      22.70
   9  10  10    4311.02     129.89
   9  10  11     588.34      32.62
   9  10  12      74.39      20.56
   9  10  13       7.10      19.72
   9  10  14    2061.32      77.78
   9  10  15     115.67      20.16
   9  10  16    1795.82      80.38
   9  10  17     205.31      21.72
   9  11   0    1052.63      77.19
   9  11   1     739.98      44.34
   9  11   2    2636.86      84.83
   9  11   3     755.39      28.48
   9  11   4    1899.56      66.61
   9  11   5     385.24      22.27
   9  11   6    4688.28      55.75
   9  11   7     223.69      20.41
   9  11   8    2496.43      36.70
   9  11   9      21.21      21.77
   9  11  10    1451.68      58.05
   9  11  11     441.49      23.20
   9  11  12    3974.83     152.42
   9  11  13       0.00      23.13
   9  11  14       7.67      21.12
   9  11  15      13.16      20.01
   9  12   0     158.91      25.71
   9  12   1     986.21      54.60
   9  12   2    1743.48      64.96
   9  12   3     113.94      19.25
   9  12   4    1803.61      78.04
   9  12   5    1063.99      48.70
   9  12   6     794.26      44.97
   9  12   7     201.97      22.32
   9  12   8    4051.05      64.80
   9  12   9     297.58      22.18
   9  12  10     737.06      27.97
   9  12  11     560.47      28.75
   9  13   0    5554.79     126.86
   9  13   1      15.18      19.40
   9  13   2     188.03      21.36
   9  13   3     668.68      41.87
   9  13   4    1510.49      50.83
  10   0   0      78.87      25.23
  10   0   2   11754.07     175.82
  10   0   4    4203.14      96.19
  10   0   6       2.27      18.36
  10   0   8    3700.39     179.55
  10   0  10    2094.98     119.91
  10   0  12    3266.42     232.23
  10   0  14    3136.19     104.61
  10   0  16    4210.18     232.84
  10   0  18    1231.95      41.90
  10   0  20     863.34      79.14
  10   0  22     626.95      40.54
  10   1   0     430.37      35.39
  10   1   1    1504.50      93.10
  10   1   2    5015.71      59.22
  10   1   3     974.27      62.25
  10   1   4    3991.37      92.26
  10   1   5    1602.04      82.30
  10   1   6      19.55      12.55
  10   1   7     214.09      14.33
  10   1   8    1882.98      82.12
  10   1   9     328.93      19.88
  10   1  10    3319.01     109.12
  10   1  11     540.37      30.77
  10   1  12    1014.97      52.96
  10   1  13     302.54      23.28
  10   1  14    2671.50     101.93
  10   1  15     424.31      32.68
  10   1  16    2385.54     102.40
  10   1  17     546.33      32.53
  10   1  18     876.96      37.58
  10   1  19     945.74      35.41
  10   1  20     726.64      41.48
  10   1  21     260.32      23.58
  10   1  22     216.84      25.04
  10   2   0    2525.28     125.56
  10   2   1     575.79      29.83
  10   2   2    1841.89      69.25
  10   2   3     251.75      19.24
  10   2   4    5153.19      83.01
  10   2   5    1497.23      38.53
  10   2   6    1992.71      54.91
  10   2   7     337.77      17.17
  10   2   8    4811.77      45.88
  10   2   9     311.07      17.33
  10   2  10    4719.14      61.06
  10   2  11       0.00      15.81
  10   2  12      88.70      16.45
  10   2  13     215.25      19.80
  10   2  14    5959.85     203.73
  10   2  15      26.03      18.21
  10   2  16     681.42      22.30
  10   2  17     276.94      23.38
  10   2  18     677.97      25.91
  10   2  19     144.76      20.29
  10   2  20    6060.34     197.13
  10   2  21      53.82      21.92
  10   2  22     565.13      32.20
  10   3   0    1643.95      94.75
  10   3   1       9.05      11.93
  10   3   2     965.54      73.07
  10   3   3     359.84      30.72
  10   3   4    1618.24      91.52
  10   3   5     790.16      50.67
  10   3   6    4316.80     115.50
  10   3   7     136.37      18.57
  10   3   8    6746.51     227.44
  10   3   9     353.64      25.19
  10   3  10     919.28      53.61
  10   3  11    1152.64      51.93
  10   3  12     127.70      16.79
  10   3  13     690.73      38.35
  10   3  14    3030.26     118.36
  10   3  15     131.94      18.03
  10   3  16      36.39      18.71
  10   3  17      20.42      19.28
  10   3  18     294.29      19.84
  10   3  19      68.16      19.52
  10   3  20    6155.69     246.22
  10   3  21     256.87      21.95
  10   4   0    1058.75      83.27
  10   4   1     563.88      45.91
  10   4   2    4936.68     180.21
  10   4   3     249.95      24.23
  10   4   4    1626.28      88.11
  10   4   5       0.00      15.22
  10   4   6    4458.12      90.94
  10   4   7     629.58      38.81
  10   4   8    8347.78      74.73
  10   4   9     727.02      39.56
  10   4  10     667.42      45.08
  10   4  11     916.77      53.36
  10   4  12    3254.12     133.43
  10   4  13     595.33      38.30
  10   4  14    1825.12      86.22
  10   4  15     381.46      20.81
  10   4  16    1520.60      70.64
  10   4  17      78.90      17.99
  10   4  18     905.56      42.06
  10   4  19    1459.68      65.64
  10   4  20    2431.51      95.40
  10   5   0    2257.37     212.18
  10   5   1     667.98      33.15
  10   5   2    4872.45     237.71
  10   5   3      79.10      17.32
  10   5   4    1473.47      67.19
  10   5   5    1141.35      51.43
  10   5   6     790.80      34.18
  10   5   7     404.56      19.34
  10   5   8    2123.88     128.07
  10   5   9    3029.83     103.26
  10   5  10     869.02      62.21
  10   5  11      45.47      23.06
  10   5  12    2368.42     107.36
  10   5  13      30.39      19.32
  10   5  14    2961.86     151.99
  10   5  15     266.66      23.24
  10   5  16    1747.08      83.46
  10   5  17      53.90      20.03
  10   5  18     651.27      30.63
  10   5  19    1774.87      90.15
  10   5  20     783.10      41.56
  10   6   0    7544.76     230.80
  10   6   1     500.63      44.96
  10   6   2    2407.31      95.64
  10   6   3     224.97      23.24
  10   6   4    4260.70     165.61
  10   6   5     118.92      17.89
  10   6   6    1352.56      93.21
  10   6   7     641.20      32.44
  10   6   8     164.76      21.50
  10   6   9     524.24      28.92
  10   6  10    3747.52     137.04
  10   6  11       8.28      22.24
  10   6  12    1860.67     119.46
  10   6  13     606.85      30.40
  10   6  14    2987.13     129.78
  10   6  15     440.17      25.26
  10   6  16    2551.10     103.45
  10   6  17      81.73      22.63
  10   6  18    2073.63     108.41
  10   7   0    1323.01      80.00
  10   7   1      14.53      18.34
  10   7   2    2066.92     118.11
  10   7   3      64.86      19.23
  10   7   4    4326.97     173.04
  10   7   5    1499.14      69.55
  10   7   6     260.03      19.59
  10   7   7     267.54      21.73
  10   7   8     223.15      22.12
  10   7   9     441.48      25.66
  10   7  10    3891.05     139.99
  10   7  11     105.20      23.05
  10   7  12     939.91      63.36
  10   7  13    1375.17      81.74
  10   7  14     807.48      52.44
  10   7  15     696.02      40.94
  10   7  16    2070.95     140.72
  10   7  17     300.98      22.74
  10   8   0    1192.08     121.57
  10   8   1     136.82      20.24
  10   8   2    2190.22      67.49
  10   8   3      39.26      23.96
  10   8   4    1621.59      75.25
  10   8   5    1268.74      54.68
  10   8   6    4408.59     149.44
  10   8   7     218.40      21.04
  10   8   8    2074.93     110.18
  10   8   9     347.14      28.68
  10   8  10    1193.01      52.65
  10   8  11      95.65      22.18
  10   8  12    3544.99      95.09
  10   8  13     408.31      30.03
  10   8  14      34.20      25.87
  10   8  15      41.51      24.69
  10   9   0     744.52     100.07
  10   9   1    1854.03      37.88
  10   9   2     796.36      39.78
  10   9   3       6.24      22.24
  10   9   4     606.80      35.08
  10   9   5     854.93      39.57
  10   9   6    4296.68     106.57
  10   9   7     527.00      36.34
  10   9   8    2899.58     131.35
  10   9   9      25.08      23.42
  10   9  10     401.51      27.53
  10   9  11     136.18      20.74
  10   9  12    1626.53      72.10
  10  10   0    6818.14     248.05
  10  10   1     336.96      23.66
  10  10   2     156.77      22.61
  10  10   3      93.17      22.18
  10  10   4     967.63      44.41
  10  10   5      57.99      22.65
  10  10   6    4936.30     148.98
  10  10   7      49.93      23.31
  10  10   8     676.27      30.98
  11   0   4    1664.66      85.12
  11   0   6    2071.91      63.90
  11   0   8    6349.21     304.93
  11   0  10    2432.45      62.86
  11   0  12     156.58      26.51
  11   0  14    4384.11     265.27
  11   1   0    3204.79     243.04
  11   1   1      22.42      30.88
  11   1   2     528.53      49.47
  11   1   3      13.01      36.80
  11   1   4     553.73      37.96
  11   1   5     541.29      53.24
  11   1   6    7003.87     195.57
  11   1   7       0.00      22.94
  11   1   8    1578.86     155.27
  11   1   9     602.05      55.85
  11   1  10     963.56      74.84
  11   1  11       0.00      19.31
  11   1  12    2102.29     104.46
  11   1  13      59.94      25.10
  11   1  14     444.68      25.64
  11   1  15       0.00      26.46
  11   2   0      76.66      63.44
  11   2   1       0.00      32.15
  11   2   2    4782.75     104.48
  11   2   3      70.62      51.28
  11   2   4    1003.50      41.37
  11   2   5     368.36      36.85
  11   2   6     100.89      23.44
  11   2   7      76.16      22.37
  11   2   8    3275.72     154.60
  11   2   9    1049.68      88.72
  11   2  10     504.45      45.31
  11   2  11     177.60      20.85
  11   2  12    1826.31     135.49
  11   2  13     282.36      29.08
  11   2  14    1238.75     114.24
  11   2  15     346.70      38.64
  11   3   0    2246.91     142.52
  11   3   1     372.54      37.24
  11   3   2    1513.45      52.04
  11   3   3       0.00      34.03
  11   3   4    1839.38      58.60
  11   3   5     166.08      27.22
  11   3   6     911.70      44.22
  11   3   7     269.59      22.93
  11   3   8      50.34      22.30
  11   3   9      21.41      25.33
  11   3  10    1939.86      79.13
  11   3  11      25.35      20.60
  11   3  12    2032.79      69.90
  11   3  13       1.70      20.94
  11   3  14     606.94      41.80
  11   4   0    1479.18     141.12
  11   4   1     422.01      39.22
  11   4   2     879.02      48.31
  11   4   3     363.68      43.36
  11   4   4    3254.15     332.77
  11   4   5    1238.17     132.26
  11   4   6     149.23      27.74
  11   4   7     525.52      42.65
  11   4   8     247.95      27.78
  11   4   9     114.10      25.89
  11   4  10    5604.39      71.34
  11   4  11      22.50      22.23
  11   4  12     180.18      30.00
  11   4  13     287.07      25.88
  11   5   0     773.45      59.97
  11   5   1       0.00      36.51
  11   5   2     985.50      41.57
  11   5   3      28.90      29.05
  11   5   4    1139.41      51.81
  11   5   5     122.56      23.42
  11   5   6    1857.49      53.94
  11   5   7     157.92      24.12
  11   5   8    1480.37      97.47
  11   5   9     587.53      55.80
  11   5  10    1338.30     108.34
  11   5  11     133.66      26.71
  11   6   0     219.19      56.27
  11   6   1     352.25      30.22
  11   6   2    1037.30      76.79
  11   6   3      67.25      33.36
  11   6   4     276.51      37.44
  11   6   5     763.33      72.20
  11   6   6    3019.88     182.72
  11   6   7     408.64      40.79
  11   6   8    2844.15     133.02
  11   6   9      80.22      23.06
  11   7   0    2259.44      93.17
  11   7   1     238.20      36.61
  11   7   2     641.54      86.20
  11   7   3     141.82      45.90
  11   7   4     820.19     106.75
  11   7   5     586.57      65.35
  11   7   6    1790.26      85.64
}
}
REVERT
;
loop_
_symmetry_equiv_pos_as_xyz
'+x, +y, +z'
'-x, -y, -z'
'-x, -y, +z+1/2'
'+x, -y+1/2, -z'
'+x, +y, -z+1/2'
'-x, +y+1/2, +z'
'-x, +y+1/2, -z+1/2'
'+x, -y+1/2, +z+1/2'
loop_
_atom_site_label
_atom_site_fract_x
_atom_site_fract_y
_atom_site_fract_z
_atom_site_U_iso_or_equiv
_atom_site_adp_type
_atom_site_occupancy
_atom_site_disorder_group
K1 0.761154(10) 0.250(4) 0.500(2) 0.006923(19) Uani 1 0
O3 1.26419(3) 0.080667(17) 0.428980(8) 0.00887(4) Uani 1 0
O1 1.01050(3) 0.205634(16) 0.326205(7) 0.00868(4) Uani 1 0
C1 1.21697(3) 0.103748(19) 0.353062(9) 0.00668(4) Uani 1 0
C2 1.41260(3) 0.010464(18) 0.292175(8) 0.00754(4) Uani 1 0
H2 1.5830(9) -0.0678(6) 0.3232(3) 0.02073333 Uani 1 0
H1 1.0037(16) 0.2116(10) 0.25 0.0188667 Uani 1 0
loop_
_atom_site_aniso_label
_atom_site_aniso_U_11
_atom_site_aniso_U_22
_atom_site_aniso_U_33
_atom_site_aniso_U_23
_atom_site_aniso_U_13
_atom_site_aniso_U_12
K1 0.00770(2) 0.006814(17) 0.006257(19) 0.000312(9) 0.000(8) 0.000(7)
O3 0.01109(4) 0.01003(4) 0.00548(3) 0.00048(3) -0.00091(2) 0.00083(3)
O1 0.00953(4) 0.01055(4) 0.00597(3) -0.00020(3) -0.00006(3) 0.00300(3)
C1 0.00774(4) 0.00708(4) 0.00524(4) 0.00015(3) -0.00035(3) 0.00015(3)
C2 0.00828(4) 0.00820(4) 0.00613(4) 0.00024(3) -0.00034(3) 0.00155(3)
H2 0.021 0.0237 0.0175 0.0021 -0.0032 0.0108
H1 0.0184 0.017 0.0212 0 0 0.0051
loop_
_atom_type_symbol
_atom_type_description
_atom_type_scat_dispersion_real
_atom_type_scat_dispersion_imag
_atom_type_scat_source
C C 0 0 'Hirshfeld partitioning of a quantum chemical wavefunction.'
O O 0 0 'Hirshfeld partitioning of a quantum chemical wavefunction.'
H H 0 0 'Hirshfeld partitioning of a quantum chemical wavefunction.'
K K 0 0 'Hirshfeld partitioning of a quantum chemical wavefunction.'
loop_
_geom_angle_atom_site_label_1
_geom_angle_atom_site_label_2
_geom_angle_atom_site_label_3
_geom_angle
_geom_angle_site_symmetry_1
_geom_angle_site_symmetry_2
_geom_angle_site_symmetry_3
_geom_angle_publ_flag
K1 O3 C1 100.6(7) . . . yes
K1 O1 C1 91.9(4) . . . yes
K1 O1 H1 154.9(5) . . . yes
O3 K1 O1 44.4(5) . . . yes
O3 C1 O1 122.276(14) . . . yes
O3 C1 C2 117.521(13) . . . yes
O1 C1 C2 120.197(12) . . . yes
C1 O1 H1 111.8(3) . . . yes
C1 C2 H2 112.7(2) . . . yes
loop_
_geom_bond_atom_site_label_1
_geom_bond_atom_site_label_2
_geom_bond_distance
_geom_bond_site_symmetry_1
_geom_bond_site_symmetry_2
_geom_bond_publ_flag
K1 O3 2.85(2) . . yes
K1 O1 3.01(4) . . yes
O3 C1 1.2402(2) . . yes
O1 C1 1.2903(2) . . yes
O1 H1 1.2146(3) . . yes
C1 C2 1.4946(2) . . yes
C2 H2 1.094(4) . . yes
