#------------------------------------------------------------------------------
#$Date: 2020-05-06 02:47:36 +0300 (Wed, 06 May 2020) $
#$Revision: 251789 $
#$URL: file:///home/coder/svn-repositories/cod/cif/7/24/04/7240451.cif $
#------------------------------------------------------------------------------
#
# This file is available in the Crystallography Open Database (COD),
# http://www.crystallography.net/
#
# All data on this site have been placed in the public domain by the
# contributors.
#
data_7240451
loop_
_publ_author_name
'Kostin, Gennadiy'
'Filatov, Evgeny'
'Pishchur, Denis P.'
'Kuratieva, Natalia'
'Korenev, Sergey'
_publ_section_title
;
 Phase transformations in a double complex salt of ruthenium nitrosyl
 anion with tetraamine-palladium cation
;
_journal_name_full               CrystEngComm
_journal_paper_doi               10.1039/D0CE00441C
_journal_year                    2020
_chemical_formula_moiety         'H13 N9 O10 Pd Ru'
_chemical_formula_sum            'H13 N9 O10 Pd Ru'
_chemical_formula_weight         506.66
_space_group_crystal_system      monoclinic
_space_group_IT_number           10
_space_group_name_Hall           '-P 2y'
_space_group_name_H-M_alt        'P 1 2/m 1'
_atom_sites_solution_hydrogens   geom
_atom_sites_solution_primary     direct
_atom_sites_solution_secondary   difmap
_audit_creation_method           SHELXL-2014/7
_audit_update_record
;
2020-01-24 deposited with the CCDC.	2020-05-04 downloaded from the CCDC.
;
_cell_angle_alpha                90
_cell_angle_beta                 105.148(7)
_cell_angle_gamma                90
_cell_formula_units_Z            2
_cell_length_a                   7.851(2)
_cell_length_b                   7.792(2)
_cell_length_c                   12.456(3)
_cell_measurement_reflns_used    2355
_cell_measurement_temperature    383(2)
_cell_measurement_theta_max      27.47
_cell_measurement_theta_min      2.62
_cell_volume                     735.5(3)
_computing_cell_refinement       'Bruker SAINT'
_computing_data_collection       'Bruker APEX2'
_computing_data_reduction        'Bruker SAINT'
_computing_molecular_graphics    'Bruker SHELXTL'
_computing_publication_material  'Bruker SHELXTL'
_computing_structure_refinement  'Bruker SHELXTL'
_computing_structure_solution    'Bruker SHELXTL'
_diffrn_ambient_temperature      383(2)
_diffrn_detector_area_resol_mean 25
_diffrn_measured_fraction_theta_full 0.997
_diffrn_measured_fraction_theta_max 0.974
_diffrn_measurement_device_type  'Bruker Apex DUO CCD area-detector'
_diffrn_measurement_method       '\f scans'
_diffrn_radiation_monochromator  graphite
_diffrn_radiation_probe          x-ray
_diffrn_radiation_type           MoK\a
_diffrn_radiation_wavelength     0.71073
_diffrn_reflns_av_R_equivalents  0.0887
_diffrn_reflns_av_unetI/netI     0.0515
_diffrn_reflns_Laue_measured_fraction_full 0.997
_diffrn_reflns_Laue_measured_fraction_max 0.974
_diffrn_reflns_limit_h_max       9
_diffrn_reflns_limit_h_min       -10
_diffrn_reflns_limit_k_max       10
_diffrn_reflns_limit_k_min       -10
_diffrn_reflns_limit_l_max       16
_diffrn_reflns_limit_l_min       -16
_diffrn_reflns_number            6160
_diffrn_reflns_point_group_measured_fraction_full 0.997
_diffrn_reflns_point_group_measured_fraction_max 0.974
_diffrn_reflns_theta_full        25.250
_diffrn_reflns_theta_max         27.833
_diffrn_reflns_theta_min         1.694
_diffrn_standards_decay_%        0
_diffrn_standards_number         0
_exptl_absorpt_coefficient_mu    2.314
_exptl_absorpt_correction_type   multi-scan
_exptl_absorpt_process_details   'Bruker SADABS'
_exptl_crystal_colour            yellow
_exptl_crystal_density_diffrn    2.288
_exptl_crystal_description       plate
_exptl_crystal_F_000             492
_exptl_crystal_size_max          0.230
_exptl_crystal_size_mid          0.130
_exptl_crystal_size_min          0.090
_exptl_transmission_factor_max   0.786
_exptl_transmission_factor_min   0.654
_refine_diff_density_max         0.891
_refine_diff_density_min         -0.636
_refine_diff_density_rms         0.115
_refine_ls_extinction_method     none
_refine_ls_goodness_of_fit_ref   1.152
_refine_ls_hydrogen_treatment    constr
_refine_ls_matrix_type           full
_refine_ls_number_parameters     129
_refine_ls_number_reflns         1837
_refine_ls_number_restraints     24
_refine_ls_restrained_S_all      1.197
_refine_ls_R_factor_all          0.0681
_refine_ls_R_factor_gt           0.0522
_refine_ls_shift/su_max          0.000
_refine_ls_shift/su_mean         0.000
_refine_ls_structure_factor_coef Fsqd
_refine_ls_weighting_details
'w=1/[\s^2^(Fo^2^)+(0.0156P)^2^+2.5446P] where P=(Fo^2^+2Fc^2^)/3'
_refine_ls_weighting_scheme      calc
_refine_ls_wR_factor_gt          0.0977
_refine_ls_wR_factor_ref         0.1048
_reflns_Friedel_coverage         0.000
_reflns_number_gt                1333
_reflns_number_total             1837
_reflns_threshold_expression     >2\s(I)
_cod_data_source_file            d0ce00441c2.cif
_cod_data_source_block           kru217m
_cod_original_sg_symbol_H-M      'P 2/m'
_cod_database_code               7240451
_shelx_shelxl_version_number     2014/7
_shelx_space_group_comment
;
The symmetry employed for this shelxl refinement is uniquely defined
by the following loop, which should always be used as a source of
symmetry information in preference to the above space-group names.
They are only intended as comments.
;
_shelx_estimated_absorpt_t_min   0.595
_shelx_estimated_absorpt_t_max   0.934
_shelx_res_file
;

    D:\Job\Kostin\kru217\kru217m.res created by SHELXL-2014/7

TITL kru217m in P2/m
CELL 0.71073 7.8507 7.7922 12.4560 90.000 105.148 90.000
ZERR 2.0000 0.0020 0.0020 0.0029 0.000 0.007 0.000
LATT 1
SYMM -X, Y, -Z
SFAC N H O RU PD
UNIT 18 26 20 2 2
MERG 2
OMIT 0 180
FMAP 2
GRID
PLAN 5
TEMP 100
SIZE 0.25 0.2 0.03
BOND $H
HTAB
EQIV $6 -x+1, -y+1, -z+1
HTAB O1 O342_$6
EQIV $1 x, -y+1, z
HTAB O1 O342_$1
HTAB O1 O344_$6
EQIV $7 x-1, y, z
HTAB N11 O342_$7
EQIV $5 -x, y, -z+1
HTAB N11 O342_$5
EQIV $2 -x, -y, -z+1
HTAB N11 O342_$2
HTAB N11 O343_$2
EQIV $8 x-1, -y, z
HTAB N11 O343_$8
HTAB N11 O333_$8
EQIV $3 x, -y, z
HTAB N22 O341_$3
HTAB N22 O343_$3
HTAB N22 O332
EQIV $9 -x+1, y, -z
HTAB N22 O332_$9
HTAB N22 O334_$9
EQIV $10 -x+1, -y, -z
HTAB N22 O332_$10
HTAB N22 O334_$10
HTAB N21 O332_$7
HTAB N21 O331_$7
HTAB N21 O333_$7
HTAB N21 O334_$7
HTAB N21 O341
HTAB N21 O343
HTAB N21 O341_$3
HTAB N21 O331_$8
HTAB N21 O333_$8
EQIV $11 -x+1, -y, -z+1
HTAB N12 O1_$11
HTAB N12 O333_$11
EQIV $12 x-1, y-1, z
HTAB N12 O1_$12
HTAB N12 O331_$8
HTAB N12 O333_$8
HTAB N12 O344_$2
EADP O331 O332
EADP O333 O334
EADP O341 O342
EADP O343 O344
ISOR 0.008 0.008 O331 O333 O341 O343
OMIT -3 1 2
L.S. 10
ACTA 50.5
WGHT    0.015600    2.544600
FVAR       0.15871   0.62787   0.59718
PD1   5    0.000000    0.000000    0.500000    10.25000    0.02998    0.03190 =
         0.04202    0.00000    0.01207    0.00000
PD2   5    0.000000    0.000000    0.000000    10.25000    0.03705    0.03368 =
         0.04854    0.00000    0.02481    0.00000
RU3   4    0.512062    0.500000    0.252816    10.50000    0.03330    0.03244 =
         0.03118    0.00000    0.01042    0.00000
O1    3    0.683485    0.500000    0.395068    10.50000    0.04148    0.11831 =
         0.03705    0.00000    0.00707    0.00000
AFIX 147
H1    2    0.639836    0.542583    0.441907    10.50000   -1.20000
AFIX   0
N34   1    0.372078    0.313909    0.313336    11.00000    0.06303    0.03937 =
         0.06497   -0.00505    0.02731   -0.01184
N33   1    0.661647    0.312865    0.202232    11.00000    0.05965    0.06549 =
         0.04623   -0.00472    0.02165    0.01484
N35   1    0.352098    0.500000    0.124406    10.50000    0.05799    0.06648 =
         0.04165    0.00000    0.00882    0.00000
O351  3    0.237359    0.500000    0.047490    10.50000    0.08692    0.18900 =
         0.05950    0.00000   -0.02424    0.00000
N11   1   -0.268816    0.000000    0.473803    10.50000    0.03790    0.09704 =
         0.08190    0.00000    0.02018    0.00000
AFIX 137
H11A  2   -0.312504    0.099042    0.442942    10.50000   -1.50000
H11B  2   -0.295651   -0.012914    0.538474    10.50000   -1.50000
H11C  2   -0.315031   -0.086127    0.428617    10.50000   -1.50000
AFIX   0
N22   1    0.269066    0.000000    0.043131    10.50000    0.04964    0.05468 =
         0.06291    0.00000    0.02708    0.00000
AFIX 137
H22A  2    0.308991   -0.026193    0.114874    10.50000   -1.50000
H22B  2    0.307994    0.103553    0.030890    10.50000   -1.50000
H22C  2    0.307656   -0.077360    0.002454    10.50000   -1.50000
AFIX   0
N21   1   -0.004103    0.000000    0.162676    10.50000    0.05634    0.07559 =
         0.05153    0.00000    0.02954    0.00000
AFIX 137
H21A  2   -0.094367    0.063168    0.170790    10.50000   -1.50000
H21B  2    0.096378    0.043943    0.203979    10.50000   -1.50000
H21C  2   -0.016114   -0.107111    0.184406    10.50000   -1.50000
AFIX   0
N12   1    0.000000   -0.253880    0.500000    10.50000    0.06840    0.03035 =
         0.11117    0.00000   -0.01691    0.00000
AFIX 137
H12A  2    0.110510   -0.291953    0.513963    10.50000   -1.50000
H12B  2   -0.061288   -0.291953    0.433801    10.50000   -1.50000
H12C  2   -0.049222   -0.291953    0.552237    10.50000   -1.50000
PART 2
AFIX   0
O342  3    0.399306    0.283069    0.412315    31.00000    0.12484    0.10547 =
         0.10453    0.01148    0.02287   -0.05103
O341  3    0.250138    0.247068    0.252894    31.00000    0.12484    0.10547 =
         0.10453    0.01148    0.02287   -0.05103
PART 1
O332  3    0.595137    0.225539    0.120226    21.00000    0.06928    0.10614 =
         0.12323   -0.04208    0.02745    0.01514
O331  3    0.821244    0.303167    0.246177    21.00000    0.06928    0.10614 =
         0.12323   -0.04208    0.02745    0.01514
O343  3    0.386147    0.160783    0.295720   -31.00000    0.11086    0.08970 =
         0.12090    0.00957    0.06843   -0.01467
O344  3    0.266725    0.346347    0.361957   -31.00000    0.11086    0.08970 =
         0.12090    0.00957    0.06843   -0.01467
PART 2
O333  3    0.748486    0.201264    0.264565   -21.00000    0.12427    0.10297 =
         0.09146   -0.00946    0.04639    0.02817
O334  3    0.660447    0.283447    0.112722   -21.00000    0.12427    0.10297 =
         0.09146   -0.00946    0.04639    0.02817
HKLF 4

REM  kru217m in P2/m
REM R1 =  0.0522 for    1333 Fo > 4sig(Fo)  and  0.0681 for all    1837 data
REM    129 parameters refined using     24 restraints

END

WGHT      0.0157      2.5396

REM Instructions for potential hydrogen bonds
HTAB O1 O342_$6
HTAB O1 O342_$1
HTAB O1 O344_$6
HTAB N11 O342_$7
HTAB N11 O343_$7
HTAB N11 O333_$7
HTAB N11 O342_$2
HTAB N11 O343_$2
HTAB N11 O343_$8
HTAB N11 O333_$8
HTAB N22 O341_$3
HTAB N22 O343
HTAB N22 O343_$3
HTAB N22 O332
HTAB N22 O332_$9
HTAB N22 O334_$9
HTAB N22 O332_$10
HTAB N22 O332_$3
HTAB N22 O334_$10
HTAB N21 O331_$7
HTAB N21 O333_$7
HTAB N21 O334_$7
HTAB N21 O341
HTAB N21 O343
HTAB N21 O341_$3
HTAB N21 O331_$8
HTAB N21 O333_$8
HTAB N12 O1_$11
HTAB N12 O344_$3
HTAB N12 O1_$12
HTAB N12 O331_$8
HTAB N12 O333_$8
HTAB N12 O344_$2

REM Highest difference peak  0.891,  deepest hole -0.636,  1-sigma level  0.115
Q1    1   0.6048  0.5000  0.2945  10.50000  0.05    0.89
Q2    1   0.4785  0.3851  0.2428  11.00000  0.05    0.64
Q3    1   0.1131  0.0000  0.0611  10.50000  0.05    0.58
Q4    1   0.6128  0.1573  0.1732  11.00000  0.05    0.54
Q5    1  -0.1006  0.0000  0.4373  10.50000  0.05    0.53
;
_shelx_res_checksum              69838
_shelx_hkl_file
;
   0   1   0    5.54    0.20
   0  -1   0    5.36    0.20
   0   2   0  276.32    6.87
   0  -2   0  260.90    6.86
   0  -3   0   46.70    1.34
   0   4   0  573.85   14.77
   0  -4   0  588.92   14.79
   0   5   0    5.13    0.34
   0  -5   0    5.51    0.36
   0   6   0  184.59    4.97
   0  -6   0  189.32    5.02
   0   7   0    1.40    0.24
   0  -7   0    1.11    0.25
   0  -8   0   47.44    1.61
   0  -9   0   -0.15    0.18
   0  10   0   23.67    1.21
   1  10   0    0.33    0.34
  -1  -9   0   33.87    1.31
   1   9   0   31.60    1.34
  -1  -8   0    1.38    0.27
   1   8   0    1.46    0.33
  -1  -7   0   95.68    2.77
   1   7   0   93.48    2.80
  -1  -6   0    1.97    0.27
  -1  -5   0  235.83    6.19
  -1  -4   0    0.15    0.11
  -1  -4   0    0.24    0.11
  -1  -3   0  582.33   17.49
  -1  -3   0  590.84   14.83
   1   3   0  580.85   14.84
  -1  -2   0   35.03    1.01
  -1  -2   0   35.17    1.17
   1   2   0   34.82    1.02
   1   2   0   37.60    1.02
  -1  -1   0  844.78   21.42
  -1  -1   0  843.58   21.57
   1   1   0  868.54   21.53
   1   1   0  826.44   21.47
  -1   0   0   67.07    1.75
  -1   0   0   68.97    1.75
   1   0   0   66.38    1.75
   1   0   0   69.04    1.75
  -1   1   0  859.50   21.44
  -1   1   0  835.57   21.52
   1  -1   0  846.13   21.51
   1  -1   0  836.42   23.25
  -1   2   0   18.76    0.57
  -1   2   0   17.19    0.55
  -1   2   0   18.52    0.61
   1  -2   0   18.05    0.57
  -1   3   0  384.72   10.45
   1  -3   0  371.86    9.64
  -1   4   0    2.53    0.22
  -1   4   0    2.98    0.29
   1  -4   0    2.68    0.25
  -1   5   0  209.21    5.63
  -1   5   0  218.91    6.13
   1  -5   0  215.96    5.66
  -1   6   0    0.12    0.13
   1  -6   0    0.34    0.18
  -1   7   0   61.69    1.91
   1  -7   0   62.07    1.93
  -1   8   0    0.36    0.20
   1  -8   0    0.26    0.20
  -1   9   0   26.60    1.09
   1  -9   0   27.98    1.16
  -1  10   0    0.45    0.22
  -2  -9   0    0.42    0.24
   2   9   0    0.13    0.27
  -2  -8   0   44.99    1.57
   2   8   0   44.93    1.62
  -2  -7   0    0.12    0.18
   2   7   0    0.03    0.20
  -2  -6   0   96.73    2.72
   2   6   0   92.48    2.74
  -2  -5   0    0.21    0.14
  -2  -5   0    0.39    0.14
   2   5   0    0.42    0.18
  -2  -4   0  237.56    7.17
  -2  -4   0  233.29    6.10
   2   4   0  231.52    6.12
  -2  -3   0    1.24    0.17
  -2  -3   0    1.71    0.18
   2   3   0    1.35    0.17
  -2  -2   0  316.02    8.26
   2   2   0  332.49    8.28
  -2  -1   0    8.31    0.32
  -2  -1   0    8.98    0.34
   2   1   0    8.36    0.34
  -2   0   0  170.47    4.30
  -2   0   0  163.57    4.29
   2   0   0  168.72    4.29
   2   0   0  166.19    4.29
  -2   1   0   28.06    0.84
  -2   1   0   31.24    0.86
   2  -1   0   29.45    0.86
  -2   2   0  378.80    9.40
   2  -2   0  363.68   10.18
   2  -2   0  365.77    9.40
  -2   3   0    0.01    0.08
   2  -3   0    0.17    0.10
   2  -3   0   -0.03    0.11
  -2   4   0  169.75    4.73
  -2   4   0  163.49    4.35
   2  -4   0  163.41    4.37
  -2   5   0    1.86    0.22
  -2   5   0    1.42    0.24
   2  -5   0    1.06    0.19
  -2   6   0   62.01    1.85
   2  -6   0   60.44    1.87
  -2   7   0    1.03    0.21
   2  -7   0    1.09    0.25
  -2   8   0   44.74    1.56
   2  -8   0   46.15    1.59
  -2   9   0    0.07    0.19
  -3  -9   0   25.27    1.14
   3   9   0   26.35    1.21
  -3  -8   0    0.05    0.19
   3   8   0    0.04    0.26
  -3  -7   0   66.88    2.05
   3   7   0   62.09    2.06
  -3  -6   0    2.76    0.33
  -3  -6   0    2.74    0.32
   3   6   0    3.01    0.35
  -3  -5   0  102.79    3.35
  -3  -5   0  101.86    2.89
   3   5   0  103.63    2.92
  -3  -4   0    5.85    0.35
  -3  -4   0    5.66    0.41
   3   4   0    5.04    0.38
  -3  -3   0  277.05    7.24
   3   3   0  284.49    7.26
  -3  -2   0    5.18    0.27
   3   2   0    4.79    0.29
  -3  -1   0  358.24    9.25
   3   1   0  367.91    9.25
  -3   0   0  154.88    3.96
  -3   0   0  150.23    3.95
   3   0   0  151.25    3.96
  -3   1   0  359.60    9.24
  -3   1   0  374.04    9.26
   3  -1   0  354.92    9.24
  -3   2   0    0.02    0.07
   3  -2   0   -0.12    0.08
  -3   3   0  278.86    7.17
   3  -3   0  280.24    7.76
   3  -3   0  275.33    7.18
  -3   4   0   11.96    0.50
   3  -4   0   12.28    0.53
  -3   5   0   99.49    2.76
   3  -5   0   99.00    2.79
  -3   6   0    4.17    0.35
   3  -6   0    4.31    0.39
  -3   7   0   55.70    1.76
   3  -7   0   54.13    1.79
  -3   8   0   -0.20    0.15
   3  -8   0   -0.20    0.19
  -3   9   0   20.33    0.98
  -4  -9   0    0.10    0.21
   4   9   0   -0.42    0.25
  -4  -8   0   45.17    1.61
   4   8   0   43.73    1.67
  -4  -7   0   -0.11    0.16
   4   7   0   -0.41    0.19
  -4  -6   0   58.53    1.87
   4   6   0   60.14    1.92
  -4  -5   0   10.56    0.55
   4   5   0   10.42    0.58
  -4  -4   0  184.08    4.88
   4   4   0  182.03    4.89
  -4  -3   0    2.25    0.23
   4   3   0    2.32    0.24
  -4  -2   0  320.28    8.26
   4   2   0  322.05    8.27
  -4  -1   0   11.95    0.49
   4   1   0   12.94    0.51
  -4   0   0  255.13    6.61
   4   0   0  257.38    6.62
  -4   1   0   23.12    0.76
   4  -1   0   23.19    0.77
  -4   2   0  305.02    7.94
   4  -2   0  312.75    7.96
  -4   3   0    0.36    0.12
   4  -3   0    0.47    0.14
   4  -3   0    0.22    0.15
  -4   4   0  152.96    4.13
   4  -4   0  154.93    4.47
   4  -4   0  155.19    4.16
  -4   5   0    5.78    0.39
   4  -5   0    6.02    0.42
  -4   6   0   50.83    1.63
   4  -6   0   51.40    1.66
  -4   7   0    0.12    0.15
   4  -7   0   -0.06    0.18
  -4   8   0   32.84    1.28
  -4   9   0    0.06    0.20
  -5  -8   0   -0.05    0.20
   5   8   0   -0.18    0.22
  -5  -7   0   53.85    1.83
   5   7   0   52.84    1.86
  -5  -6   0    0.07    0.17
   5   6   0   -0.07    0.20
  -5  -5   0   57.84    1.81
   5   5   0   57.56    1.84
  -5  -4   0    3.49    0.33
   5   4   0    3.12    0.32
  -5  -3   0  150.77    4.03
   5   3   0  147.71    4.04
  -5  -2   0    4.43    0.33
   5   2   0    4.95    0.36
  -5  -1   0  166.03    4.39
   5   1   0  164.44    4.39
  -5   0   0    7.90    0.40
   5   0   0    7.43    0.41
  -5   1   0  145.11    3.93
   5  -1   0  149.17    3.94
  -5   2   0    2.85    0.27
   5  -2   0    2.21    0.25
  -5   3   0  105.35    2.93
   5  -3   0  106.71    2.95
  -5   4   0    0.85    0.17
   5  -4   0    1.02    0.20
   5  -4   0    0.62    0.22
  -5   5   0   57.45    1.77
   5  -5   0   57.00    1.92
   5  -5   0   57.48    1.80
  -5   6   0    0.10    0.15
   5  -6   0    0.00    0.16
  -5   7   0   30.20    1.18
  -5   8   0    0.33    0.21
  -6  -8   0   18.71    1.00
   6   8   0   17.18    1.02
  -6  -7   0   -0.01    0.22
   6   7   0    0.28    0.24
  -6  -6   0   50.08    1.71
   6   6   0   48.35    1.73
  -6  -5   0    0.91    0.24
   6   5   0    1.04    0.27
  -6  -4   0   66.51    2.02
   6   4   0   64.54    2.02
  -6  -3   0    2.04    0.28
   6   3   0    1.66    0.26
  -6  -2   0   93.34    2.64
   6   2   0   92.04    2.64
  -6  -1   0    1.00    0.21
   6   1   0    0.72    0.20
  -6   0   0  118.64    3.28
   6   0   0  119.36    3.28
  -6   1   0    0.03    0.12
   6  -1   0    0.16    0.16
  -6   2   0   79.14    2.33
   6  -2   0   83.03    2.36
  -6   3   0    0.99    0.20
   6  -3   0    1.08    0.22
  -6   4   0   51.19    1.65
   6  -4   0   51.34    1.67
   6  -4   0   53.45    1.78
  -6   5   0    0.20    0.14
   6  -5   0   -0.21    0.21
   6  -5   0   -0.14    0.16
  -6   6   0   29.38    1.14
  -6   7   0    0.22    0.19
  -7  -7   0   19.68    1.01
   7   7   0   17.59    1.00
  -7  -6   0   -0.26    0.18
   7   6   0   -0.04    0.22
  -7  -5   0   54.98    1.81
   7   5   0   51.27    1.79
  -7  -4   0   -0.06    0.16
   7   4   0   -0.12    0.18
  -7  -3   0   53.82    1.72
   7   3   0   52.47    1.72
  -7  -2   0    2.03    0.29
   7   2   0    2.33    0.32
  -7  -1   0   80.49    2.35
   7   1   0   78.67    2.35
  -7   0   0    0.38    0.19
   7   0   0    0.28    0.18
  -7   1   0   80.26    2.39
   7  -1   0   82.66    2.41
  -7   2   0    2.54    0.32
   7  -2   0    1.78    0.30
  -7   3   0   41.77    1.43
   7  -3   0   42.81    1.45
  -7   4   0    1.56    0.28
   7  -4   0    1.74    0.34
   7  -4   0    1.82    0.32
  -7   5   0   28.69    1.15
   7  -5   0   30.52    1.26
  -7   6   0    0.32    0.20
  -8  -5   0    0.05    0.22
   8   5   0    0.33    0.25
  -8  -4   0   34.47    1.32
   8   4   0   34.05    1.32
  -8  -3   0    1.85    0.33
   8   3   0    1.63    0.32
  -8  -2   0   36.79    1.32
   8   2   0   34.89    1.30
  -8  -1   0    0.66    0.24
   8   1   0    1.14    0.28
  -8   0   0   44.39    1.51
   8   0   0   42.76    1.49
  -8   1   0    1.67    0.30
   8  -1   0    1.08    0.25
  -8   2   0   28.37    1.09
   8  -2   0   26.01    1.08
  -8   3   0    1.05    0.26
  -8   4   0   21.10    0.96
   8  -4   0   21.69    1.04
  -8   5   0    1.06    0.27
   8  -5   0    0.60    0.34
  -9  -4   0    0.50    0.25
  -9  -3   0   17.76    0.91
  -9  -2   0    0.11    0.22
  -9  -1   0   15.63    0.82
  -9   0   0    0.23    0.21
  -9   1   0   15.93    0.83
  -9   2   0    0.30    0.23
  -9   3   0   11.38    0.72
   9  -4  -1    2.02    0.42
  -9   3   1    2.16    0.35
  -9   2   1    2.58    0.38
  -9   1   1    0.73    0.24
  -9   0   1    1.27    0.28
  -9  -1   1    1.60    0.30
  -9  -2   1    2.69    0.37
  -9  -3   1    1.27    0.31
  -9  -4   1    1.24    0.32
   8  -5  -1    2.73    0.45
  -8   5   1    1.67    0.31
   8  -4  -1    1.79    0.38
  -8   4   1    1.90    0.30
  -8   3   1    3.09    0.36
  -8   2   1    3.52    0.37
   8  -1  -1    4.31    0.44
  -8   1   1    5.02    0.45
   8   0  -1    2.41    0.34
  -8   0   1    2.67    0.35
   8   1  -1    3.03    0.36
  -8  -1   1    3.10    0.36
   8   2  -1    3.18    0.38
  -8  -2   1    3.76    0.42
   8   3  -1    4.00    0.43
  -8  -3   1    4.70    0.47
   8   4  -1    1.74    0.32
  -8  -4   1    2.29    0.35
  -8  -5   1    0.85    0.27
  -8  -6   1    0.26    0.25
  -7   7   1    0.81    0.26
  -7   6   1    3.30    0.39
   7  -5  -1    4.03    0.49
  -7   5   1    2.94    0.35
   7  -4  -1    6.56    0.58
  -7   4   1    6.53    0.47
   7  -3  -1    2.00    0.29
  -7   3   1    1.58    0.27
   7  -2  -1    5.55    0.43
  -7   2   1    5.66    0.42
   7  -1  -1    8.30    0.50
  -7   1   1    9.02    0.51
   7   0  -1   14.42    0.67
  -7   0   1   15.25    0.69
   7   1  -1    7.88    0.49
  -7  -1   1    7.35    0.47
   7   2  -1    1.26    0.26
  -7  -2   1    1.24    0.25
   7   3  -1    1.14    0.25
  -7  -3   1    1.23    0.25
   7   4  -1    2.44    0.35
  -7  -4   1    3.08    0.37
   7   5  -1    6.65    0.57
  -7  -5   1    5.90    0.55
   7   6  -1    0.48    0.26
  -7  -6   1    0.18    0.21
   7   7  -1    0.00    0.26
  -7  -7   1    0.18    0.25
  -6   7   1    2.19    0.33
  -6   6   1    6.50    0.49
   6  -5  -1    8.76    0.56
   6  -5  -1    8.70    0.63
  -6   5   1    8.08    0.50
   6  -4  -1    1.08    0.23
   6  -4  -1    1.05    0.27
  -6   4   1    0.65    0.18
   6  -3  -1    2.21    0.27
  -6   3   1    2.14    0.26
   6  -2  -1    7.62    0.45
  -6   2   1    8.10    0.45
   6  -1  -1   11.72    0.55
  -6   1   1   11.98    0.55
   6   0  -1    5.75    0.38
  -6   0   1    6.57    0.39
   6   1  -1    4.31    0.34
  -6  -1   1    3.03    0.30
   6   2  -1    3.35    0.32
  -6  -2   1    3.86    0.34
   6   3  -1    0.25    0.16
  -6  -3   1    0.53    0.18
   6   4  -1    1.58    0.26
  -6  -4   1    1.34    0.23
   6   5  -1    2.76    0.37
  -6  -5   1    2.77    0.35
   6   6  -1    1.78    0.34
  -6  -6   1    2.37    0.36
   6   7  -1   -0.11    0.23
  -6  -7   1    0.24    0.22
   6   8  -1   -0.09    0.26
  -6  -8   1   -0.10    0.23
  -5   8   1    0.82    0.25
  -5   7   1    2.60    0.36
   5  -6  -1    3.06    0.36
  -5   6   1    3.06    0.34
   5  -5  -1    2.86    0.31
   5  -5  -1    2.89    0.37
  -5   5   1    2.68    0.29
   5  -4  -1    2.79    0.34
   5  -4  -1    2.62    0.28
  -5   4   1    2.01    0.23
   5  -3  -1    7.33    0.41
  -5   3   1    7.50    0.41
   5  -2  -1    2.41    0.24
  -5   2   1    2.85    0.26
   5  -1  -1    1.59    0.20
  -5   1   1    1.89    0.21
   5   0  -1    0.65    0.14
  -5   0   1    0.67    0.14
   5   1  -1    2.48    0.25
  -5  -1   1    2.49    0.25
   5   2  -1    3.28    0.29
  -5  -2   1    3.18    0.28
   5   3  -1    0.79    0.19
  -5  -3   1    0.78    0.17
   5   4  -1    1.41    0.24
  -5  -4   1    1.30    0.22
   5   5  -1    1.29    0.25
  -5  -5   1    1.63    0.27
   5   6  -1    0.38    0.22
  -5  -6   1    0.46    0.20
   5   7  -1   -0.43    0.20
  -5  -7   1   -0.14    0.19
   5   8  -1   -0.07    0.22
  -5  -8   1    0.30    0.22
  -4   9   1    0.83    0.26
  -4   8   1    0.95    0.26
   4  -7  -1    2.10    0.32
  -4   7   1    2.01    0.29
   4  -6  -1    2.25    0.30
  -4   6   1    2.69    0.31
   4  -5  -1    2.32    0.28
  -4   5   1    2.19    0.26
   4  -4  -1    4.96    0.34
   4  -4  -1    4.96    0.41
  -4   4   1    4.66    0.32
   4  -3  -1    2.98    0.31
   4  -3  -1    3.29    0.27
  -4   3   1    3.30    0.25
   4  -2  -1    5.48    0.31
  -4   2   1    6.33    0.32
   4  -1  -1    4.12    0.25
  -4   1   1    3.35    0.24
  -4   1   1    3.92    0.26
   4   0  -1    2.92    0.22
  -4   0   1    3.13    0.25
  -4   0   1    2.72    0.21
   4   1  -1    2.97    0.23
  -4  -1   1    2.91    0.22
   4   2  -1   11.71    0.48
  -4  -2   1   11.21    0.47
   4   3  -1    2.65    0.26
  -4  -3   1    2.69    0.25
  -4  -3   1    2.01    0.27
   4   4  -1    0.19    0.15
  -4  -4   1    0.15    0.13
   4   5  -1   -0.13    0.16
  -4  -5   1    0.06    0.13
   4   6  -1    0.87    0.26
  -4  -6   1    0.99    0.23
   4   7  -1    0.59    0.26
  -4  -7   1    0.45    0.21
   4   8  -1    0.25    0.28
  -4  -8   1    0.21    0.22
   4   9  -1    0.15    0.28
  -4  -9   1    0.52    0.26
  -3   9   1    0.53    0.23
  -3   8   1    3.39    0.42
   3  -7  -1    1.61    0.29
  -3   7   1    1.84    0.29
   3  -6  -1    0.53    0.18
  -3   6   1    0.57    0.16
   3  -5  -1    1.04    0.19
  -3   5   1    0.93    0.17
   3  -4  -1   11.03    0.48
   3  -4  -1   10.14    0.53
  -3   4   1   11.17    0.46
   3  -3  -1    6.62    0.39
   3  -3  -1    6.69    0.33
  -3   3   1    6.94    0.33
   3  -2  -1    2.45    0.19
  -3   2   1    2.42    0.19
  -3   2   1    2.80    0.21
   3  -1  -1    3.66    0.21
  -3   1   1    3.47    0.21
  -3   1   1    3.50    0.20
   3   0  -1    6.75    0.29
  -3   0   1    7.39    0.30
  -3   0   1    7.00    0.29
   3   1  -1   25.87    0.79
  -3  -1   1   26.82    0.80
  -3  -1   1   25.63    0.78
   3   2  -1    1.18    0.15
  -3  -2   1    0.87    0.12
   3   3  -1    1.12    0.17
  -3  -3   1    1.23    0.15
  -3  -3   1    1.17    0.19
   3   4  -1    0.05    0.13
  -3  -4   1   -0.01    0.13
  -3  -4   1    0.15    0.11
   3   5  -1    0.27    0.19
  -3  -5   1    0.66    0.17
  -3  -5   1    0.62    0.19
   3   6  -1    0.66    0.22
  -3  -6   1    0.40    0.17
   3   7  -1    0.83    0.25
  -3  -7   1    0.45    0.21
   3   8  -1    0.05    0.23
  -3  -8   1    0.08    0.19
   3   9  -1    0.35    0.28
  -3  -9   1    0.42    0.23
  -2   9   1    0.64    0.24
   2  -8  -1    1.73    0.30
  -2   8   1    1.65    0.29
   2  -7  -1    1.97    0.29
  -2   7   1    2.36    0.30
   2  -6  -1    1.21    0.22
  -2   6   1    1.18    0.21
   2  -5  -1    0.18    0.12
  -2   5   1   -0.03    0.09
   2  -4  -1    1.42    0.18
  -2   4   1    1.45    0.17
  -2   4   1    1.52    0.21
   2  -3  -1    6.57    0.37
   2  -3  -1    7.00    0.32
  -2   3   1    7.33    0.31
  -2   3   1    7.60    0.33
   2  -2  -1   31.70    0.92
   2  -2  -1   31.36    1.02
  -2   2   1   33.09    0.93
  -2   2   1   33.17    0.92
   2  -1  -1    1.13    0.11
  -2   1   1    1.01    0.11
  -2   1   1    1.08    0.10
   2   0  -1    8.23    0.28
   2   0  -1    7.84    0.28
  -2   0   1    7.75    0.28
  -2   0   1    7.86    0.28
   2   1  -1    0.44    0.09
  -2  -1   1    0.13    0.07
  -2  -1   1    0.18    0.06
   2   2  -1    5.30    0.27
  -2  -2   1    5.13    0.26
  -2  -2   1    4.85    0.25
   2   3  -1    0.21    0.11
  -2  -3   1    0.08    0.11
  -2  -3   1    0.10    0.09
   2   4  -1   -0.10    0.12
  -2  -4   1    0.02    0.11
  -2  -4   1   -0.09    0.08
   2   5  -1    0.45    0.18
  -2  -5   1    0.58    0.16
   2   6  -1    0.31    0.19
  -2  -6   1    0.02    0.14
   2   7  -1    0.26    0.22
  -2  -7   1    0.33    0.19
   2   8  -1    0.20    0.26
  -2  -8   1    0.36    0.21
   2   9  -1    0.39    0.30
  -2  -9   1    0.58    0.26
  -1  10   1   -0.07    0.16
  -1   9   1    0.92    0.23
   1  -8  -1    1.01    0.24
  -1   8   1    1.52    0.27
   1  -7  -1    2.81    0.33
  -1   7   1    2.79    0.32
   1  -6  -1    0.17    0.14
  -1   6   1    0.31    0.13
   1  -5  -1    3.28    0.29
  -1   5   1    3.49    0.27
   1  -4  -1    3.39    0.26
  -1   4   1    3.37    0.24
  -1   4   1    3.39    0.31
   1  -3  -1    9.59    0.38
  -1   3   1    9.23    0.38
  -1   3   1    9.03    0.42
   1  -2  -1   11.74    0.40
   1  -2  -1   11.50    0.44
  -1   2   1   11.64    0.40
  -1   2   1   12.28    0.45
   1  -1  -1    3.95    0.16
   1  -1  -1    3.82    0.21
  -1   1   1    3.85    0.17
   1   0  -1    2.75    0.10
   1   0  -1    2.70    0.16
  -1   0   1    2.77    0.11
  -1   0   1    2.85    0.16
  -1   0   1    2.64    0.10
   1   1  -1    1.57    0.12
   1   1  -1    1.51    0.17
   1   1  -1    1.71    0.12
  -1  -1   1    1.76    0.17
  -1  -1   1    1.86    0.13
  -1  -1   1    1.74    0.12
   1   2  -1   15.64    0.63
   1   2  -1   17.51    0.56
  -1  -2   1   18.21    0.53
  -1  -2   1   17.03    0.55
  -1  -2   1   17.24    0.64
   1   3  -1    1.25    0.16
  -1  -3   1    1.72    0.17
   1   4  -1    4.05    0.31
  -1  -4   1    3.74    0.28
   1   5  -1    0.20    0.11
  -1  -5   1    0.47    0.15
  -1  -6   1    1.22    0.22
  -1  -7   1    0.47    0.18
   1   8  -1   -0.29    0.22
  -1  -8   1   -0.20    0.17
   1   9  -1    0.30    0.29
  -1  -9   1    0.21    0.20
   1  10  -1    0.09    0.31
  -1 -10   1    0.37    0.27
   0  10   1    0.84    0.35
   0  -9  -1   -0.08    0.19
   0   9   1    0.24    0.28
   0  -8  -1    0.66    0.24
   0   8   1    0.30    0.16
   0  -7  -1    0.55    0.19
   0   7   1    0.20    0.15
   0  -6  -1    1.63    0.24
   0   6   1    2.19    0.26
   0  -5  -1    0.55    0.14
   0   5   1    0.46    0.14
   0  -4  -1    2.95    0.24
   0   4   1    2.85    0.23
   0  -3  -1    0.52    0.11
   0   3   1    0.76    0.12
   0   3   1    0.39    0.10
   0  -2  -1   18.09    0.57
   0   2   1   19.07    0.58
   0   2   1   19.35    0.57
   0  -1  -1    0.35    0.05
   0   1   1    0.27    0.05
   0   0  -1    1.30    0.05
   0   0   1    1.29    0.05
   0   1  -1    3.23    0.14
   0   1  -1    3.24    0.13
   0  -1   1    2.87    0.14
   0   2  -1   16.32    0.52
   0   2  -1   17.03    0.53
   0  -2   1   17.12    0.52
   0  -2   1   15.68    0.52
   0   3  -1    4.91    0.25
   0  -3   1    4.29    0.26
   0   4  -1    0.65    0.13
   0  -4   1    0.78    0.15
   0   5  -1    8.48    0.43
   0  -5   1    7.75    0.44
   0   6  -1    0.96    0.20
   0  -6   1    0.95    0.20
   0   7  -1    0.01    0.14
   0  -7   1   -0.08    0.15
   0   8  -1    0.33    0.17
   0  -8   1    0.59    0.21
   0   9  -1    0.07    0.16
   0  -9   1    0.69    0.26
   0  10  -1   -0.06    0.33
   1  10   1    0.05    0.29
  -1  -9  -1    0.32    0.22
   1   9   1    0.25    0.27
  -1  -8  -1    0.21    0.18
   1   8   1    0.26    0.24
  -1  -7  -1    0.16    0.17
   1   7   1   -0.06    0.19
  -1  -6  -1    0.15    0.14
   1   6   1    0.31    0.20
  -1  -5  -1    0.30    0.14
   1   5   1    0.64    0.20
  -1  -4  -1    0.59    0.13
   1   4   1    0.55    0.16
  -1  -3  -1    0.00    0.07
   1   3   1    0.30    0.11
  -1  -2  -1    2.21    0.16
   1   2   1    2.20    0.16
   1   2   1    2.55    0.19
  -1  -1  -1    0.24    0.06
  -1  -1  -1    0.25    0.05
   1   1   1    0.30    0.06
   1   1   1    0.23    0.06
  -1   0  -1    0.76    0.07
  -1   0  -1    0.86    0.08
   1   0   1    0.75    0.07
   1   0   1    0.77    0.07
  -1   1  -1    0.31    0.07
  -1   1  -1    0.36    0.06
   1  -1   1    0.30    0.06
   1  -1   1    0.31    0.06
   1  -1   1    0.28    0.06
  -1   2  -1   13.33    0.46
  -1   2  -1   14.14    0.45
   1  -2   1   13.45    0.46
  -1   3  -1   -0.02    0.10
  -1   3  -1    0.14    0.07
   1  -3   1    0.15    0.09
  -1   4  -1    0.57    0.12
  -1   4  -1    0.89    0.17
   1  -4   1    0.41    0.13
  -1   5  -1    3.26    0.28
  -1   5  -1    3.77    0.36
   1  -5   1    3.80    0.32
  -1   6  -1    3.45    0.32
   1  -6   1    3.59    0.35
  -1   7  -1    0.62    0.19
   1  -7   1    1.11    0.24
  -1   8  -1    0.35    0.19
   1  -8   1    0.03    0.19
  -1   9  -1    0.16    0.18
   1  -9   1    0.25    0.21
  -2  -9  -1   -0.04    0.19
   2   9   1    0.07    0.27
  -2  -8  -1    0.13    0.18
   2   8   1   -0.09    0.23
  -2  -7  -1    0.23    0.16
   2   7   1   -0.23    0.18
  -2  -6  -1    1.19    0.22
   2   6   1    0.97    0.25
  -2  -5  -1    1.71    0.21
  -2  -5  -1    2.03    0.25
   2   5   1    1.58    0.25
  -2  -4  -1    4.37    0.34
  -2  -4  -1    4.78    0.31
   2   4   1    5.08    0.35
  -2  -3  -1    4.02    0.25
   2   3   1    4.13    0.29
  -2  -2  -1    1.18    0.12
   2   2   1    1.35    0.15
  -2  -1  -1   15.56    0.50
   2   1   1   15.19    0.51
   2   1   1   15.93    0.50
  -2   0  -1    2.11    0.15
  -2   0  -1    2.29    0.17
   2   0   1    2.41    0.17
   2   0   1    2.46    0.16
  -2   1  -1    7.27    0.29
  -2   1  -1    7.22    0.30
   2  -1   1    7.05    0.30
  -2   2  -1    7.36    0.31
   2  -2   1    7.23    0.32
   2  -2   1    7.23    0.32
  -2   3  -1    6.81    0.32
   2  -3   1    6.85    0.34
  -2   4  -1    8.14    0.38
  -2   4  -1    8.50    0.43
   2  -4   1    7.71    0.41
  -2   5  -1    0.94    0.16
  -2   5  -1    0.99    0.21
   2  -5   1    1.09    0.21
  -2   6  -1    0.37    0.15
   2  -6   1    0.59    0.19
  -2   7  -1    0.88    0.21
   2  -7   1    0.69    0.23
  -2   8  -1    2.94    0.38
   2  -8   1    2.98    0.40
  -2   9  -1    0.86    0.27
   2  -9   1    0.49    0.25
  -3  -9  -1    0.32    0.24
   3   9   1   -0.02    0.28
  -3  -8  -1    0.17    0.20
   3   8   1    0.68    0.30
  -3  -7  -1    0.01    0.15
   3   7   1   -0.19    0.20
  -3  -6  -1    0.63    0.20
  -3  -6  -1    0.69    0.20
   3   6   1    0.55    0.24
  -3  -5  -1    1.61    0.23
  -3  -5  -1    0.84    0.22
   3   5   1    1.34    0.27
  -3  -4  -1    5.42    0.34
   3   4   1    4.46    0.37
  -3  -3  -1    0.64    0.12
   3   3   1    0.90    0.17
  -3  -2  -1    6.48    0.32
   3   2   1    6.63    0.34
  -3  -1  -1    0.45    0.11
   3   1   1    0.57    0.13
  -3   0  -1    0.19    0.08
   3   0   1    0.33    0.10
  -3   1  -1    3.00    0.20
   3  -1   1    2.69    0.22
  -3   2  -1    6.12    0.31
   3  -2   1    6.52    0.33
  -3   3  -1    5.37    0.30
   3  -3   1    5.45    0.33
   3  -3   1    5.58    0.33
  -3   4  -1    1.45    0.19
   3  -4   1    1.34    0.20
  -3   5  -1    2.12    0.24
   3  -5   1    1.71    0.24
  -3   6  -1    0.57    0.17
   3  -6   1    0.40    0.18
  -3   7  -1    4.63    0.41
   3  -7   1    5.59    0.49
  -3   8  -1    1.67    0.30
   3  -8   1    1.65    0.32
  -3   9  -1    1.76    0.33
  -4  -9  -1    0.03    0.23
   4   9   1    0.45    0.33
  -4  -8  -1    0.34    0.22
   4   8   1   -0.12    0.25
  -4  -7  -1    1.12    0.27
   4   7   1    0.65    0.28
  -4  -6  -1    0.17    0.16
   4   6   1    0.04    0.20
  -4  -5  -1   -0.05    0.13
   4   5   1    0.01    0.16
  -4  -4  -1    1.61    0.22
   4   4   1    1.63    0.25
  -4  -3  -1    3.90    0.30
   4   3   1    3.80    0.33
  -4  -2  -1   -0.02    0.09
   4   2   1    0.08    0.11
  -4  -1  -1    1.52    0.17
   4   1   1    1.43    0.18
  -4   0  -1    6.64    0.34
   4   0   1    6.48    0.35
  -4   1  -1    1.72    0.18
   4  -1   1    1.88    0.21
  -4   2  -1    0.25    0.12
   4  -2   1    0.21    0.13
  -4   3  -1    9.03    0.43
   4  -3   1    8.58    0.46
   4  -3   1    8.26    0.45
  -4   4  -1   14.13    0.60
   4  -4   1   14.24    0.63
   4  -4   1   14.09    0.64
  -4   5  -1    1.36    0.22
   4  -5   1    1.45    0.24
  -4   6  -1    1.59    0.26
   4  -6   1    1.34    0.27
  -4   7  -1    3.29    0.40
   4  -7   1    3.31    0.41
  -4   8  -1    3.66    0.46
  -5  -8  -1    0.34    0.26
   5   8   1    0.32    0.29
  -5  -7  -1    1.30    0.29
   5   7   1    1.78    0.36
  -5  -6  -1    2.02    0.32
   5   6   1    1.16    0.30
  -5  -5  -1    0.17    0.17
   5   5   1   -0.21    0.15
  -5  -4  -1    0.80    0.20
   5   4   1    0.78    0.21
  -5  -3  -1    8.84    0.48
   5   3   1    9.47    0.52
  -5  -2  -1   14.91    0.63
   5   2   1   16.06    0.66
  -5  -1  -1    5.50    0.35
   5   1   1    5.63    0.37
  -5   0  -1    2.61    0.27
   5   0   1    2.62    0.27
  -5   1  -1    6.07    0.37
   5  -1   1    6.79    0.40
  -5   2  -1   13.67    0.58
   5  -2   1   13.71    0.60
  -5   3  -1   13.67    0.62
   5  -3   1   15.58    0.66
   5  -3   1   15.81    0.68
  -5   4  -1    5.63    0.39
   5  -4   1    5.93    0.44
   5  -4   1    5.21    0.44
  -5   5  -1    3.90    0.36
   5  -5   1    3.21    0.36
  -5   6  -1    4.52    0.41
   5  -6   1    3.84    0.43
  -5   7  -1    4.67    0.47
   5  -7   1    4.42    0.48
  -5   8  -1    0.59    0.26
   6   8   1    0.24    0.29
  -6  -7  -1    0.48    0.25
   6   7   1    1.10    0.36
  -6  -6  -1    0.77    0.26
   6   6   1    0.58    0.28
  -6  -5  -1    5.12    0.47
   6   5   1    6.05    0.51
  -6  -4  -1    2.29    0.30
   6   4   1    1.77    0.30
  -6  -3  -1    4.47    0.39
   6   3   1    3.48    0.37
  -6  -2  -1    4.73    0.40
   6   2   1    5.05    0.41
  -6  -1  -1   12.90    0.60
   6   1   1   12.62    0.61
  -6   0  -1   11.14    0.55
   6   0   1    9.71    0.54
  -6   1  -1    7.48    0.45
   6  -1   1    7.41    0.48
  -6   2  -1    8.69    0.49
   6  -2   1    8.61    0.51
  -6   3  -1    3.90    0.36
   6  -3   1    4.11    0.39
  -6   4  -1    5.71    0.43
   6  -4   1    5.97    0.48
   6  -4   1    6.35    0.50
  -6   5  -1    2.39    0.32
   6  -5   1    2.16    0.35
   6  -5   1    2.82    0.36
  -6   6  -1    5.68    0.48
   6  -6   1    5.08    0.51
  -6   7  -1    0.85    0.26
  -7  -7  -1    0.51    0.29
   7   7   1   -0.16    0.25
  -7  -6  -1    2.43    0.39
   7   6   1    2.39    0.42
  -7  -5  -1    1.52    0.31
   7   5   1    2.66    0.41
  -7  -4  -1    3.38    0.39
   7   4   1    3.57    0.43
  -7  -3  -1    0.74    0.24
   7   3   1    0.51    0.23
  -7  -2  -1    1.13    0.24
   7   2   1    1.26    0.27
  -7  -1  -1    3.37    0.36
   7   1   1    3.50    0.37
  -7   0  -1    5.73    0.45
   7   0   1    5.48    0.45
  -7   1  -1    8.39    0.52
   7  -1   1    8.47    0.54
  -7   2  -1    1.77    0.28
   7  -2   1    1.16    0.26
  -7   3  -1    1.70    0.28
   7  -3   1    1.65    0.29
  -7   4  -1    0.78    0.23
   7  -4   1    0.48    0.25
   7  -4   1    0.43    0.24
  -7   5  -1    5.82    0.49
   7  -5   1    5.30    0.52
  -7   6  -1    1.22    0.28
  -8  -5  -1    1.16    0.30
   8   5   1    1.64    0.36
  -8  -4  -1    2.38    0.37
   8   4   1    1.93    0.37
  -8  -3  -1    0.80    0.24
   8   3   1    0.44    0.23
  -8  -2  -1    1.47    0.30
   8   2   1    1.43    0.29
  -8  -1  -1    1.28    0.27
   8   1   1    1.60    0.30
  -8   0  -1    3.82    0.43
   8   0   1    3.58    0.41
  -8   1  -1    1.07    0.25
   8  -1   1    0.72    0.24
  -8   2  -1    2.38    0.35
   8  -2   1    1.79    0.33
  -8   3  -1    1.01    0.25
  -8   4  -1    2.15    0.32
   8  -4   1    2.78    0.43
  -8   5  -1    0.57    0.25
  -9  -3  -1    1.78    0.36
  -9  -2  -1    1.59    0.34
  -9  -1  -1    1.84    0.33
  -9   0  -1    0.49    0.25
  -9   1  -1    1.98    0.36
  -9   2  -1    1.83    0.36
  -9   3  -1    2.03    0.36
 -10   0   2    0.89    0.28
   9  -4  -2   12.91    0.87
  -9   4   2   12.15    0.74
  -9   3   2   -0.16    0.18
  -9   2   2   17.65    0.86
  -9   1   2    0.20    0.21
  -9   0   2   21.34    0.95
  -9  -1   2    0.32    0.22
  -9  -2   2   24.35    1.05
  -9  -3   2   -0.11    0.18
  -9  -4   2   17.41    0.91
   8  -6  -2    0.58    0.35
   8  -5  -2   18.93    1.02
  -8   5   2   18.74    0.88
   8  -4  -2    0.40    0.30
  -8   4   2    0.73    0.23
  -8   3   2   34.10    1.25
  -8   2   2    0.76    0.22
  -8   1   2   51.39    1.67
  -8   0   2    0.58    0.22
   8   1  -2   46.92    1.53
  -8  -1   2   45.32    1.53
   8   2  -2    0.47    0.21
  -8  -2   2    0.31    0.20
   8   3  -2   55.39    1.87
  -8  -3   2   55.63    1.82
  -8  -4   2    0.32    0.21
  -8  -5   2   24.74    1.10
  -8  -6   2    0.41    0.25
  -7   7   2    0.24    0.20
   7  -6  -2   21.15    1.09
  -7   6   2   21.32    0.94
   7  -5  -2    0.08    0.26
  -7   5   2    0.73    0.21
   7  -4  -2   49.97    1.77
  -7   4   2   47.73    1.59
   7  -3  -2    1.04    0.23
  -7   3   2    0.78    0.19
   7  -2  -2   52.04    1.63
  -7   2   2   53.06    1.65
   7  -1  -2    0.17    0.15
  -7   1   2    0.23    0.15
   7   0  -2  110.74    3.11
  -7   0   2  112.80    3.14
   7   1  -2    0.18    0.15
  -7  -1   2    0.51    0.18
   7   2  -2   51.29    1.63
  -7  -2   2   53.18    1.65
   7   3  -2    1.37    0.26
  -7  -3   2    1.18    0.25
   7   4  -2   62.22    1.96
  -7  -4   2   62.94    1.98
   7   5  -2    0.64    0.24
  -7  -5   2    0.89    0.26
   7   6  -2   30.47    1.24
  -7  -6   2   28.98    1.23
  -7  -7   2    0.10    0.24
  -6   7   2   18.75    0.88
  -6   6   2    0.43    0.19
   6  -5  -2   50.29    1.82
  -6   5   2   51.45    1.63
   6  -4  -2    0.19    0.15
   6  -4  -2    0.17    0.21
  -6   4   2    0.09    0.12
   6  -3  -2   45.51    1.42
  -6   3   2   44.71    1.41
   6  -2  -2    0.52    0.15
  -6   2   2    0.37    0.14
   6  -1  -2  124.80    3.38
  -6   1   2  123.92    3.39
   6   0  -2    3.93    0.31
  -6   0   2    3.54    0.30
   6   1  -2   94.47    2.57
  -6  -1   2   89.27    2.57
   6   2  -2    0.84    0.19
  -6  -2   2    0.43    0.16
   6   3  -2   50.48    1.58
  -6  -3   2   52.16    1.60
   6   4  -2   -0.09    0.13
  -6  -4   2   -0.01    0.13
   6   5  -2   64.63    2.04
  -6  -5   2   64.83    2.03
   6   6  -2    0.44    0.27
  -6  -6   2    0.47    0.22
   6   7  -2   23.59    1.08
  -6  -7   2   22.58    1.06
   6   8  -2    0.20    0.28
  -6  -8   2    1.15    0.32
  -5   8   2   15.91    0.82
  -5   7   2    0.21    0.16
  -5   6   2   44.82    1.48
   5  -5  -2    0.52    0.18
   5  -5  -2    0.19    0.22
  -5   5   2    0.51    0.16
   5  -4  -2   87.07    2.45
   5  -4  -2   86.38    2.69
  -5   4   2   86.14    2.45
   5  -3  -2    1.98    0.23
  -5   3   2    1.91    0.21
   5  -2  -2  100.82    2.73
  -5   2   2   99.54    2.73
   5  -1  -2    0.52    0.13
  -5   1   2    0.68    0.14
   5   0  -2  164.04    4.32
  -5   0   2  164.82    4.33
   5   1  -2    0.63    0.14
  -5  -1   2    0.53    0.13
   5   2  -2  128.62    3.43
  -5  -2   2  126.28    3.43
   5   3  -2    2.72    0.28
  -5  -3   2    2.03    0.23
   5   4  -2   97.36    2.73
  -5  -4   2   94.98    2.72
   5   5  -2    0.32    0.19
  -5  -5   2    0.21    0.16
   5   6  -2   55.95    1.84
  -5  -6   2   55.78    1.82
   5   7  -2    0.05    0.21
  -5  -7   2    0.01    0.19
   5   8  -2   23.31    1.11
  -5  -8   2   23.82    1.10
  -4   9   2   14.49    0.82
  -4   8   2    0.89    0.26
  -4   7   2   45.81    1.53
   4  -6  -2    2.20    0.29
  -4   6   2    2.19    0.28
   4  -5  -2   88.48    2.52
  -4   5   2   89.36    2.51
   4  -4  -2    4.55    0.41
   4  -4  -2    4.33    0.31
  -4   4   2    4.15    0.29
   4  -3  -2  172.20    4.58
   4  -3  -2  174.51    5.02
  -4   3   2  173.64    4.58
  -4   3   2  177.97    4.60
   4  -2  -2   15.21    0.55
  -4   2   2   16.72    0.58
  -4   2   2   14.64    0.55
   4  -1  -2  243.79    6.32
  -4   1   2  238.71    6.32
  -4   1   2  254.77    6.34
   4   0  -2   44.52    1.27
  -4   0   2   45.77    1.28
  -4   0   2   43.05    1.27
   4   1  -2  306.74    7.84
  -4  -1   2  314.11    7.86
  -4  -1   2  304.38    9.37
  -4  -1   2  299.05    7.84
   4   2  -2    4.69    0.29
  -4  -2   2    4.97    0.40
  -4  -2   2    4.56    0.28
   4   3  -2  196.35    5.12
  -4  -3   2  194.87    6.12
  -4  -3   2  193.41    5.11
   4   4  -2    2.86    0.28
  -4  -4   2    3.35    0.30
   4   5  -2   94.22    2.68
  -4  -5   2   90.84    2.66
   4   6  -2    1.71    0.30
  -4  -6   2    1.32    0.24
   4   7  -2   65.52    2.11
  -4  -7   2   65.14    2.09
   4   8  -2   -0.33    0.22
  -4  -8   2   -0.16    0.18
   4   9  -2   20.00    1.04
  -4  -9   2   18.67    1.00
  -3   9   2    0.42    0.21
  -3   8   2   44.37    1.54
   3  -7  -2    0.00    0.15
  -3   7   2   -0.05    0.13
   3  -6  -2   57.92    1.77
  -3   6   2   56.51    1.73
   3  -5  -2    3.20    0.30
  -3   5   2    3.67    0.29
   3  -4  -2  164.51    4.79
   3  -4  -2  165.95    4.38
  -3   4   2  167.85    4.37
   3  -3  -2    1.00    0.19
   3  -3  -2    0.96    0.14
  -3   3   2    1.27    0.15
  -3   3   2    0.99    0.14
   3  -2  -2  399.01   10.17
  -3   2   2  390.54   10.16
  -3   2   2  411.50   10.18
   3  -1  -2   13.85    0.46
  -3   1   2   14.24    0.47
  -3   1   2   13.35    0.45
   3   0  -2  225.54    5.75
  -3   0   2  223.26    5.76
  -3   0   2  226.93    5.76
   3   1  -2   17.28    0.55
  -3  -1   2   16.83    0.55
  -3  -1   2   17.76    0.57
   3   2  -2  445.65   11.38
  -3  -2   2  455.03   13.55
  -3  -2   2  434.35   11.38
  -3  -2   2  456.37   11.39
   3   3  -2    1.86    0.21
  -3  -3   2    1.37    0.17
  -3  -3   2    1.41    0.22
   3   4  -2  172.96    4.59
  -3  -4   2  179.29    5.43
  -3  -4   2  165.07    4.57
   3   5  -2    0.51    0.18
  -3  -5   2    0.57    0.19
  -3  -5   2    0.27    0.16
   3   6  -2   75.63    2.30
  -3  -6   2   78.12    2.30
   3   7  -2    0.34    0.22
  -3  -7   2    0.36    0.19
   3   8  -2   51.99    1.80
  -3  -8   2   51.43    1.77
   3   9  -2    0.22    0.26
  -3  -9   2   -0.01    0.22
  -2   9   2   25.51    1.07
  -2   8   2    0.79    0.24
   2  -7  -2   67.29    2.03
  -2   7   2   65.97    2.03
   2  -6  -2    0.09    0.14
  -2   6   2    0.06    0.12
   2  -5  -2  121.33    3.26
  -2   5   2  117.00    3.22
   2  -4  -2    3.32    0.25
  -2   4   2    2.93    0.24
  -2   4   2    3.13    0.23
  -2   4   2    2.95    0.29
   2  -3  -2  462.69   12.77
   2  -3  -2  455.29   11.73
  -2   3   2  482.53   11.75
  -2   3   2  448.21   11.82
   2  -2  -2  374.73    9.39
   2  -2  -2  372.15   10.24
  -2   2   2  377.50    9.40
  -2   2   2  356.25    9.52
   2  -1  -2  379.62    9.63
  -2   1   2  383.83   11.39
  -2   1   2  363.45    9.71
  -2   1   2  389.97    9.59
   2   0  -2   88.78    2.33
  -2   0   2   89.47    2.33
  -2   0   2   89.96    2.33
  -2   0   2   90.83    2.83
   2   1  -2  460.59   11.68
   2   1  -2  455.93   13.85
  -2  -1   2  450.13   11.81
  -2  -1   2  476.14   11.65
   2   2  -2  346.56    8.76
   2   2  -2  324.88   10.41
  -2  -2   2  340.30    8.76
  -2  -2   2  355.24    8.77
  -2  -2   2  352.97   10.42
   2   3  -2  514.18   12.88
   2   3  -2  479.41   15.24
  -2  -3   2  525.15   15.27
  -2  -3   2  506.43   12.89
   2   4  -2    0.37    0.15
  -2  -4   2    0.40    0.15
   2   5  -2  114.69    3.21
  -2  -5   2  116.66    3.20
   2   6  -2    1.81    0.31
  -2  -6   2    2.28    0.30
   2   7  -2   78.46    2.45
  -2  -7   2   83.35    2.46
   2   8  -2    0.14    0.25
  -2  -8   2    0.63    0.23
   2   9  -2   26.63    1.19
  -2  -9   2   27.64    1.18
  -1   9   2   -0.04    0.15
   1  -8  -2   60.78    1.90
  -1   8   2   57.51    1.85
   1  -7  -2   -0.04    0.14
  -1   7   2   -0.08    0.12
   1  -6  -2  111.96    3.09
  -1   6   2  110.19    3.08
   1  -5  -2   -0.06    0.10
  -1   5   2    0.06    0.10
   1  -4  -2  320.69    8.32
  -1   4   2  319.29    9.06
  -1   4   2  332.02    8.34
   1  -3  -2   34.14    1.00
  -1   3   2   33.99    0.99
  -1   3   2   33.28    1.11
  -1   3   2   34.97    1.01
   1  -2  -2  933.82   24.48
   1  -2  -2 1000.00   26.73
  -1   2   2  979.12   24.41
  -1   2   2  937.68   24.59
   1  -1  -2    0.31    0.06
   1  -1  -2    0.32    0.12
   1  -1  -2    0.08    0.09
   1  -1  -2    0.17    0.07
  -1   1   2    0.07    0.06
  -1   1   2    0.27    0.08
   1   0  -2  641.49   20.00
  -1   0   2  664.59   16.58
  -1   0   2  664.41   16.57
   1   1  -2    0.37    0.12
   1   1  -2    0.57    0.10
  -1  -1   2    0.45    0.09
   1   2  -2  661.90   19.64
  -1  -2   2  664.84   16.72
  -1  -2   2  641.37   16.99
   1   3  -2   16.60    0.67
  -1  -3   2   16.40    0.59
   1   4  -2  320.84    9.59
   1   4  -2  299.54    8.11
  -1  -4   2  327.80    8.16
   1   5  -2    0.78    0.18
  -1  -5   2    1.07    0.19
   1   6  -2  125.85    3.95
  -1  -6   2  122.80    3.46
  -1  -7   2   -0.15    0.15
   1   8  -2   43.62    1.59
  -1  -8   2   45.51    1.57
   1   9  -2   -0.06    0.26
  -1  -9   2   -0.31    0.20
   1  10  -2   18.19    1.03
   0  10   2   -0.07    0.28
   0   9   2   32.87    1.36
   0  -8  -2    1.00    0.25
   0  -7  -2   85.02    2.49
   0  -6  -2    0.84    0.20
   0   6   2    0.70    0.16
   0  -5  -2  250.69    7.62
   0   5   2  339.84    7.65
   0  -4  -2    6.74    0.35
   0   4   2    6.99    0.34
   0  -3  -2  377.10    9.49
   0   3   2  347.48    9.60
   0   3   2  394.29    9.51
   0  -2  -2   91.85    2.34
   0   2   2   85.73    2.34
   0   2   2   91.68    2.35
   0  -1  -2  649.66   17.87
   0  -1  -2  713.55   17.85
   0   1   2  737.71   17.85
   0   1   2  716.75   17.86
   0   0  -2   22.69    0.62
   0   0  -2   22.86    0.67
   0   0  -2   23.00    0.62
   0   0   2   22.69    0.62
   0   0   2   22.92    0.62
   0   1  -2  657.02   17.30
   0   1  -2  671.72   17.12
   0  -1   2  688.49   17.21
   0  -1   2  684.68   17.25
   0   2  -2  131.49    3.39
   0  -2   2  130.29    3.40
   0  -3   2  292.12    7.50
   0   4  -2    8.78    0.40
   0  -4   2    8.54    0.42
   0   5  -2  158.20    4.29
   0   5  -2  162.10    4.99
   0  -5   2  162.95    4.34
   0   6  -2    0.69    0.18
   0  -6   2    0.90    0.21
   0   7  -2   67.16    2.01
   0  -7   2   65.99    2.06
   0   8  -2    1.98    0.29
   0  -8   2    1.14    0.28
   0  -9   2   23.83    1.08
   1   9   2    0.08    0.28
  -1  -8  -2   35.34    1.29
   1   8   2   34.99    1.35
  -1  -7  -2    1.48    0.25
   1   7   2    0.65    0.24
  -1  -6  -2  133.79    3.65
   1   6   2  132.35    3.70
  -1  -5  -2    0.55    0.14
   1   5   2    0.04    0.16
  -1  -4  -2  179.88    4.69
   1   4   2  177.86    4.72
  -1  -3  -2   27.23    0.83
   1   3   2   26.98    0.86
   1   3   2   27.59    0.84
  -1  -2  -2   63.98    1.73
   1   2   2   62.50    1.74
   1   2   2   66.90    1.74
  -1  -1  -2    0.60    0.09
   1   1   2    0.44    0.09
   1   1   2    0.40    0.10
  -1   0  -2  843.09   21.83
  -1   0  -2  863.84   21.73
   1   0   2  867.49   21.82
   1   0   2  858.13   21.78
   1  -1   2    0.39    0.09
   1  -1   2    0.28    0.09
  -1   2  -2   52.66    1.45
  -1   2  -2   52.46    1.53
   1  -2   2   51.34    1.47
   1  -2   2   56.34    1.46
  -1   3  -2   14.28    0.51
  -1   3  -2   13.29    0.49
   1  -3   2   13.07    0.51
  -1   4  -2  159.90    4.44
  -1   4  -2  156.23    4.12
   1  -4   2  152.01    4.14
  -1   5  -2    1.82    0.26
  -1   5  -2    1.52    0.21
   1  -5   2    1.41    0.21
  -1   6  -2   92.89    2.69
   1  -6   2   96.29    2.74
  -1   7  -2    0.15    0.15
   1  -7   2   -0.08    0.17
  -1   8  -2   28.74    1.11
   1  -8   2   28.23    1.16
  -1   9  -2   -0.14    0.18
   1  -9   2   -0.24    0.19
   2   9   2   25.08    1.17
  -2  -8  -2    1.32    0.29
   2   8   2    1.17    0.31
  -2  -7  -2   49.73    1.62
   2   7   2   48.21    1.66
  -2  -6  -2    1.04    0.22
   2   6   2    1.14    0.26
  -2  -5  -2  125.29    3.41
  -2  -5  -2  127.62    3.94
   2   5   2  121.91    3.44
  -2  -4  -2    3.90    0.27
   2   4   2    3.58    0.33
  -2  -3  -2  168.76    4.45
   2   3   2  172.65    4.49
  -2  -2  -2    0.24    0.09
   2   2   2    0.31    0.11
  -2  -1  -2  325.63    8.24
   2   1   2  312.23    8.25
   2   1   2  333.46    8.25
  -2   0  -2    6.80    0.29
   2   0   2    6.99    0.31
   2   0   2    7.08    0.30
  -2   1  -2  242.82    6.26
   2  -1   2  246.38    6.27
  -2   2  -2    0.40    0.10
   2  -2   2    0.43    0.11
   2  -2   2    0.53    0.10
  -2   3  -2  191.40    4.93
   2  -3   2  187.77    4.96
  -2   4  -2   -0.09    0.08
  -2   4  -2   -0.15    0.11
   2  -4   2    0.23    0.14
  -2   5  -2  128.81    3.65
  -2   5  -2  123.16    3.40
   2  -5   2  122.23    3.43
  -2   6  -2    0.32    0.14
   2  -6   2    0.37    0.18
  -2   7  -2   42.82    1.45
   2  -7   2   41.73    1.48
  -2   8  -2   -0.14    0.14
   2  -8   2   -0.09    0.21
  -2   9  -2   20.56    0.97
   2  -9   2   19.59    1.01
   3   9   2   -0.15    0.28
  -3  -8  -2   35.65    1.38
   3   8   2   38.94    1.48
  -3  -7  -2    1.09    0.25
   3   7   2    0.80    0.29
  -3  -6  -2   69.76    2.09
  -3  -6  -2   67.42    2.36
   3   6   2   70.33    2.16
  -3  -5  -2    0.17    0.14
   3   5   2    0.08    0.18
  -3  -4  -2  222.44    5.91
   3   4   2  229.80    5.96
  -3  -3  -2    1.26    0.17
   3   3   2    1.35    0.20
  -3  -2  -2  203.27    5.34
   3   2   2  208.46    5.37
  -3  -1  -2    0.81    0.14
   3   1   2    0.75    0.15
  -3   0  -2  519.35   13.27
   3   0   2  526.29   13.28
  -3   1  -2    4.01    0.25
   3  -1   2    4.30    0.27
  -3   2  -2  224.05    5.75
   3  -2   2  219.49    5.77
  -3   3  -2    0.02    0.08
   3  -3   2    0.09    0.12
   3  -3   2   -0.01    0.11
  -3   4  -2  207.05    5.39
   3  -4   2  202.71    5.42
  -3   5  -2    0.00    0.11
   3  -5   2    0.11    0.15
  -3   6  -2   49.27    1.57
   3  -6   2   48.52    1.61
  -3   7  -2    0.12    0.16
   3  -7   2    0.20    0.19
  -3   8  -2   37.03    1.38
   3  -8   2   35.34    1.41
  -3   9  -2   -0.02    0.18
   4   9   2   19.23    1.09
  -4  -8  -2    0.08    0.20
   4   8   2   -0.07    0.24
  -4  -7  -2   58.24    1.90
   4   7   2   56.99    1.95
  -4  -6  -2    0.98    0.23
   4   6   2    1.23    0.28
  -4  -5  -2   69.98    2.12
   4   5   2   72.70    2.17
  -4  -4  -2    0.03    0.12
   4   4   2    0.08    0.15
  -4  -3  -2  238.24    6.29
   4   3   2  243.31    6.32
  -4  -2  -2    0.34    0.14
   4   2   2    0.38    0.14
  -4  -1  -2  191.25    5.08
   4   1   2  196.59    5.10
  -4   0  -2    4.00    0.28
   4   0   2    4.05    0.31
  -4   1  -2  195.40    5.15
   4  -1   2  198.20    5.17
  -4   2  -2    0.28    0.12
   4  -2   2    0.17    0.14
  -4   3  -2  171.13    4.55
   4  -3   2  168.87    4.85
   4  -3   2  173.43    4.58
  -4   4  -2    0.02    0.10
   4  -4   2    0.13    0.17
   4  -4   2   -0.08    0.13
  -4   5  -2   57.75    1.77
   4  -5   2   58.09    1.82
  -4   6  -2    0.53    0.17
   4  -6   2    0.49    0.19
  -4   7  -2   35.02    1.27
   4  -7   2   32.09    1.30
  -4   8  -2   -0.02    0.18
   4  -8   2    0.07    0.23
  -5  -8  -2   27.93    1.23
   5   8   2   28.89    1.31
  -5  -7  -2    0.64    0.25
   5   7   2    0.12    0.25
  -5  -6  -2   44.11    1.54
   5   6   2   45.43    1.60
  -5  -5  -2    1.25    0.24
   5   5   2    0.49    0.21
  -5  -4  -2   84.25    2.41
   5   4   2   80.65    2.43
  -5  -3  -2    3.68    0.35
   5   3   2    3.86    0.37
  -5  -2  -2  133.93    3.63
   5   2   2  133.04    3.65
  -5  -1  -2    0.46    0.16
   5   1   2    0.29    0.16
  -5   0  -2   89.29    2.52
   5   0   2   90.91    2.55
  -5   1  -2    0.00    0.11
   5  -1   2    0.05    0.14
  -5   2  -2   97.86    2.77
   5  -2   2  100.70    2.80
  -5   3  -2    1.30    0.21
   5  -3   2    1.33    0.23
   5  -3   2    1.48    0.24
  -5   4  -2   57.22    1.77
   5  -4   2   57.86    1.84
   5  -4   2   57.25    1.81
  -5   5  -2    0.08    0.14
   5  -5   2   -0.03    0.16
  -5   6  -2   21.73    0.92
   5  -6   2   21.68    0.97
  -5   7  -2    0.07    0.17
   5  -7   2   -0.17    0.21
  -5   8  -2   12.99    0.77
  -6  -7  -2   24.37    1.14
   6   7   2   27.24    1.24
  -6  -6  -2   -0.11    0.19
   6   6   2    0.11    0.23
  -6  -5  -2   41.39    1.46
   6   5   2   42.18    1.51
  -6  -4  -2    0.29    0.18
   6   4   2    0.05    0.18
  -6  -3  -2   58.54    1.81
   6   3   2   57.58    1.83
  -6  -2  -2    0.40    0.18
   6   2   2    0.08    0.18
  -6  -1  -2   75.61    2.23
   6   1   2   76.72    2.26
  -6   0  -2    0.01    0.14
   6   0   2   -0.10    0.15
  -6   1  -2   74.27    2.19
   6  -1   2   75.42    2.23
  -6   2  -2   -0.01    0.13
   6  -2   2    0.00    0.15
  -6   3  -2   35.56    1.24
   6  -3   2   36.61    1.27
  -6   4  -2    0.84    0.20
   6  -4   2    0.98    0.24
   6  -4   2    1.04    0.25
  -6   5  -2   26.80    1.06
   6  -5   2   27.82    1.12
  -6   6  -2   -0.08    0.15
   6  -6   2   -0.12    0.21
  -6   7  -2   12.33    0.74
  -7  -6  -2   20.50    1.00
   7   6   2   21.01    1.06
  -7  -5  -2    0.02    0.19
   7   5   2   -0.13    0.22
  -7  -4  -2   39.12    1.42
   7   4   2   40.50    1.46
  -7  -3  -2    3.34    0.39
   7   3   2    2.70    0.37
  -7  -2  -2   38.97    1.34
   7   2   2   37.45    1.36
  -7  -1  -2    0.93    0.25
   7   1   2    1.46    0.28
  -7   0  -2   52.61    1.68
   7   0   2   50.85    1.68
  -7   1  -2    1.81    0.29
   7  -1   2    1.61    0.30
  -7   2  -2   32.59    1.19
   7  -2   2   31.53    1.20
  -7   3  -2    1.50    0.27
   7  -3   2    2.39    0.35
  -7   4  -2   23.71    1.01
   7  -4   2   24.36    1.05
   7  -4   2   24.51    1.03
  -7   5  -2    0.30    0.20
   7  -5   2    0.39    0.25
   7  -5   2    0.52    0.30
  -7   6  -2   11.93    0.73
  -8  -5  -2   17.42    0.93
   8   5   2   18.25    0.98
  -8  -4  -2    0.64    0.25
   8   4   2    0.31    0.26
  -8  -3  -2   22.16    1.00
   8   3   2   22.37    1.03
  -8  -2  -2    0.43    0.23
   8   2   2    0.16    0.24
  -8  -1  -2   22.45    0.98
   8   1   2   22.02    0.99
  -8   0  -2    0.78    0.25
   8   0   2    0.41    0.23
  -8   1  -2   24.99    1.04
   8  -1   2   24.12    1.05
  -8   2  -2    0.29    0.21
   8  -2   2    0.11    0.22
  -8   3  -2   15.00    0.79
   8  -3   2   13.98    0.79
  -8   4  -2    0.40    0.21
   9   3   2    0.01    0.24
  -9  -2  -2   12.59    0.77
   9   2   2   11.44    0.75
  -9  -1  -2   -0.39    0.17
   9   1   2   -0.44    0.18
  -9   0  -2   14.57    0.81
   9   0   2   13.96    0.83
  -9   1  -2    0.15    0.21
  -9   2  -2    9.95    0.70
 -10   1   3    0.42    0.23
 -10   0   3    2.59    0.40
 -10  -1   3    1.65    0.34
   9  -4  -3    0.86    0.35
  -9   4   3    1.32    0.30
  -9   3   3    3.49    0.41
  -9   2   3    2.76    0.37
  -9   1   3    3.53    0.41
  -9   0   3    1.47    0.27
  -9  -1   3    3.29    0.38
  -9  -2   3    2.91    0.37
  -9  -3   3    4.01    0.46
  -9  -4   3    0.94    0.28
   8  -6  -3    1.08    0.40
   8  -5  -3    0.50    0.32
  -8   5   3    0.81    0.23
   8  -4  -3    7.43    0.66
  -8   4   3    6.58    0.50
  -8   3   3    5.63    0.46
  -8   2   3    5.84    0.45
  -8   1   3    1.29    0.24
  -8   0   3    3.24    0.35
  -8  -1   3    2.17    0.29
  -8  -2   3    3.85    0.40
  -8  -3   3    3.44    0.39
  -8  -4   3    2.48    0.37
  -8  -5   3    0.88    0.28
  -8  -6   3    0.72    0.29
  -7   7   3    1.63    0.32
   7  -6  -3    0.50    0.31
  -7   6   3    0.86    0.23
   7  -5  -3    5.88    0.60
  -7   5   3    7.49    0.50
   7  -4  -3    2.30    0.38
  -7   4   3    1.43    0.23
  -7   3   3    4.92    0.38
   7  -2  -3    0.96    0.20
  -7   2   3    0.70    0.18
   7  -1  -3    6.75    0.41
  -7   1   3    7.07    0.43
   7   0  -3    3.78    0.33
  -7   0   3    2.87    0.30
   7   1  -3    2.79    0.29
  -7  -1   3    2.01    0.26
   7   2  -3    0.98    0.20
  -7  -2   3    1.11    0.22
   7   3  -3    2.03    0.27
  -7  -3   3    1.64    0.25
   7   4  -3    2.28    0.31
  -7  -4   3    1.67    0.29
   7   5  -3    0.49    0.24
  -7  -5   3    0.64    0.24
  -7  -6   3    0.47    0.25
  -7  -7   3    0.11    0.23
  -6   8   3    2.08    0.36
  -6   7   3    0.56    0.20
   6  -6  -3    4.19    0.52
  -6   6   3    4.67    0.41
   6  -5  -3    1.61    0.35
  -6   5   3    2.32    0.29
   6  -4  -3    2.49    0.37
   6  -4  -3    2.91    0.30
  -6   4   3    2.36    0.26
   6  -3  -3    0.40    0.14
  -6   3   3    0.30    0.13
   6  -2  -3    3.51    0.28
  -6   2   3    3.17    0.28
   6  -1  -3    3.59    0.28
  -6   1   3    3.60    0.29
   6   0  -3   11.01    0.49
  -6   0   3   11.19    0.50
   6   1  -3    2.88    0.26
  -6  -1   3    2.29    0.25
   6   2  -3    1.49    0.22
  -6  -2   3    1.36    0.20
   6   3  -3    0.04    0.14
  -6  -3   3    0.21    0.13
   6   4  -3    1.40    0.25
  -6  -4   3    1.67    0.25
   6   5  -3    1.83    0.31
  -6  -5   3    1.70    0.28
   6   6  -3    0.66    0.25
  -6  -6   3    0.52    0.23
   6   7  -3   -0.09    0.22
  -6  -7   3    0.35    0.24
  -6  -8   3   -0.08    0.21
  -5   8   3    0.16    0.19
  -5   7   3    1.96    0.30
  -5   6   3    4.32    0.38
   5  -5  -3    3.26    0.40
   5  -5  -3    3.23    0.32
  -5   5   3    2.91    0.28
   5  -4  -3    0.60    0.16
   5  -4  -3    0.75    0.23
  -5   4   3    0.49    0.16
  -5   4   3    0.74    0.16
   5  -3  -3    2.42    0.23
  -5   3   3    2.85    0.26
  -5   3   3    2.51    0.24
  -5   3   3    2.07    0.27
   5  -2  -3    6.08    0.33
  -5   2   3    6.35    0.34
  -5   2   3    6.39    0.45
  -5   2   3    7.03    0.36
   5  -1  -3   15.22    0.55
  -5   1   3   14.69    0.56
  -5   1   3   15.51    0.57
  -5   1   3   14.36    0.74
   5   0  -3    2.34    0.21
  -5   0   3    2.39    0.22
  -5   0   3    1.89    0.27
  -5   0   3    2.59    0.23
   5   1  -3    1.93    0.20
  -5  -1   3    1.53    0.19
  -5  -1   3    1.87    0.20
   5   2  -3    2.34    0.23
  -5  -2   3    2.81    0.25
   5   3  -3    6.78    0.39
  -5  -3   3    6.41    0.38
   5   4  -3    0.43    0.17
  -5  -4   3    0.42    0.15
   5   5  -3    1.70    0.27
  -5  -5   3    1.56    0.27
   5   6  -3    0.17    0.20
  -5  -6   3    0.19    0.19
   5   7  -3    0.10    0.21
  -5  -7   3    0.07    0.19
   5   8  -3    0.33    0.26
  -5  -8   3    0.09    0.22
  -4   9   3    0.56    0.24
  -4   8   3    1.59    0.29
  -4   7   3    1.11    0.24
   4  -6  -3    2.55    0.30
  -4   6   3    2.68    0.29
   4  -5  -3    1.82    0.30
   4  -5  -3    1.81    0.23
  -4   5   3    1.85    0.23
   4  -4  -3    9.74    0.57
   4  -4  -3    9.78    0.45
  -4   4   3    9.95    0.45
  -4   4   3   10.53    0.47
   4  -3  -3    1.22    0.24
   4  -3  -3    1.57    0.18
  -4   3   3    1.28    0.17
  -4   3   3    1.70    0.18
   4  -2  -3    5.13    0.26
  -4   2   3    5.27    0.27
  -4   2   3    5.14    0.28
  -4   2   3    4.63    0.36
   4  -1  -3    4.26    0.23
  -4   1   3    4.40    0.35
  -4   1   3    4.71    0.25
  -4   1   3    4.45    0.24
   4   0  -3   12.51    0.44
  -4   0   3   12.06    0.45
  -4   0   3   12.73    0.63
  -4   0   3   12.26    0.45
   4   1  -3    0.05    0.08
  -4  -1   3    0.08    0.11
  -4  -1   3    0.12    0.09
  -4  -1   3    0.07    0.08
   4   2  -3    2.42    0.21
  -4  -2   3    2.32    0.21
  -4  -2   3    2.28    0.22
  -4  -2   3    1.84    0.26
   4   3  -3    0.32    0.12
  -4  -3   3    0.44    0.13
   4   4  -3    1.75    0.23
  -4  -4   3    1.90    0.24
   4   5  -3    1.42    0.26
  -4  -5   3    1.60    0.25
   4   6  -3   -0.20    0.17
  -4  -6   3    0.04    0.16
   4   7  -3    0.14    0.23
  -4  -7   3   -0.19    0.15
   4   8  -3   -0.14    0.23
  -4  -8   3    0.06    0.20
   4   9  -3    0.26    0.28
  -4  -9   3    0.30    0.24
  -3   9   3    0.88    0.27
  -3   8   3    0.15    0.17
  -3   7   3    2.91    0.32
   3  -6  -3    1.50    0.24
  -3   6   3    1.65    0.23
   3  -5  -3    9.40    0.47
  -3   5   3    9.16    0.44
   3  -4  -3    0.03    0.15
   3  -4  -3    0.07    0.09
  -3   4   3    0.17    0.10
  -3   4   3    0.01    0.09
   3  -3  -3    4.28    0.25
   3  -3  -3    4.87    0.35
  -3   3   3    4.94    0.26
  -3   3   3    4.27    0.24
   3  -2  -3    1.70    0.14
  -3   2   3    1.41    0.13
  -3   2   3    1.46    0.14
  -3   2   3    1.19    0.16
   3  -1  -3   15.64    0.47
  -3   1   3   15.55    0.49
  -3   1   3   15.19    0.48
  -3   1   3   14.92    0.64
   3   0  -3   11.25    0.36
  -3   0   3   11.12    0.37
  -3   0   3   10.89    0.37
   3   1  -3    4.16    0.20
  -3  -1   3    3.79    0.21
  -3  -1   3    3.88    0.30
  -3  -1   3    3.57    0.20
   3   2  -3    4.31    0.25
  -3  -2   3    4.49    0.25
  -3  -2   3    4.80    0.26
  -3  -2   3    4.74    0.37
   3   3  -3    1.51    0.18
  -3  -3   3    1.20    0.21
  -3  -3   3    1.12    0.16
   3   4  -3    0.63    0.18
  -3  -4   3    0.92    0.21
  -3  -4   3    0.55    0.15
   3   5  -3    0.39    0.18
  -3  -5   3    0.14    0.13
   3   6  -3    0.05    0.18
  -3  -6   3    0.12    0.15
   3   7  -3    0.10    0.21
  -3  -7   3    0.03    0.16
   3   8  -3   -0.06    0.21
  -3  -8   3   -0.11    0.18
   3   9  -3    0.10    0.25
  -3  -9   3    0.34    0.25
  -2   9   3    1.07    0.26
  -2   8   3    1.85    0.29
   2  -7  -3    1.12    0.23
  -2   7   3    1.52    0.25
   2  -6  -3    2.02    0.25
  -2   6   3    1.48    0.22
   2  -5  -3    1.13    0.18
  -2   5   3    1.21    0.18
   2  -4  -3    5.75    0.30
  -2   4   3    5.39    0.31
  -2   4   3    5.67    0.39
  -2   4   3    5.31    0.29
   2  -3  -3    1.99    0.23
   2  -3  -3    1.61    0.16
  -2   3   3    1.77    0.16
  -2   3   3    1.27    0.13
   2  -2  -3   11.02    0.47
   2  -2  -3   10.81    0.36
  -2   2   3   11.08    0.37
  -2   2   3   10.61    0.35
   2  -1  -3    0.84    0.07
   2  -1  -3    0.80    0.13
  -2   1   3    0.70    0.07
  -2   1   3    0.70    0.07
  -2   1   3    0.69    0.12
   2   0  -3    8.88    0.26
   2   0  -3    8.15    0.42
  -2   0   3    8.74    0.27
  -2   0   3    8.79    0.43
  -2   0   3    8.83    0.27
   2   1  -3    3.18    0.28
   2   1  -3    3.15    0.16
  -2  -1   3    3.11    0.17
  -2  -1   3    3.14    0.17
   2   2  -3    5.23    0.37
   2   2  -3    6.32    0.27
  -2  -2   3    5.66    0.28
   2   3  -3    7.79    0.37
   2   3  -3    7.28    0.45
  -2  -3   3    7.19    0.36
   2   4  -3    1.23    0.21
   2   4  -3    1.71    0.23
  -2  -4   3    1.25    0.19
   2   5  -3    0.12    0.16
   2   5  -3   -0.21    0.15
  -2  -5   3    0.19    0.14
   2   6  -3    0.05    0.19
  -2  -6   3   -0.20    0.14
   2   7  -3    1.12    0.27
  -2  -7   3    0.80    0.23
   2   8  -3   -0.06    0.24
  -2  -8   3    0.03    0.22
   2   9  -3    0.71    0.28
  -2  -9   3   -0.10    0.18
  -1   9   3   -0.01    0.15
  -1   8   3    0.38    0.16
   1  -7  -3    0.84    0.22
  -1   7   3    0.85    0.20
   1  -6  -3    1.76    0.25
  -1   6   3    1.97    0.25
   1  -5  -3    0.58    0.14
  -1   5   3    1.00    0.16
   1  -4  -3    0.16    0.09
  -1   4   3    0.16    0.10
  -1   4   3    0.26    0.11
  -1   4   3    0.09    0.08
   1  -3  -3    0.78    0.11
  -1   3   3    0.77    0.12
  -1   3   3    0.92    0.17
  -1   3   3    0.82    0.11
   1  -2  -3    7.17    0.36
   1  -2  -3    7.78    0.26
  -1   2   3    7.54    0.29
  -1   2   3    7.69    0.27
   1  -1  -3   21.34    0.70
  -1   1   3   21.44    0.57
  -1   1   3   21.90    0.57
   1   1  -3   11.40    0.35
  -1  -1   3   10.95    0.35
  -1  -1   3   10.73    0.35
   1   2  -3    1.26    0.12
  -1  -2   3    1.51    0.15
  -1  -2   3    1.63    0.15
   1   3  -3   -0.12    0.12
   1   3  -3   -0.03    0.06
  -1  -3   3   -0.03    0.09
  -1  -3   3   -0.02    0.06
   1   4  -3    3.14    0.23
   1   4  -3    1.99    0.24
  -1  -4   3    2.28    0.23
   1   5  -3    0.08    0.10
   1   5  -3    0.31    0.16
  -1  -5   3    0.06    0.12
   1   6  -3    0.37    0.16
   1   6  -3    0.29    0.18
  -1  -6   3    0.49    0.19
   1   7  -3   -0.06    0.13
   1   7  -3    0.13    0.19
  -1  -7   3   -0.26    0.13
  -1  -8   3    0.66    0.24
   1   9  -3    0.09    0.26
  -1  -9   3    0.55    0.25
   0   9   3    0.34    0.29
   0   8   3    0.79    0.29
   0  -7  -3    0.07    0.14
   0  -6  -3    0.08    0.13
   0  -5  -3    0.06    0.10
   0   5   3   -0.04    0.09
   0  -4  -3    7.47    0.35
   0   4   3    8.48    0.39
   0  -3  -3    3.97    0.21
   0   3   3    3.98    0.23
   0  -2  -3    0.01    0.05
   0   2   3   -0.02    0.05
   0   2   3    0.14    0.08
   0  -1  -3   14.17    0.40
   0   1   3   14.75    0.41
   0   1   3   13.31    0.41
   0   1   3   14.06    0.48
   0   0  -3    5.23    0.17
   0   0  -3    5.37    0.18
   0   0   3    5.07    0.18
   0   0   3    5.06    0.18
   0   1  -3   12.51    0.38
   0  -1   3   12.23    0.39
   0  -1   3   12.24    0.38
   0   2  -3    0.78    0.09
   0  -2   3    1.03    0.12
   0  -2   3    0.76    0.11
   0   3  -3    4.41    0.25
   0  -3   3    4.52    0.27
   0   4  -3    0.66    0.14
   0  -4   3    0.65    0.15
   0   5  -3    2.24    0.24
   0  -5   3    2.28    0.26
   0   6  -3    1.64    0.25
   0   6  -3    1.78    0.25
   0  -6   3    1.80    0.29
   0   7  -3    0.78    0.20
   0  -7   3    0.44    0.21
   0   8  -3   -0.06    0.17
   0  -8   3    0.25    0.22
   0   9  -3    0.25    0.20
   0  -9   3    0.27    0.22
   1   9   3    0.50    0.30
  -1  -8  -3    0.08    0.17
   1   8   3   -0.01    0.22
  -1  -7  -3    0.35    0.17
   1   7   3    0.78    0.26
  -1  -6  -3    0.76    0.19
   1   6   3    0.57    0.22
  -1  -5  -3    0.15    0.11
   1   5   3    0.03    0.15
  -1  -4  -3    1.16    0.16
   1   4   3    1.10    0.19
  -1  -3  -3    7.28    0.32
   1   3   3    8.13    0.34
   1   3   3    7.11    0.35
  -1  -2  -3    4.19    0.21
   1   2   3    4.10    0.23
   1   2   3    4.35    0.22
  -1  -1  -3    1.92    0.14
   1   1   3    1.84    0.14
   1   1   3    1.76    0.16
  -1   0  -3   52.84    1.41
   1   0   3   52.77    1.43
   1   0   3   53.60    1.42
  -1   1  -3    0.03    0.05
   1  -1   3   -0.07    0.05
   1  -1   3    0.00    0.07
  -1   2  -3    1.03    0.12
   1  -2   3    0.86    0.13
   1  -2   3    1.05    0.12
  -1   3  -3    4.11    0.24
  -1   3  -3    3.86    0.23
   1  -3   3    3.86    0.26
  -1   4  -3    2.91    0.27
  -1   4  -3    2.75    0.23
   1  -4   3    2.79    0.26
  -1   5  -3    5.49    0.35
  -1   5  -3    4.93    0.39
   1  -5   3    5.44    0.39
  -1   6  -3    3.13    0.33
   1  -6   3    3.31    0.36
  -1   7  -3   -0.14    0.12
   1  -7   3   -0.10    0.16
  -1   8  -3    0.99    0.25
   1  -8   3    1.08    0.29
  -1   9  -3    0.75    0.25
   1  -9   3    0.85    0.28
   2   9   3   -0.08    0.27
  -2  -8  -3    0.06    0.18
   2   8   3   -0.44    0.20
  -2  -7  -3   -0.04    0.14
   2   7   3   -0.02    0.20
  -2  -6  -3    0.66    0.19
   2   6   3    0.49    0.22
  -2  -5  -3    0.94    0.18
   2   5   3    0.77    0.22
  -2  -4  -3    1.24    0.18
   2   4   3    0.99    0.21
  -2  -3  -3    0.41    0.10
   2   3   3    0.42    0.13
  -2  -2  -3    2.66    0.20
   2   2   3    2.51    0.22
   2   2   3    3.09    0.21
  -2  -1  -3    7.83    0.32
   2   1   3    7.86    0.34
   2   1   3    8.46    0.34
  -2   0  -3   15.12    0.51
   2   0   3   16.03    0.52
   2   0   3   15.43    0.53
  -2   1  -3    0.77    0.11
   2  -1   3    0.81    0.13
   2  -2   3    3.75    0.26
  -2   3  -3    4.98    0.28
   2  -3   3    4.24    0.30
  -2   4  -3    0.40    0.12
   2  -4   3   -0.01    0.12
  -2   5  -3    9.37    0.47
  -2   5  -3    9.66    0.51
   2  -5   3    9.39    0.53
  -2   6  -3    2.12    0.27
   2  -6   3    2.62    0.34
  -2   7  -3    3.33    0.36
   2  -7   3    3.67    0.42
  -2   8  -3    0.41    0.20
   2  -8   3    0.36    0.24
  -2   9  -3    2.02    0.36
   2  -9   3    2.14    0.40
   3   9   3    0.00    0.32
  -3  -8  -3    0.15    0.20
   3   8   3    0.27    0.28
  -3  -7  -3   -0.03    0.17
   3   7   3    0.17    0.26
  -3  -6  -3    0.00    0.14
   3   6   3    0.36    0.22
  -3  -5  -3    1.70    0.23
   3   5   3    1.58    0.27
  -3  -4  -3    5.40    0.35
   3   4   3    5.01    0.39
  -3  -3  -3    0.43    0.13
   3   3   3    0.26    0.14
  -3  -2  -3    0.52    0.13
   3   2   3    0.48    0.15
  -3  -1  -3    1.01    0.14
   3   1   3    1.29    0.18
  -3   0  -3   13.31    0.51
   3   0   3   14.19    0.54
  -3   1  -3    2.88    0.22
   3  -1   3    2.62    0.24
  -3   2  -3   12.38    0.50
   3  -2   3   12.36    0.52
  -3   3  -3    2.83    0.24
   3  -3   3    2.28    0.25
  -3   4  -3   18.83    0.72
   3  -4   3   19.34    0.77
  -3   5  -3    3.46    0.31
   3  -5   3    2.75    0.32
  -3   6  -3    4.03    0.39
   3  -6   3    3.55    0.40
  -3   7  -3    1.56    0.29
   3  -7   3    1.04    0.29
  -3   8  -3    4.55    0.48
   3  -8   3    4.41    0.52
  -3   9  -3    1.15    0.29
   3  -9   3    0.84    0.32
   4   8   3    0.02    0.30
  -4  -7  -3    1.47    0.30
   4   7   3    1.04    0.33
  -4  -6  -3    0.31    0.18
   4   6   3    0.64    0.26
  -4  -5  -3    1.44    0.24
   4   5   3    1.42    0.28
  -4  -4  -3    1.71    0.24
   4   4   3    1.80    0.27
  -4  -3  -3   16.78    0.67
   4   3   3   16.41    0.69
  -4  -2  -3    3.65    0.30
   4   2   3    3.99    0.34
  -4  -1  -3   14.01    0.57
   4   1   3   14.58    0.60
  -4   0  -3    5.63    0.34
   4   0   3    6.40    0.38
  -4   1  -3   28.79    0.96
   4  -1   3   30.58    1.00
  -4   2  -3    8.96    0.44
   4  -2   3    8.69    0.47
  -4   3  -3   18.60    0.73
   4  -3   3   18.51    0.75
   4  -3   3   19.58    0.71
  -4   4  -3    5.36    0.37
   4  -4   3    5.39    0.43
  -4   5  -3    4.67    0.38
   4  -5   3    5.26    0.44
  -4   6  -3    1.35    0.25
   4  -6   3    1.61    0.30
  -4   7  -3    5.31    0.46
   4  -7   3    4.07    0.48
  -4   8  -3    1.43    0.31
   4  -8   3    1.41    0.37
   5   8   3    0.67    0.35
  -5  -7  -3    1.13    0.29
   5   7   3    1.20    0.35
  -5  -6  -3    1.61    0.30
   5   6   3    1.44    0.34
  -5  -5  -3   -0.13    0.14
   5   5   3    0.32    0.21
  -5  -4  -3    5.40    0.42
   5   4   3    5.22    0.45
  -5  -3  -3    5.90    0.41
   5   3   3    6.18    0.46
  -5  -2  -3   11.96    0.57
   5   2   3   12.84    0.61
  -5  -1  -3    2.18    0.25
   5   1   3    2.76    0.31
  -5   0  -3    9.05    0.47
   5   0   3    8.90    0.50
  -5   1  -3    1.31    0.21
   5  -1   3    1.18    0.21
  -5   2  -3    8.97    0.49
   5  -2   3    9.66    0.52
  -5   3  -3    5.77    0.40
   5  -3   3    6.19    0.40
   5  -3   3    5.43    0.44
  -5   4  -3    8.85    0.50
   5  -4   3    9.40    0.51
   5  -4   3    8.90    0.56
  -5   5  -3    0.40    0.17
   5  -5   3    0.16    0.17
  -5   6  -3    2.26    0.31
   5  -6   3    2.13    0.36
  -5   7  -3    1.14    0.28
   5  -7   3    1.22    0.30
  -6  -7  -3    0.94    0.29
   6   7   3    0.74    0.34
  -6  -6  -3    0.77    0.26
   6   6   3    0.74    0.30
  -6  -5  -3    0.11    0.19
   6   5   3    0.52    0.24
  -6  -4  -3    0.35    0.19
   6   4   3    0.68    0.25
  -6  -3  -3    3.82    0.38
   6   3   3    3.36    0.38
  -6  -2  -3    2.64    0.32
   6   2   3    2.89    0.36
  -6  -1  -3    2.52    0.31
   6   1   3    2.04    0.28
  -6   0  -3    0.04    0.14
   6   0   3    0.23    0.17
  -6   1  -3    4.87    0.40
   6  -1   3    3.76    0.37
  -6   2  -3    1.33    0.24
   6  -2   3    1.52    0.26
  -6   3  -3    4.19    0.38
   6  -3   3    4.69    0.38
   6  -3   3    3.29    0.36
  -6   4  -3   -0.05    0.13
   6  -4   3   -0.14    0.17
   6  -4   3   -0.14    0.17
  -6   5  -3    3.73    0.41
   6  -5   3    3.41    0.43
  -6   6  -3    0.91    0.24
   6  -6   3    0.97    0.30
  -6   7  -3    2.66    0.40
  -7  -6  -3    0.59    0.26
   7   6   3    0.17    0.27
  -7  -5  -3    1.09    0.29
   7   5   3    1.26    0.33
  -7  -4  -3    3.09    0.40
   7   4   3    2.79    0.43
  -7  -3  -3   -0.03    0.17
   7   3   3    0.02    0.21
  -7  -2  -3    0.39    0.20
   7   2   3    0.39    0.23
  -7  -1  -3    0.84    0.24
   7   1   3    0.57    0.22
  -7   0  -3    8.58    0.56
   7   0   3    7.11    0.53
  -7   1  -3    0.74    0.21
   7  -1   3    1.29    0.27
  -7   2  -3    3.21    0.37
   7  -2   3    2.38    0.36
  -7   3  -3    0.03    0.16
   7  -3   3    0.17    0.20
   7  -3   3   -0.01    0.20
  -7   4  -3    3.37    0.38
   7  -4   3    4.53    0.48
  -7   5  -3    0.98    0.27
   7  -5   3    0.82    0.29
   8   5   3    1.24    0.38
  -8  -4  -3    0.55    0.25
   8   4   3    0.92    0.32
  -8  -3  -3    3.58    0.44
   8   3   3    3.25    0.45
  -8  -2  -3    0.32    0.23
   8   2   3    0.49    0.26
  -8  -1  -3    3.54    0.42
   8   1   3    3.13    0.42
  -8   0  -3    1.87    0.33
   8   0   3    1.82    0.36
  -8   1  -3    6.93    0.56
   8  -1   3    6.11    0.56
  -8   2  -3    0.51    0.23
   8  -2   3    1.28    0.30
  -8   3  -3    2.89    0.40
   8  -3   3    2.76    0.40
  -8   4  -3    0.72    0.28
   9   2   3    1.90    0.37
  -9  -1  -3    1.77    0.35
   9   1   3    1.04    0.29
  -9   0  -3    3.75    0.46
   9   0   3    3.21    0.45
  -9   1  -3    0.66    0.27
   9  -1   3    1.01    0.34
 -10   1   4    0.19    0.21
 -10   0   4   13.36    0.77
 -10  -1   4   -0.06    0.18
   9  -4  -4   -0.27    0.27
  -9   4   4    0.50    0.22
  -9   3   4   21.55    0.95
  -9   2   4    0.06    0.18
  -9   1   4   27.08    1.08
  -9   0   4    1.01    0.26
  -9  -1   4   27.58    1.09
  -9  -2   4   -0.02    0.17
  -9  -3   4   30.71    1.22
  -9  -4   4    0.15    0.20
   8  -6  -4   11.72    0.90
  -8   6   4   14.14    0.75
   8  -5  -4    1.41    0.37
  -8   5   4    1.36    0.27
   8  -4  -4   31.23    1.34
  -8   4   4   30.00    1.14
  -8   3   4    0.10    0.15
  -8   2   4   52.12    1.67
  -8   1   4    3.29    0.35
  -8   0   4   48.10    1.56
  -8  -1   4    1.54    0.26
  -8  -2   4   63.31    1.96
  -8  -3   4    0.16    0.17
  -8  -4   4   41.14    1.47
  -8  -5   4    2.14    0.36
  -8  -6   4   21.10    1.04
  -7   7   4   14.88    0.78
   7  -6  -4    0.45    0.32
  -7   6   4    0.32    0.18
   7  -5  -4   29.22    1.30
  -7   5   4   30.27    1.11
   7  -4  -4    1.26    0.32
  -7   4   4    0.68    0.18
  -7   3   4   51.63    1.61
  -7   2   4    1.35    0.21
   7  -1  -4   69.26    2.06
  -7   1   4   68.79    2.03
   7   0  -4    1.01    0.19
  -7   0   4    0.97    0.19
   7   1  -4   63.73    1.87
  -7  -1   4   63.70    1.90
   7   2  -4    1.24    0.22
  -7  -2   4    0.95    0.20
   7   3  -4   58.43    1.79
  -7  -3   4   58.96    1.82
  -7  -4   4    0.31    0.18
  -7  -5   4   38.47    1.40
  -7  -6   4    0.37    0.24
  -7  -7   4   17.87    0.97
  -6   7   4    0.42    0.21
   6  -6  -4   31.54    1.35
  -6   6   4   30.02    1.12
   6  -5  -4   -0.27    0.21
  -6   5   4    0.25    0.14
   6  -4  -4   41.55    1.54
  -6   4   4   39.43    1.56
  -6   4   4   44.44    1.35
   6  -3  -4    2.93    0.26
  -6   3   4    2.65    0.26
   6  -2  -4   52.06    1.54
  -6   2   4   51.77    1.56
  -6   2   4   55.16    1.60
   6  -1  -4    0.40    0.12
  -6   1   4    0.44    0.14
  -6   1   4    0.31    0.13
   6   0  -4  132.45    3.51
  -6   0   4  127.56    3.54
  -6   0   4  135.35    3.57
   6   1  -4    0.49    0.14
  -6  -1   4    0.32    0.13
  -6  -1   4    0.49    0.14
   6   2  -4   53.73    1.59
  -6  -2   4   54.09    1.62
   6   3  -4    2.57    0.27
  -6  -3   4    1.97    0.24
   6   4  -4   57.48    1.77
  -6  -4   4   58.09    1.79
   6   5  -4    0.69    0.22
  -6  -5   4    0.52    0.20
   6   6  -4   48.09    1.65
  -6  -6   4   45.45    1.62
  -6  -7   4    0.29    0.24
  -6  -8   4   14.63    0.89
  -5   8   4    1.42    0.28
  -5   7   4   27.21    1.06
  -5   6   4    0.15    0.14
   5  -5  -4   61.77    2.11
  -5   5   4   63.00    1.85
   5  -4  -4    2.11    0.34
   5  -4  -4    2.64    0.25
  -5   4   4    2.51    0.25
   5  -3  -4   79.28    2.20
  -5   3   4   78.39    2.22
  -5   3   4   81.05    2.67
  -5   3   4   80.67    2.23
   5  -2  -4    6.62    0.32
  -5   2   4    6.89    0.35
  -5   2   4    6.19    0.46
  -5   2   4    7.05    0.34
   5  -1  -4  224.61    5.68
  -5   1   4  216.09    6.87
  -5   1   4  216.28    5.70
  -5   1   4  223.21    5.71
   5   0  -4    0.11    0.09
  -5   0   4   -0.08    0.08
  -5   0   4    0.08    0.09
   5   1  -4  124.50    3.34
  -5  -1   4  124.35    3.37
  -5  -1   4  130.68    3.39
   5   2  -4    8.65    0.39
  -5  -2   4    8.76    0.43
  -5  -2   4    8.02    0.40
   5   3  -4  161.03    4.30
  -5  -3   4  162.54    4.32
   5   4  -4    0.18    0.14
  -5  -4   4    0.04    0.12
   5   5  -4   87.70    2.52
  -5  -5   4   84.66    2.53
   5   6  -4    0.08    0.19
  -5  -6   4    0.10    0.16
   5   7  -4   44.30    1.60
  -5  -7   4   46.30    1.64
  -5  -8   4    0.28    0.23
  -4   9   4    0.28    0.20
  -4   8   4   22.76    0.98
  -4   7   4    0.35    0.17
  -4   6   4   59.43    1.80
   4  -5  -4    0.66    0.16
   4  -5  -4    0.75    0.26
  -4   5   4    0.70    0.16
   4  -4  -4  210.84    5.96
   4  -4  -4  205.24    5.38
  -4   4   4  206.94    5.40
  -4   4   4  201.54    5.37
   4  -3  -4    2.46    0.29
   4  -3  -4    2.45    0.20
  -4   3   4    2.17    0.20
  -4   3   4    2.20    0.20
   4  -2  -4  176.43    4.56
  -4   2   4  182.19    4.59
  -4   2   4  171.37    4.57
  -4   2   4  176.98    5.50
   4  -1  -4    0.68    0.10
  -4   1   4    0.28    0.13
  -4   1   4    0.37    0.09
  -4   1   4    0.25    0.09
   4   0  -4  515.33   13.20
  -4   0   4  511.48   13.23
  -4   0   4  523.05   13.24
  -4   0   4  540.47   15.83
   4   1  -4    1.45    0.15
  -4  -1   4    1.39    0.23
  -4  -1   4    1.50    0.16
  -4  -1   4    1.23    0.15
   4   2  -4  216.80    5.46
  -4  -2   4  210.24    5.47
  -4  -2   4  196.45    6.59
  -4  -2   4  219.91    5.49
   4   3  -4    0.21    0.12
  -4  -3   4    0.21    0.11
   4   4  -4  255.58    6.55
  -4  -4   4  245.05    6.56
   4   5  -4    0.05    0.15
  -4  -5   4    0.08    0.13
   4   6  -4   66.93    2.06
  -4  -6   4   65.48    2.06
   4   7  -4   -0.09    0.21
  -4  -7   4    0.09    0.18
   4   8  -4   39.80    1.53
  -4  -8   4   41.99    1.54
  -4  -9   4    0.03    0.21
  -3   9   4   18.96    0.90
  -3   8   4    0.06    0.15
  -3   7   4   51.72    1.65
   3  -6  -4   -0.23    0.09
  -3   6   4   -0.09    0.10
   3  -5  -4  145.52    3.92
  -3   5   4  149.79    3.97
  -3   5   4  145.79    3.92
   3  -4  -4    6.04    0.44
   3  -4  -4    6.11    0.32
  -3   4   4    6.65    0.34
  -3   4   4    5.71    0.31
   3  -3  -4  206.15    5.30
   3  -3  -4  203.66    5.86
  -3   3   4  211.93    5.32
  -3   3   4  201.65    5.30
   3  -2  -4    5.45    0.22
  -3   2   4    4.83    0.23
  -3   2   4    5.31    0.24
  -3   2   4    5.63    0.34
   3  -1  -4  469.67   13.93
   3  -1  -4  462.56   11.67
  -3   1   4  471.41   11.71
  -3   1   4  444.94   11.66
   3   0  -4   17.77    0.51
   3   0  -4   17.53    0.76
  -3   0   4   17.07    0.53
  -3   0   4   17.95    0.54
  -3   0   4   18.21    0.77
   3   1  -4  508.16   12.76
   3   1  -4  488.15   15.26
  -3  -1   4  489.67   12.83
  -3  -1   4  517.91   12.78
  -3  -1   4  522.16   15.29
   3   2  -4   15.25    0.52
   3   2  -4   13.95    0.71
  -3  -2   4   16.29    0.74
  -3  -2   4   15.16    0.54
  -3  -2   4   15.62    0.54
   3   3  -4  196.88    6.25
   3   3  -4  205.66    5.21
  -3  -3   4  196.56    5.22
   3   4  -4    2.38    0.31
   3   4  -4    3.24    0.30
  -3  -4   4    3.38    0.30
   3   5  -4  130.93    4.14
   3   5  -4  123.76    3.48
  -3  -5   4  124.89    3.50
   3   6  -4    0.08    0.18
  -3  -6   4   -0.11    0.14
   3   7  -4   63.07    2.05
  -3  -7   4   65.65    2.06
   3   8  -4    0.62    0.30
  -3  -8   4    1.29    0.29
   3   9  -4   23.68    1.10
  -3  -9   4   21.67    1.07
  -2   9   4   -0.02    0.14
  -2   8   4   47.68    1.57
  -2   7   4    0.33    0.16
   2  -6  -4   65.10    1.89
  -2   6   4   63.12    1.89
   2  -5  -4    0.42    0.13
  -2   5   4    0.41    0.13
  -2   5   4    0.33    0.15
   2  -4  -4  173.21    4.61
  -2   4   4  177.24    4.62
  -2   4   4  181.68    4.66
   2  -3  -4    6.36    0.27
   2  -3  -4    5.97    0.38
  -2   3   4    6.48    0.29
  -2   3   4    6.35    0.27
   2  -2  -4  484.86   14.40
   2  -2  -4  490.68   12.14
   2  -2  -4  473.19   13.26
  -2   2   4  469.56   12.31
  -2   2   4  483.16   12.18
   2  -1  -4    4.83    0.31
  -2   1   4    4.15    0.15
  -2   1   4    4.09    0.15
   2   0  -4  145.84    4.58
  -2   0   4  151.80    3.74
  -2   0   4  144.50    3.74
   2   1  -4   17.11    0.75
   2   1  -4   18.02    0.51
  -2  -1   4   17.74    0.54
  -2  -1   4   17.91    0.54
   2   2  -4  419.03   12.83
   2   2  -4  436.74   10.74
  -2  -2   4  416.00   10.77
  -2  -2   4  422.81   10.75
   2   3  -4    0.29    0.12
   2   3  -4    0.37    0.17
  -2  -3   4    0.34    0.12
   2   4  -4  154.19    4.92
   2   4  -4  156.79    4.15
  -2  -4   4  155.98    4.16
   2   5  -4    0.05    0.16
   2   5  -4    0.02    0.17
  -2  -5   4    0.38    0.16
   2   6  -4   71.57    2.43
   2   6  -4   68.73    2.10
  -2  -6   4   67.99    2.10
   2   7  -4   -0.24    0.18
   2   7  -4   -0.18    0.20
  -2  -7   4    0.02    0.17
   2   8  -4   44.75    1.61
  -2  -8   4   46.31    1.63
   2   9  -4    0.37    0.28
  -2  -9   4   -0.12    0.24
  -1   8   4    0.49    0.17
   1  -7  -4   65.22    1.97
   1  -6  -4    2.84    0.28
  -1   6   4    2.56    0.27
   1  -5  -4  109.20    3.00
  -1   5   4  107.01    3.01
  -1   5   4  116.29    3.06
   1  -4  -4    7.97    0.35
  -1   4   4    8.04    0.37
  -1   4   4    8.27    0.39
  -1   4   4    7.94    0.45
   1  -3  -4  347.31    8.86
  -1   3   4  352.98    9.73
  -1   3   4  361.66    8.92
  -1   3   4  335.68    9.02
   1  -2  -4    9.37    0.28
   1  -2  -4    8.74    0.41
  -1   2   4    9.30    0.31
  -1   2   4    9.52    0.31
  -1   2   4    7.51    0.38
   1  -1  -4  303.52    8.39
  -1  -1   4  286.34    7.63
  -1  -1   4  305.88    7.51
   1   2  -4    1.71    0.14
  -1  -2   4    1.92    0.17
  -1  -3   4  337.21    8.78
  -1  -3   4  347.55    8.78
   1   4  -4    7.46    0.49
   1   4  -4    7.82    0.37
  -1  -4   4    7.44    0.41
   1   5  -4  109.52    3.53
   1   5  -4  106.76    2.96
  -1  -5   4  109.17    3.04
   1   6  -4    1.02    0.25
   1   6  -4    1.40    0.23
  -1  -6   4    1.20    0.23
   1   7  -4   68.45    2.36
  -1  -7   4   66.26    2.11
   1   8  -4    0.25    0.24
  -1  -8   4   -0.06    0.19
   1   9  -4   24.02    1.13
  -1  -9   4   25.93    1.16
   0   9   4   -0.18    0.26
   0   8   4   46.71    1.64
   0  -7  -4    0.85    0.21
   0   7   4    0.81    0.25
   0  -6  -4   71.20    2.09
   0   6   4   73.13    2.17
   0  -5  -4    1.88    0.21
   0   5   4    1.20    0.23
   0  -4  -4  210.41    5.41
   0   4   4  207.51    5.47
   0   4   4  205.84    5.97
   0   4   4  212.28    5.45
   0  -3  -4    3.16    0.19
   0   3   4    3.05    0.20
   0   3   4    3.33    0.29
   0   3   4    3.24    0.24
   0  -2  -4  263.36    6.71
   0   2   4  260.83    6.74
   0   2   4  269.37    6.73
   0  -1  -4   49.33    1.25
   0   1   4   45.29    1.27
   0   1   4   49.39    1.27
   0   1   4   46.15    1.41
   0   0  -4  521.70   13.24
   0   0   4  509.71   13.13
   0   0   4  526.63   13.21
   0   1  -4    1.30    0.11
   0  -1   4    1.58    0.14
   0  -1   4    1.52    0.12
   0   2  -4  276.29    7.09
   0  -2   4  277.36    7.11
   0  -2   4  280.09    7.10
   0   3  -4    8.15    0.36
   0  -3   4    8.35    0.38
   0   4  -4  184.15    4.80
   0  -4   4  181.18    4.83
   0   5  -4   -0.07    0.09
   0  -5   4    0.13    0.14
   0   6  -4  104.72    2.89
   0   6  -4  102.13    3.35
   0  -6   4   99.04    2.93
   0   7  -4   -0.02    0.21
   0   7  -4   -0.09    0.14
   0  -7   4   -0.28    0.16
   0   8  -4   32.71    1.30
   0   8  -4   30.50    1.16
   0  -8   4   31.35    1.26
   0   9  -4   -0.21    0.15
   0  -9   4   -0.55    0.16
   1   9   4   20.92    1.06
   1   8   4    1.36    0.32
  -1  -7  -4   44.80    1.46
   1   7   4   43.82    1.53
  -1  -6  -4    2.78    0.29
   1   6   4    2.49    0.33
  -1  -5  -4  134.94    3.53
   1   5   4  126.67    3.58
  -1  -4  -4    2.62    0.22
   1   4   4    3.19    0.24
   1   4   4    3.27    0.29
  -1  -3  -4  176.11    4.65
   1   3   4  188.33    4.69
   1   3   4  175.49    4.69
  -1  -2  -4   11.28    0.40
   1   2   4   12.22    0.42
   1   2   4   10.65    0.42
  -1  -1  -4  273.66    7.03
   1   1   4  276.92    7.05
   1   1   4  278.83    7.04
  -1   0  -4   10.20    0.35
   1   0   4    9.98    0.37
   1   0   4   10.15    0.36
  -1   1  -4  368.33    9.40
   1  -1   4  366.46    9.42
   1  -1   4  376.64    9.41
  -1   2  -4   25.23    0.76
   1  -2   4   24.39    0.79
   1  -2   4   24.99    0.77
  -1   3  -4  175.96    4.55
   1  -3   4  172.83    4.59
  -1   4  -4    1.89    0.20
  -1   4  -4    2.02    0.20
   1  -4   4    1.45    0.20
  -1   5  -4  111.78    3.13
  -1   5  -4  113.87    3.32
   1  -5   4  116.33    3.19
  -1   6  -4    6.37    0.43
  -1   6  -4    6.59    0.47
   1  -6   4    6.46    0.48
  -1   7  -4   44.45    1.51
   1  -7   4   47.19    1.61
  -1   8  -4    0.26    0.19
   1  -8   4    0.36    0.25
  -1   9  -4   16.31    0.85
   1  -9   4   17.76    0.96
   2   9   4   -0.69    0.24
   2   8   4   24.50    1.11
  -2  -7  -4    0.06    0.16
   2   7   4   -0.23    0.19
  -2  -6  -4   96.16    2.73
   2   6   4   95.22    2.80
  -2  -5  -4    5.86    0.36
   2   5   4    4.97    0.43
  -2  -4  -4  109.98    2.96
   2   4   4  108.56    3.01
  -2  -3  -4    0.07    0.09
   2   3   4   -0.07    0.11
  -2  -2  -4  243.37    6.37
   2   2   4  254.60    6.40
   2   2   4  245.44    6.40
  -2  -1  -4   11.62    0.43
   2   1   4   12.36    0.45
   2   1   4   11.42    0.46
  -2   0  -4  316.61    8.18
   2   0   4  316.00    8.20
   2   0   4  329.76    8.20
  -2   1  -4    4.87    0.26
   2  -1   4    4.12    0.27
  -2   2  -4  217.94    5.64
   2  -2   4  217.91    5.67
  -2   3  -4   -0.05    0.07
   2  -3   4    0.15    0.12
  -2   4  -4  114.18    3.11
   2  -4   4  114.98    3.17
  -2   5  -4    1.45    0.21
   2  -5   4    1.56    0.26
  -2   6  -4   78.35    2.30
  -2   6  -4   78.09    2.41
   2  -6   4   77.82    2.37
  -2   7  -4    0.09    0.15
   2  -7   4   -0.13    0.19
  -2   8  -4   23.14    1.01
   2  -8   4   23.41    1.10
  -2   9  -4   -0.05    0.17
   2  -9   4   -0.07    0.23
   3   9   4   20.14    1.12
   3   8   4    0.01    0.25
  -3  -7  -4   40.91    1.42
   3   7   4   39.95    1.50
  -3  -6  -4    0.73    0.20
   3   6   4    0.71    0.25
  -3  -5  -4  112.29    3.15
   3   5   4  114.82    3.22
  -3  -4  -4    0.11    0.12
   3   4   4    0.18    0.16
  -3  -3  -4  146.98    3.91
   3   3   4  146.97    3.95
  -3  -2  -4    0.24    0.12
   3   2   4    0.20    0.13
  -3  -1  -4  269.88    7.09
   3   1   4  281.11    7.13
  -3   0  -4    0.29    0.12
   3   0   4    0.14    0.13
  -3   1  -4  219.97    5.72
   3  -1   4  220.10    5.74
  -3   2  -4    1.16    0.16
   3  -2   4    1.17    0.18
  -3   3  -4  151.71    4.03
   3  -3   4  150.40    4.07
  -3   4  -4    0.31    0.13
   3  -4   4    0.17    0.15
  -3   5  -4   76.26    2.24
   3  -5   4   77.04    2.30
  -3   6  -4   -0.08    0.12
   3  -6   4    0.07    0.19
  -3   7  -4   34.79    1.28
   3  -7   4   35.16    1.36
  -3   8  -4   -0.05    0.16
   3  -8   4   -0.33    0.20
   4   8   4   23.87    1.18
  -4  -7  -4   -0.10    0.17
   4   7   4   -0.03    0.21
  -4  -6  -4   45.50    1.50
   4   6   4   42.70    1.55
  -4  -5  -4   -0.03    0.15
   4   5   4   -0.06    0.18
  -4  -4  -4  106.68    2.98
   4   4   4  107.15    3.04
  -4  -3  -4    1.48    0.22
   4   3   4    1.35    0.23
  -4  -2  -4  114.09    3.14
   4   2   4  116.34    3.18
  -4  -1  -4   -0.10    0.12
   4   1   4   -0.17    0.14
  -4   0  -4  160.49    4.26
   4   0   4  159.53    4.29
  -4   1  -4    0.26    0.13
   4  -1   4    0.42    0.15
  -4   2  -4   95.83    2.66
   4  -2   4   94.86    2.69
  -4   3  -4    1.11    0.19
   4  -3   4    1.05    0.21
  -4   4  -4   80.51    2.37
   4  -4   4   83.43    2.43
  -4   5  -4    0.37    0.16
   4  -5   4    0.58    0.21
  -4   6  -4   23.37    0.94
   4  -6   4   21.35    0.99
  -4   7  -4   -0.07    0.17
   4  -7   4   -0.22    0.21
  -4   8  -4   15.15    0.84
   4  -8   4   16.40    0.94
   5   8   4   -0.18    0.28
   5   7   4   30.19    1.33
  -5  -6  -4    0.28    0.20
   5   6   4   -0.31    0.19
  -5  -5  -4   24.79    0.99
   5   5   4   25.73    1.06
  -5  -4  -4    0.10    0.15
   5   4   4    0.16    0.19
  -5  -3  -4   79.31    2.29
   5   3   4   77.70    2.33
  -5  -2  -4    2.54    0.28
   5   2   4    2.19    0.29
  -5  -1  -4   58.34    1.74
   5   1   4   56.68    1.77
  -5   0  -4    0.78    0.19
   5   0   4    0.45    0.19
  -5   1  -4   47.59    1.50
   5  -1   4   48.94    1.54
  -5   2  -4    0.25    0.16
   5  -2   4    0.90    0.23
  -5   3  -4   50.74    1.59
   5  -3   4   49.44    1.62
  -5   4  -4   -0.12    0.11
   5  -4   4    0.11    0.18
  -5   5  -4   18.89    0.83
   5  -5   4   19.75    0.91
  -5   6  -4    0.13    0.18
   5  -6   4   -0.02    0.20
  -5   7  -4   12.27    0.73
   5  -7   4   12.03    0.80
   6   7   4    0.34    0.30
  -6  -6  -4   18.18    0.91
   6   6   4   20.20    1.02
  -6  -5  -4    0.00    0.17
   6   5   4    0.28    0.24
  -6  -4  -4   30.98    1.16
   6   4   4   29.70    1.19
  -6  -3  -4    0.15    0.17
   6   3   4    0.31    0.21
  -6  -2  -4   36.08    1.25
   6   2   4   36.56    1.31
  -6  -1  -4    0.12    0.16
   6   1   4   -0.03    0.18
  -6   0  -4   43.14    1.42
   6   0   4   42.63    1.45
  -6   1  -4    0.74    0.20
   6  -1   4    0.68    0.23
  -6   2  -4   31.78    1.14
   6  -2   4   30.07    1.16
  -6   3  -4    0.16    0.17
   6  -3   4    0.70    0.24
  -6   4  -4   25.62    1.03
   6  -4   4   27.03    1.10
  -6   5  -4    0.37    0.20
   6  -5   4    0.09    0.22
  -6   6  -4   10.28    0.66
   6  -6   4   10.87    0.75
   7   6   4   -0.13    0.28
  -7  -5  -4   18.39    0.93
   7   5   4   19.63    1.01
  -7  -4  -4    0.21    0.21
   7   4   4    0.05    0.24
  -7  -3  -4   27.33    1.10
   7   3   4   27.39    1.15
  -7  -2  -4    0.88    0.27
   7   2   4    0.39    0.25
  -7  -1  -4   32.00    1.19
   7   1   4   29.77    1.20
  -7   0  -4    0.02    0.19
   7   0   4   -0.02    0.21
  -7   1  -4   33.00    1.22
   7  -1   4   31.90    1.25
  -7   2  -4    0.30    0.20
   7  -2   4    0.18    0.23
  -7   3  -4   20.29    0.91
   7  -3   4   19.07    0.94
  -7   4  -4    0.17    0.19
   7  -4   4    0.42    0.25
  -7   5  -4   14.34    0.78
   7  -5   4   12.02    0.82
  -8  -4  -4   15.92    0.88
   8   4   4   16.56    0.95
  -8  -3  -4    0.01    0.23
   8   3   4    0.03    0.27
  -8  -2  -4   15.28    0.83
   8   2   4   15.34    0.86
  -8  -1  -4   -0.02    0.22
   8   1   4   -0.13    0.22
  -8   0  -4   20.26    0.94
   8   0   4   19.48    0.97
  -8   1  -4   -0.22    0.17
   8  -1   4    0.16    0.24
  -8   2  -4   13.74    0.78
   8  -2   4   12.74    0.80
  -8   3  -4    0.12    0.20
   8  -3   4    0.11    0.23
 -10   1   5    1.67    0.32
 -10   0   5    1.81    0.32
 -10  -1   5    1.48    0.31
   9  -4  -5    1.23    0.38
  -9   4   5    1.31    0.28
  -9   3   5    2.89    0.36
  -9   2   5    1.98    0.31
  -9   1   5    1.75    0.29
  -9   0   5    0.54    0.21
  -9  -1   5    4.12    0.43
  -9  -2   5    1.50    0.29
  -9  -3   5    1.59    0.31
  -9  -4   5    0.27    0.23
   8  -6  -5    0.09    0.31
   8  -5  -5    1.10    0.36
  -8   5   5    0.95    0.23
   8  -4  -5    2.63    0.43
  -8   4   5    2.62    0.33
  -8   3   5    3.23    0.35
  -8   2   5    2.73    0.32
  -8   1   5    1.15    0.23
  -8   0   5    1.17    0.22
  -8  -1   5    0.63    0.20
  -8  -2   5    4.14    0.40
  -8  -3   5    1.44    0.27
  -8  -4   5    2.58    0.37
  -8  -5   5    0.21    0.21
  -8  -6   5    0.93    0.30
  -7   7   5    0.14    0.17
   7  -6  -5    0.22    0.31
  -7   6   5    0.60    0.20
   7  -5  -5    1.11    0.34
  -7   5   5    0.82    0.21
   7  -4  -5    4.66    0.52
  -7   4   5    4.91    0.39
  -7   3   5    3.69    0.33
  -7   2   5    2.39    0.27
  -7   1   5    1.08    0.19
  -7   0   5    2.54    0.27
  -7  -1   5    4.58    0.35
  -7  -2   5    0.59    0.16
  -7  -3   5    2.53    0.30
  -7  -4   5    0.69    0.20
  -7  -5   5    2.98    0.38
  -7  -6   5    0.09    0.20
  -7  -7   5    0.82    0.29
  -6   7   5    1.00    0.24
   6  -6  -5    2.20    0.44
  -6   6   5    3.05    0.34
   6  -5  -5    3.08    0.44
  -6   5   5    2.90    0.30
   6  -4  -5    2.66    0.39
  -6   4   5    1.81    0.27
  -6   4   5    2.02    0.24
  -6   3   5    2.00    0.23
   6  -2  -5    3.67    0.25
  -6   2   5    3.36    0.28
  -6   2   5    3.43    0.28
   6  -1  -5    2.81    0.23
  -6   1   5    3.26    0.26
  -6   1   5    2.95    0.26
   6   0  -5   10.28    0.43
  -6   0   5   10.08    0.46
  -6   0   5   10.69    0.47
   6   1  -5    2.35    0.22
  -6  -1   5    2.49    0.26
  -6  -1   5    2.54    0.24
   6   2  -5    3.98    0.29
  -6  -2   5    4.06    0.31
   6   3  -5    0.91    0.18
  -6  -3   5    0.70    0.17
   6   4  -5    1.68    0.25
  -6  -4   5    1.27    0.24
  -6  -5   5    0.33    0.19
  -6  -6   5    2.11    0.36
  -6  -7   5    0.25    0.22
  -6  -8   5    0.03    0.23
  -5   8   5    1.07    0.26
  -5   7   5    2.65    0.32
  -5   6   5    1.83    0.26
   5  -5  -5    2.57    0.37
  -5   5   5    2.20    0.25
   5  -4  -5    2.37    0.35
  -5   4   5    2.48    0.24
   5  -3  -5    6.17    0.49
   5  -3  -5    6.94    0.33
  -5   3   5    6.80    0.47
  -5   3   5    6.86    0.35
  -5   3   5    6.94    0.36
   5  -2  -5    0.03    0.08
  -5   2   5    0.13    0.09
  -5   2   5    0.07    0.09
  -5   2   5   -0.06    0.13
   5  -1  -5    7.51    0.31
  -5   1   5    7.40    0.34
  -5   1   5    7.18    0.52
  -5   1   5    7.34    0.34
   5   0  -5    7.11    0.31
  -5   0   5    6.60    0.33
  -5   0   5    6.96    0.34
   5   1  -5    6.38    0.30
  -5  -1   5    5.95    0.33
  -5  -1   5    6.05    0.32
   5   2  -5    0.03    0.09
  -5  -2   5   -0.07    0.08
  -5  -2   5    0.07    0.11
   5   3  -5    2.95    0.27
  -5  -3   5    3.38    0.30
   5   4  -5   -0.02    0.13
  -5  -4   5    0.04    0.12
   5   5  -5    1.52    0.25
  -5  -5   5    1.59    0.26
   5   6  -5    0.34    0.20
  -5  -6   5   -0.05    0.15
  -5  -7   5    0.20    0.22
  -5  -8   5    0.00    0.21
  -4   9   5    0.89    0.27
  -4   8   5    0.54    0.20
  -4   7   5    1.64    0.26
  -4   6   5    1.90    0.25
   4  -5  -5    3.53    0.42
  -4   5   5    3.57    0.29
   4  -4  -5    2.80    0.35
   4  -4  -5    3.05    0.25
  -4   4   5    3.13    0.25
  -4   4   5    3.20    0.25
   4  -3  -5    1.82    0.27
   4  -3  -5    2.16    0.18
  -4   3   5    2.02    0.19
  -4   3   5    1.86    0.19
   4  -2  -5    2.11    0.15
  -4   2   5    2.05    0.17
  -4   2   5    2.10    0.17
  -4   2   5    1.78    0.24
   4  -1  -5    8.06    0.28
  -4   1   5    8.25    0.32
  -4   1   5    7.94    0.51
  -4   1   5    8.44    0.32
   4   0  -5    8.91    0.31
  -4   0   5    8.81    0.55
  -4   0   5    9.54    0.35
  -4   0   5    8.74    0.34
   4   1  -5    0.66    0.19
   4   1  -5    0.83    0.11
  -4  -1   5    0.91    0.21
  -4  -1   5    0.93    0.13
  -4  -1   5    0.68    0.11
   4   2  -5    1.75    0.29
   4   2  -5    2.42    0.20
  -4  -2   5    2.13    0.21
  -4  -2   5    2.74    0.22
   4   3  -5    0.57    0.14
   4   3  -5    0.70    0.23
  -4  -3   5    0.54    0.14
   4   4  -5    1.15    0.26
   4   4  -5    1.38    0.22
  -4  -4   5    1.27    0.22
   4   5  -5    0.11    0.16
  -4  -5   5    0.09    0.15
   4   6  -5    1.07    0.27
  -4  -6   5    0.98    0.24
   4   7  -5   -0.11    0.20
  -4  -7   5    0.08    0.20
  -4  -8   5    0.12    0.21
  -4  -9   5    0.08    0.23
  -3   9   5    0.18    0.19
  -3   8   5    1.95    0.29
  -3   7   5    0.71    0.19
  -3   6   5    1.82    0.24
   3  -5  -5    1.06    0.17
  -3   5   5    1.14    0.18
  -3   5   5    1.23    0.18
   3  -4  -5    7.58    0.51
   3  -4  -5    7.10    0.32
  -3   4   5    7.34    0.35
  -3   4   5    7.17    0.36
   3  -3  -5    3.31    0.18
   3  -3  -5    3.53    0.33
  -3   3   5    3.19    0.20
  -3   3   5    3.15    0.20
   3  -2  -5    2.58    0.27
   3  -2  -5    2.16    0.25
  -3   2   5    2.44    0.15
  -3   2   5    2.38    0.15
   3  -1  -5    3.34    0.31
  -3   1   5    3.70    0.16
  -3   1   5    3.82    0.16
   3   0  -5    0.97    0.19
  -3   0   5    1.14    0.10
  -3   0   5    0.91    0.09
   3   1  -5    3.06    0.16
   3   1  -5    2.50    0.29
  -3  -1   5    3.14    0.18
  -3  -1   5    2.77    0.17
   3   2  -5    0.68    0.11
   3   2  -5    0.38    0.17
  -3  -2   5    0.31    0.10
   3   3  -5    1.65    0.27
   3   3  -5    2.49    0.23
  -3  -3   5    2.04    0.19
  -3  -3   5    1.82    0.21
   3   4  -5    0.34    0.19
   3   4  -5    0.55    0.16
  -3  -4   5    0.18    0.13
   3   5  -5    0.78    0.20
   3   5  -5    0.45    0.23
  -3  -5   5    0.87    0.20
   3   6  -5    0.53    0.25
   3   6  -5    0.09    0.20
  -3  -6   5    0.78    0.22
   3   7  -5    0.05    0.22
  -3  -7   5    0.14    0.18
   3   8  -5    0.43    0.28
  -3  -8   5    0.17    0.23
  -3  -9   5    0.03    0.22
  -2   9   5    0.01    0.15
  -2   8   5    0.36    0.17
  -2   7   5    0.21    0.15
   2  -6  -5    2.08    0.24
  -2   6   5    2.01    0.25
   2  -5  -5    0.80    0.15
  -2   5   5    0.89    0.17
  -2   5   5    0.66    0.14
   2  -4  -5    1.46    0.15
  -2   4   5    1.26    0.15
  -2   4   5    1.34    0.18
   2  -3  -5    0.53    0.18
   2  -3  -5    0.50    0.08
  -2   3   5    0.48    0.10
  -2   3   5    0.39    0.08
   2  -2  -5   13.54    0.58
   2  -2  -5   13.45    0.57
  -2   2   5   13.46    0.40
  -2   2   5   13.34    0.42
   2  -1  -5    0.20    0.13
   2   0  -5    0.93    0.17
   2   1  -5    1.81    0.11
  -2  -1   5    1.48    0.13
  -2  -1   5    1.82    0.11
   2   2  -5    8.43    0.53
   2   2  -5    9.63    0.36
  -2  -2   5    9.90    0.37
  -2  -2   5    8.84    0.37
   2   3  -5   -0.11    0.12
   2   3  -5    0.23    0.11
  -2  -3   5   -0.01    0.06
  -2  -3   5    0.06    0.10
   2   4  -5   -0.01    0.16
   2   4  -5    0.21    0.14
  -2  -4   5    0.07    0.12
   2   5  -5   -0.10    0.17
   2   5  -5   -0.08    0.17
  -2  -5   5    0.21    0.15
   2   6  -5   -0.09    0.20
   2   6  -5   -0.06    0.17
  -2  -6   5    0.25    0.16
   2   7  -5    0.28    0.24
   2   7  -5    0.19    0.22
  -2  -7   5    0.54    0.22
   2   8  -5    0.01    0.23
   2   8  -5   -0.10    0.25
  -2  -8   5   -0.03    0.19
  -2  -9   5    0.00    0.24
  -1   9   5    0.63    0.33
  -1   8   5    0.41    0.26
  -1   7   5    0.04    0.12
   1  -6  -5    0.11    0.11
  -1   6   5   -0.01    0.10
   1  -5  -5    1.66    0.19
  -1   5   5    1.64    0.22
   1  -4  -5   -0.02    0.07
  -1   4   5   -0.01    0.08
  -1   4   5    0.20    0.10
   1  -3  -5    0.55    0.08
  -1   3   5    0.35    0.13
  -1   3   5    0.41    0.09
  -1   3   5    0.49    0.09
   1  -2  -5    3.18    0.26
  -1   2   5    3.70    0.26
  -1   2   5    3.14    0.16
   1  -1  -5    4.10    0.26
  -1   1   5    4.04    0.14
  -1   0   5    1.17    0.07
  -1   0   5    1.09    0.08
   1   1  -5    3.09    0.14
  -1  -1   5    3.24    0.16
  -1  -1   5    3.18    0.17
   1   2  -5    4.33    0.21
  -1  -2   5    4.01    0.24
  -1  -2   5    4.34    0.23
  -1  -3   5    5.14    0.30
   1   4  -5    0.80    0.14
  -1  -4   5    0.67    0.16
   1   5  -5    0.69    0.22
   1   5  -5    0.50    0.14
  -1  -5   5    0.61    0.18
   1   6  -5    0.38    0.22
   1   6  -5    1.22    0.21
  -1  -6   5    0.69    0.22
   1   7  -5    0.48    0.24
   1   7  -5    0.65    0.20
  -1  -7   5    0.54    0.23
   1   8  -5    0.47    0.25
  -1  -8   5    0.38    0.25
   1   9  -5    0.20    0.29
  -1  -9   5    0.18    0.24
   0   9   5    0.30    0.27
   0   8   5   -0.09    0.23
   0   7   5    0.18    0.20
   0  -6  -5    0.14    0.12
   0   6   5    0.39    0.20
   0  -5  -5    1.05    0.17
   0   5   5    1.02    0.18
   0   5   5    0.98    0.21
   0  -4  -5    2.15    0.19
   0   4   5    2.44    0.24
   0   4   5    2.68    0.22
   0  -3  -5    2.87    0.17
   0   3   5    2.66    0.27
   0   3   5    2.51    0.23
   0   3   5    2.97    0.20
   0  -2  -5    4.21    0.18
   0   2   5    4.58    0.28
   0   2   5    3.82    0.22
   0   2   5    4.54    0.21
   0  -1  -5    7.94    0.26
   0   1   5    7.87    0.34
   0   1   5    7.69    0.29
   0   1   5    8.21    0.28
   0   0  -5    3.68    0.15
   0   0   5    3.78    0.17
   0   0   5    3.48    0.18
   0   1  -5    2.41    0.14
   0  -1   5    2.47    0.15
   0  -1   5    2.53    0.17
   0   2  -5    2.84    0.18
   0  -2   5    2.36    0.20
   0  -2   5    2.48    0.17
   0   3  -5    1.22    0.16
   0  -3   5    1.37    0.19
   0  -3   5    1.52    0.17
   0   4  -5    1.71    0.20
   0  -4   5    1.57    0.22
   0   5  -5    1.73    0.22
   0  -5   5    1.38    0.23
   0   6  -5    0.45    0.16
   0  -6   5    0.34    0.18
   0   7  -5    0.86    0.23
   0   7  -5    0.87    0.27
   0  -7   5    0.61    0.24
   0   8  -5    0.89    0.27
   0   8  -5    1.08    0.26
   0  -8   5    0.77    0.29
   0   9  -5    0.90    0.25
   0  -9   5    0.87    0.32
   1   9   5   -0.08    0.26
   1   8   5    0.17    0.24
   1   7   5   -0.20    0.18
  -1  -6  -5    0.10    0.14
   1   6   5    0.00    0.19
  -1  -5  -5    0.40    0.13
   1   5   5    0.21    0.17
  -1  -4  -5    1.01    0.15
   1   4   5    0.83    0.18
   1   4   5    1.08    0.17
  -1  -3  -5    0.10    0.08
   1   3   5    0.10    0.08
   1   3   5   -0.14    0.10
  -1  -2  -5    0.15    0.07
   1   2   5    0.14    0.09
   1   2   5    0.18    0.07
  -1  -1  -5    0.37    0.08
   1   1   5    0.45    0.09
   1   1   5    0.47    0.10
  -1   0  -5    2.05    0.15
   1   0   5    1.89    0.16
   1   0   5    1.71    0.16
  -1   1  -5    1.12    0.11
   1  -1   5    1.59    0.15
   1  -1   5    1.17    0.14
  -1   2  -5    3.51    0.21
   1  -2   5    3.49    0.23
   1  -2   5    3.34    0.25
  -1   3  -5    0.76    0.12
   1  -3   5    0.75    0.16
  -1   4  -5    0.59    0.13
   1  -4   5    0.41    0.15
  -1   5  -5    4.54    0.35
  -1   5  -5    4.41    0.34
   1  -5   5    5.49    0.41
  -1   6  -5    5.06    0.44
  -1   6  -5    5.87    0.42
   1  -6   5    5.94    0.47
  -1   7  -5    1.82    0.29
   1  -7   5    1.11    0.29
  -1   8  -5    0.45    0.20
  -1   8  -5    0.29    0.26
   1  -8   5    0.38    0.26
  -1   9  -5    0.88    0.28
   1  -9   5    0.63    0.30
   2   9   5    0.25    0.32
   2   8   5   -0.20    0.24
   2   7   5    0.01    0.24
  -2  -6  -5    0.05    0.13
   2   6   5    0.21    0.23
  -2  -5  -5    2.56    0.26
   2   5   5    1.94    0.30
  -2  -4  -5    0.70    0.14
   2   4   5    0.35    0.16
  -2  -3  -5    0.65    0.13
   2   3   5    0.63    0.15
  -2  -2  -5    3.04    0.23
   2   2   5    3.39    0.24
   2   2   5    3.30    0.27
  -2  -1  -5   21.59    0.70
   2   1   5   22.45    0.71
   2   1   5   20.95    0.72
  -2   0  -5   10.17    0.40
   2   0   5   10.27    0.43
   2   0   5   10.50    0.42
  -2   1  -5   11.53    0.44
   2  -1   5   10.59    0.46
  -2   2  -5   12.64    0.48
   2  -2   5   11.99    0.52
  -2   3  -5    4.85    0.29
   2  -3   5    5.00    0.35
  -2   4  -5    6.63    0.38
   2  -4   5    7.46    0.45
  -2   5  -5    7.40    0.44
   2  -5   5    7.94    0.51
  -2   6  -5    4.98    0.39
   2  -6   5    5.71    0.50
  -2   7  -5    0.98    0.24
   2  -7   5    1.03    0.28
  -2   8  -5    2.34    0.36
   2  -8   5    2.34    0.41
  -2   9  -5    0.21    0.21
   3   8   5   -0.11    0.28
   3   7   5    0.44    0.25
  -3  -6  -5    1.79    0.27
   3   6   5    1.55    0.31
  -3  -5  -5    2.29    0.28
   3   5   5    2.14    0.32
  -3  -4  -5    1.86    0.23
   3   4   5    2.47    0.32
  -3  -3  -5    2.40    0.24
   3   3   5    2.15    0.27
  -3  -2  -5   12.84    0.51
   3   2   5   11.68    0.54
  -3  -1  -5   19.42    0.67
   3   1   5   17.93    0.70
  -3   0  -5    7.19    0.36
   3   0   5    7.23    0.40
  -3   1  -5   12.13    0.50
   3  -1   5   12.02    0.53
  -3   2  -5   12.15    0.51
   3  -2   5   11.68    0.55
  -3   3  -5    7.27    0.39
   3  -3   5    6.63    0.44
  -3   4  -5    2.65    0.28
   3  -4   5    2.75    0.32
  -3   5  -5    6.43    0.43
   3  -5   5    6.64    0.50
  -3   6  -5    1.87    0.27
   3  -6   5    2.06    0.33
  -3   7  -5    2.10    0.32
   3  -7   5    2.44    0.42
  -3   8  -5    0.26    0.22
   3  -8   5    1.01    0.33
   4   8   5    0.23    0.31
   4   7   5   -0.08    0.23
  -4  -6  -5    0.87    0.24
   4   6   5    0.96    0.29
  -4  -5  -5    0.67    0.19
   4   5   5    0.48    0.22
  -4  -4  -5    4.57    0.37
   4   4   5    3.58    0.37
  -4  -3  -5    0.52    0.16
   4   3   5    0.48    0.18
  -4  -2  -5    2.48    0.26
   4   2   5    2.41    0.28
  -4  -1  -5    0.97    0.19
   4   1   5    1.30    0.23
  -4   0  -5    5.80    0.37
   4   0   5    6.45    0.42
  -4   1  -5    0.85    0.17
   4  -1   5    0.56    0.18
  -4   2  -5    2.30    0.25
   4  -2   5    1.92    0.27
  -4   3  -5    1.55    0.22
   4  -3   5    1.43    0.26
  -4   4  -5    4.99    0.39
   4  -4   5    5.59    0.46
  -4   5  -5    0.55    0.18
   4  -5   5    0.53    0.21
  -4   6  -5    0.97    0.23
   4  -6   5    1.08    0.30
  -4   7  -5    0.56    0.21
   4  -7   5    0.88    0.29
  -4   8  -5    1.74    0.33
   4  -8   5    1.56    0.39
   5   7   5    0.61    0.32
   5   6   5    0.72    0.29
  -5  -5  -5    0.51    0.21
   5   5   5    0.00    0.21
  -5  -4  -5   -0.18    0.13
   5   4   5   -0.13    0.17
  -5  -3  -5    2.80    0.31
   5   3   5    2.38    0.32
  -5  -2  -5    3.33    0.34
   5   2   5    2.60    0.33
  -5  -1  -5    1.58    0.24
   5   1   5    1.04    0.24
  -5   0  -5    0.69    0.18
   5   0   5    0.33    0.18
  -5   1  -5    0.95    0.20
   5  -1   5    0.85    0.22
  -5   2  -5    2.42    0.29
   5  -2   5    2.57    0.31
  -5   3  -5    6.23    0.45
   5  -3   5    6.85    0.51
  -5   4  -5    0.34    0.15
   5  -4   5    0.29    0.21
  -5   5  -5    1.42    0.27
   5  -5   5    1.58    0.33
  -5   6  -5    0.55    0.21
   5  -6   5    0.82    0.31
  -5   7  -5    2.06    0.34
   5  -7   5    2.74    0.47
   6   6   5   -0.07    0.27
  -6  -5  -5    0.62    0.24
   6   5   5    0.51    0.29
  -6  -4  -5    1.16    0.26
   6   4   5    0.42    0.27
  -6  -3  -5    1.79    0.29
   6   3   5    1.30    0.30
  -6  -2  -5    3.74    0.38
   6   2   5    3.89    0.44
  -6  -1  -5    2.10    0.30
   6   1   5    2.17    0.34
  -6   0  -5    2.82    0.32
   6   0   5    2.67    0.35
  -6   1  -5    1.38    0.25
   6  -1   5    1.45    0.29
  -6   2  -5    5.39    0.45
   6  -2   5    4.13    0.42
  -6   3  -5    2.14    0.31
   6  -3   5    2.16    0.35
  -6   4  -5    5.04    0.45
   6  -4   5    4.75    0.48
  -6   5  -5    0.30    0.19
   6  -5   5    0.79    0.29
  -6   6  -5    2.18    0.36
   6  -6   5    2.16    0.41
   7   5   5    1.40    0.39
  -7  -4  -5    1.58    0.31
   7   4   5    0.92    0.35
  -7  -3  -5    3.39    0.42
   7   3   5    3.52    0.45
  -7  -2  -5    1.39    0.30
   7   2   5    1.73    0.35
  -7  -1  -5    4.75    0.47
   7   1   5    4.75    0.50
  -7   0  -5    2.69    0.36
   7   0   5    2.25    0.36
  -7   1  -5    7.03    0.55
   7  -1   5    7.23    0.60
  -7   2  -5    1.54    0.30
   7  -2   5    1.70    0.35
  -7   3  -5    3.28    0.39
   7  -3   5    4.45    0.49
  -7   4  -5    0.76    0.23
   7  -4   5    1.27    0.35
  -8  -3  -5    0.90    0.29
   8   3   5    0.84    0.35
  -8  -2  -5    2.05    0.36
   8   2   5    3.05    0.48
  -8  -1  -5    1.16    0.29
   8   1   5    0.96    0.33
  -8   0  -5    6.22    0.56
   8   0   5    5.52    0.57
  -8   1  -5    1.56    0.32
   8  -1   5    1.04    0.34
  -8   2  -5    3.03    0.43
   8  -2   5    2.92    0.47
 -10   0   6    0.28    0.21
 -10  -1   6   18.66    0.89
   9  -4  -6   15.82    1.00
  -9   4   6   16.71    0.81
  -9   3   6    0.65    0.23
  -9   2   6   28.56    1.10
  -9   1   6    1.46    0.28
  -9   0   6   29.45    1.12
  -9  -1   6    0.46    0.21
  -9  -2   6   34.42    1.26
  -9  -3   6    1.30    0.28
  -9  -4   6   21.32    0.98
   8  -5  -6   17.93    1.03
  -8   5   6   17.95    0.81
   8  -4  -6    3.00    0.47
  -8   4   6    2.47    0.31
  -8   3   6   44.50    1.46
  -8   2   6    1.29    0.24
  -8   1   6   44.63    1.44
  -8   0   6    8.66    0.50
  -8  -1   6   50.79    1.60
  -8  -2   6    0.76    0.21
  -8  -3   6   52.19    1.69
  -8  -4   6    1.90    0.33
  -8  -5   6   23.76    1.06
  -8  -6   6    1.33    0.32
   7  -6  -6   17.97    1.02
  -7   6   6   16.54    0.77
   7  -5  -6    2.46    0.45
  -7   5   6    1.93    0.27
   7  -4  -6   40.87    1.60
  -7   4   6   41.26    1.35
  -7   3   6    0.11    0.12
  -7   2   6   61.73    1.82
  -7   1   6    7.02    0.41
  -7   0   6   52.79    1.59
  -7  -1   6    0.73    0.18
  -7  -2   6   73.13    2.13
  -7  -3   6    0.52    0.18
  -7  -4   6   45.33    1.52
  -7  -5   6   -0.12    0.16
  -7  -6   6   27.81    1.19
  -7  -7   6   -0.38    0.19
  -6   7   6   16.95    0.79
   6  -6  -6   -0.05    0.26
  -6   6   6    0.02    0.13
   6  -5  -6   48.12    1.77
  -6   5   6   44.72    1.45
   6  -4  -6    1.61    0.32
  -6   4   6    1.52    0.21
  -6   3   6   64.32    1.85
  -6   2   6    0.81    0.15
  -6   2   6    0.55    0.14
   6  -1  -6  111.13    2.94
  -6   1   6  111.40    3.01
  -6   1   6  111.36    3.00
   6   0  -6   -0.12    0.07
  -6   0   6    0.01    0.10
  -6   0   6   -0.16    0.09
   6   1  -6  118.91    3.15
  -6  -1   6  121.71    3.23
  -6  -1   6  115.75    3.20
   6   2  -6   -0.06    0.09
  -6  -2   6    0.14    0.11
  -6  -3   6   76.94    2.22
  -6  -4   6    1.29    0.22
  -6  -5   6   63.41    2.00
  -6  -6   6    0.59    0.23
  -6  -7   6   27.23    1.18
  -5   8   6   15.61    0.78
  -5   7   6    0.17    0.17
  -5   6   6   61.54    1.86
   5  -5  -6    0.75    0.27
  -5   5   6    0.81    0.17
   5  -4  -6   93.56    2.94
  -5   4   6   91.52    2.54
   5  -3  -6    2.09    0.32
  -5   3   6    2.13    0.20
  -5   3   6    2.26    0.21
  -5   2   6  172.96    5.42
  -5   2   6  165.77    4.43
  -5   2   6  172.12    4.44
  -5   1   6   -0.02    0.08
  -5   1   6   -0.01    0.07
   5   0  -6  336.88    8.07
  -5   0   6  302.55    8.10
  -5   0   6  311.46    8.11
   5   1  -6    1.46    0.15
  -5  -1   6    1.36    0.17
  -5  -1   6    1.30    0.17
   5   2  -6  180.63    4.73
  -5  -2   6  177.78    4.78
  -5  -2   6  188.24    4.81
   5   3  -6    1.88    0.21
  -5  -3   6    1.66    0.22
  -5  -3   6    1.52    0.21
   5   4  -6  114.91    3.15
  -5  -4   6  114.47    3.20
   5   5  -6    0.07    0.14
  -5  -5   6    0.00    0.13
  -5  -6   6   75.02    2.33
  -5  -7   6    0.28    0.21
  -5  -8   6   20.91    1.03
  -4   8   6    1.17    0.26
  -4   7   6   42.69    1.43
  -4   6   6   -0.09    0.11
   4  -5  -6   99.22    3.11
  -4   5   6   97.75    2.71
   4  -4  -6    0.36    0.22
  -4   4   6    0.30    0.11
  -4   4   6    0.30    0.11
   4  -3  -6  190.67    5.55
  -4   3   6  193.93    4.96
  -4   3   6  190.19    4.95
  -4   2   6    5.07    0.24
  -4   2   6    4.97    0.24
   4  -1  -6  361.95   10.86
  -4   1   6  349.34    9.01
  -4   1   6  354.92    9.01
   4   0  -6    0.08    0.14
  -4   0   6    0.00    0.07
  -4   0   6   -0.11    0.06
   4   1  -6  238.31    7.38
   4   1  -6  235.43    6.00
  -4  -1   6  225.80    6.04
  -4  -1   6  244.40    6.06
   4   2  -6    6.49    0.53
   4   2  -6    6.61    0.30
  -4  -2   6    7.55    0.35
  -4  -2   6    6.57    0.33
   4   3  -6  210.96    5.51
   4   3  -6  213.34    6.73
  -4  -3   6  212.85    5.57
   4   4  -6   -0.13    0.18
   4   4  -6   -0.06    0.11
  -4  -4   6   -0.02    0.11
   4   5  -6  103.38    3.45
   4   5  -6   99.10    2.82
  -4  -5   6   95.49    2.84
   4   6  -6    0.23    0.19
  -4  -6   6    0.38    0.18
  -4  -7   6   47.94    1.68
  -4  -8   6    0.33    0.24
  -3   9   6    0.01    0.15
  -3   8   6   26.94    1.05
  -3   7   6   -0.10    0.12
  -3   6   6   60.21    1.80
   3  -5  -6    0.11    0.11
  -3   5   6    0.33    0.13
  -3   5   6    0.00    0.10
   3  -4  -6  165.10    4.87
  -3   4   6  164.35    4.34
  -3   4   6  169.26    4.37
   3  -3  -6    2.89    0.34
  -3   3   6    2.21    0.16
  -3   3   6    2.10    0.17
   3  -2  -6  154.69    4.51
   3  -2  -6  158.30    4.88
  -3   2   6  155.89    3.99
  -3   2   6  155.64    4.00
   3  -1  -6    1.97    0.26
  -3   1   6    2.14    0.11
  -3   1   6    2.18    0.11
   3   0  -6  243.50    7.63
  -3   0   6  240.57    6.25
  -3   0   6  257.05    6.26
   3   1  -6    1.23    0.23
  -3  -1   6    1.64    0.15
  -3  -1   6    1.54    0.14
   3   2  -6  164.54    4.27
   3   2  -6  159.67    5.27
  -3  -2   6  168.21    4.33
  -3  -2   6  170.87    4.31
   3   3  -6    1.46    0.26
   3   3  -6    2.00    0.20
  -3  -3   6    2.43    0.21
  -3  -3   6    1.91    0.22
   3   4  -6  131.55    3.58
   3   4  -6  132.96    4.36
  -3  -4   6  135.37    3.64
   3   5  -6   -0.16    0.19
   3   5  -6    0.31    0.17
  -3  -5   6    0.05    0.15
   3   6  -6   48.13    1.64
   3   6  -6   53.78    2.01
  -3  -6   6   53.05    1.70
   3   7  -6   -0.10    0.20
   3   7  -6   -0.18    0.23
  -3  -7   6   -0.19    0.16
  -3  -8   6   35.27    1.40
  -3  -9   6   -0.19    0.21
  -2   8   6    0.14    0.15
  -2   7   6   50.01    1.55
  -2   6   6    0.98    0.19
   2  -5  -6   94.90    2.55
  -2   5   6   93.28    2.61
  -2   5   6   96.22    2.64
   2  -4  -6    2.82    0.17
  -2   4   6    3.07    0.24
  -2   4   6    2.95    0.22
   2  -3  -6  159.19    4.53
  -2   3   6  158.08    4.06
  -2   3   6  151.85    4.04
   2  -2  -6    0.98    0.19
  -2   2   6    0.83    0.09
  -2   2   6    0.83    0.08
  -2  -1   6  206.99    5.32
  -2  -1   6  209.58    5.33
   2   2  -6    0.03    0.07
  -2  -2   6    0.00    0.06
  -2  -2   6   -0.03    0.08
   2   3  -6  228.73    5.95
   2   3  -6  220.94    7.16
  -2  -3   6  244.15    5.98
  -2  -3   6  224.77    5.98
   2   4  -6    0.61    0.21
   2   4  -6    1.04    0.19
  -2  -4   6    0.93    0.19
   2   5  -6   68.26    2.42
   2   5  -6   66.92    2.01
  -2  -5   6   68.27    2.03
   2   6  -6    2.33    0.33
   2   6  -6    1.74    0.34
  -2  -6   6    1.99    0.30
   2   7  -6   61.48    2.26
   2   7  -6   60.05    1.93
  -2  -7   6   58.52    1.95
   2   8  -6    0.13    0.29
  -2  -8   6    0.76    0.29
  -2  -9   6   19.59    1.02
  -1   9   6   -0.45    0.24
  -1   8   6   45.32    1.60
  -1   7   6   -0.18    0.19
  -1   6   6   53.34    1.68
   1  -5  -6    7.39    0.35
  -1   5   6    7.51    0.41
   1  -4  -6  201.19    5.18
  -1   4   6  202.33    5.26
   1  -3  -6    1.68    0.12
  -1   3   6    1.39    0.14
  -1   3   6    1.45    0.17
  -1   3   6    2.31    0.28
  -1   2   6  330.48    8.36
  -1   2   6  330.52    8.37
   1  -1  -6   12.97    0.52
  -1   1   6   12.89    0.38
  -1   1   6   12.92    0.38
  -1   0   6  393.21    9.99
  -1   0   6  398.98   10.08
   1   1  -6   14.50    0.44
  -1  -1   6   14.96    0.48
  -1  -1   6   15.19    0.47
   1   2  -6  277.92    7.34
  -1  -2   6  290.78    7.37
  -1  -2   6  295.18    7.37
   1   3  -6   -0.16    0.07
  -1  -3   6    0.05    0.11
  -1  -3   6   -0.06    0.07
   1   4  -6  244.80    6.25
  -1  -4   6  236.13    6.30
   1   5  -6    2.49    0.25
  -1  -5   6    1.77    0.25
   1   6  -6   56.95    2.10
  -1  -6   6   56.16    1.82
   1   7  -6   -0.34    0.22
   1   7  -6    0.14    0.16
  -1  -7   6   -0.06    0.18
   1   8  -6   45.24    1.82
  -1  -8   6   44.98    1.65
  -1  -9   6   -0.19    0.23
   0   9   6   21.96    1.08
   0   8   6    0.01    0.23
   0   7   6   53.36    1.75
   0   6   6    1.98    0.29
   0  -5  -6  106.48    2.87
   0   5   6  103.10    2.95
   0   5   6  109.85    2.94
   0  -4  -6    0.27    0.09
   0   4   6    0.24    0.13
   0   4   6    0.17    0.10
   0  -3  -6  260.60    6.58
   0   3   6  249.86    7.27
   0   3   6  266.81    6.63
   0   3   6  254.75    6.64
   0  -2  -6    2.02    0.13
   0   2   6    2.08    0.16
   0   2   6    2.29    0.24
   0   2   6    1.63    0.15
   0  -1  -6  376.82    9.41
   0   1   6  365.50    9.42
   0   1   6  373.71    9.42
   0   0  -6    1.49    0.10
   0   0   6    1.53    0.13
   0   0   6    1.37    0.13
   0   1  -6  361.96    9.30
   0  -1   6  370.89    9.33
   0  -1   6  368.49    9.34
   0   2  -6    3.04    0.19
   0  -2   6    2.57    0.22
   0  -2   6    2.82    0.20
   0   3  -6  209.29    5.54
   0  -3   6  224.43    5.57
   0  -3   6  206.77    5.57
   0   4  -6    1.85    0.22
   0  -4   6    1.02    0.20
   0   5  -6  109.84    3.00
   0  -5   6  105.86    3.04
   0   6  -6   -0.10    0.13
   0  -6   6   -0.02    0.17
   0   7  -6   45.68    1.80
   0   7  -6   44.24    1.50
   0  -7   6   45.45    1.61
   0   8  -6   -0.41    0.25
   0   8  -6   -0.13    0.16
   0  -8   6   -0.26    0.22
   0  -9   6   19.83    1.06
   1   9   6    0.15    0.30
   1   8   6   32.09    1.30
   1   7   6   -0.17    0.19
   1   6   6   61.71    1.93
  -1  -5  -6    1.17    0.18
   1   5   6    1.11    0.23
  -1  -4  -6  151.43    4.06
   1   4   6  154.39    4.14
   1   4   6  158.51    4.12
  -1  -3  -6    0.53    0.11
   1   3   6    0.26    0.12
   1   3   6    0.54    0.12
  -1  -2  -6  188.36    4.83
   1   2   6  186.23    5.30
   1   2   6  182.87    4.87
   1   2   6  192.14    4.87
  -1  -1  -6    0.05    0.07
   1   1   6   -0.16    0.09
   1   1   6    0.21    0.10
   1   1   6   -0.02    0.07
  -1   0  -6  281.64    7.14
   1   0   6  269.88    7.16
   1   0   6  287.73    7.16
  -1   1  -6    9.01    0.34
   1  -1   6    8.17    0.38
   1  -1   6    8.92    0.37
  -1   2  -6  174.74    4.49
   1  -2   6  169.57    4.53
   1  -2   6  173.12    4.52
  -1   3  -6    0.34    0.10
   1  -3   6    0.21    0.13
  -1   4  -6  102.56    2.83
   1  -4   6  103.38    2.89
  -1   5  -6    3.72    0.32
   1  -5   6    3.10    0.34
  -1   6  -6   58.03    1.84
   1  -6   6   61.39    1.93
  -1   7  -6   -0.25    0.12
   1  -7   6   -0.19    0.20
  -1   8  -6   19.95    0.92
  -1   8  -6   21.25    1.11
   1  -8   6   21.06    1.06
   1  -9   6   -0.07    0.27
   2   9   6   19.08    1.07
   2   8   6    0.14    0.28
   2   7   6   37.20    1.41
   2   6   6    0.82    0.25
  -2  -5  -6  118.47    3.22
   2   5   6  116.39    3.29
  -2  -4  -6    0.42    0.13
   2   4   6    0.33    0.17
  -2  -3  -6  116.53    3.15
   2   3   6  114.77    3.20
   2   3   6  122.96    3.20
  -2  -2  -6    0.86    0.15
   2   2   6    0.56    0.15
   2   2   6    0.59    0.13
  -2  -1  -6  220.96    5.70
   2   1   6  223.90    5.73
   2   1   6  217.04    5.74
  -2   0  -6   -0.09    0.07
   2   0   6   -0.01    0.08
   2   0   6   -0.04    0.11
  -2   1  -6  216.64    5.60
   2  -1   6  215.53    5.64
  -2   2  -6    0.81    0.14
   2  -2   6    0.94    0.17
  -2   3  -6  100.27    2.72
   2  -3   6   98.26    2.77
  -2   4  -6    0.94    0.16
   2  -4   6    1.31    0.24
  -2   5  -6   81.32    2.32
   2  -5   6   78.39    2.39
  -2   6  -6    0.75    0.20
   2  -6   6    0.82    0.25
  -2   7  -6   23.80    1.01
   2  -7   6   25.49    1.12
  -2   8  -6    0.37    0.20
   2  -8   6    0.09    0.26
   3   8   6   22.94    1.15
   3   7   6    0.94    0.30
   3   6   6   49.78    1.69
  -3  -5  -6    0.84    0.19
   3   5   6    0.67    0.23
  -3  -4  -6   99.25    2.79
   3   4   6  102.06    2.87
  -3  -3  -6    3.22    0.28
   3   3   6    2.57    0.28
  -3  -2  -6  111.54    3.02
   3   2   6  111.17    3.07
  -3  -1  -6   -0.07    0.12
   3   1   6   -0.42    0.13
  -3   0  -6  203.92    5.28
   3   0   6  199.72    5.32
  -3   1  -6   -0.04    0.09
   3  -1   6    0.19    0.15
  -3   2  -6  104.08    2.85
   3  -2   6  102.92    2.89
  -3   3  -6    3.84    0.30
   3  -3   6    2.77    0.32
  -3   4  -6   65.85    1.95
   3  -4   6   65.03    2.01
  -3   5  -6   -0.16    0.10
   3  -5   6   -0.09    0.15
  -3   6  -6   34.67    1.24
   3  -6   6   33.76    1.32
  -3   7  -6    0.39    0.19
   3  -7   6    0.26    0.25
  -3   8  -6   12.43    0.76
   3  -8   6   12.77    0.87
   4   8   6   -0.06    0.29
   4   7   6   25.61    1.18
   4   6   6   -0.14    0.20
  -4  -5  -6   44.18    1.45
   4   5   6   42.95    1.52
  -4  -4  -6    0.85    0.20
   4   4   6    0.32    0.19
  -4  -3  -6   62.66    1.88
   4   3   6   64.60    1.94
  -4  -2  -6    0.07    0.14
   4   2   6   -0.10    0.17
  -4  -1  -6   75.76    2.16
   4   1   6   74.71    2.21
  -4   0  -6    1.55    0.22
   4   0   6    1.34    0.23
  -4   1  -6   60.79    1.80
   4  -1   6   60.45    1.84
  -4   2  -6   -0.05    0.11
   4  -2   6    0.08    0.17
  -4   3  -6   48.72    1.54
   4  -3   6   49.84    1.60
  -4   4  -6    0.70    0.18
   4  -4   6    0.57    0.22
  -4   5  -6   24.21    0.98
   4  -5   6   25.38    1.06
  -4   6  -6   -0.14    0.13
   4  -6   6   -0.05    0.21
  -4   7  -6   12.79    0.74
   4  -7   6   13.72    0.86
   5   7   6   -0.24    0.25
   5   6   6   21.06    1.04
   5   5   6    0.11    0.22
  -5  -4  -6   30.07    1.10
   5   4   6   28.74    1.15
  -5  -3  -6    0.02    0.15
   5   3   6    0.01    0.19
  -5  -2  -6   45.77    1.48
   5   2   6   46.14    1.54
  -5  -1  -6   -0.17    0.13
   5   1   6   -0.04    0.17
  -5   0  -6   33.19    1.15
   5   0   6   34.02    1.21
  -5   1  -6    0.76    0.19
   5  -1   6    0.61    0.24
  -5   2  -6   36.74    1.24
   5  -2   6   34.92    1.28
  -5   3  -6    0.20    0.16
   5  -3   6    0.19    0.20
  -5   4  -6   25.34    1.00
   5  -4   6   25.81    1.08
  -5   5  -6   -0.01    0.15
   5  -5   6    0.04    0.21
  -5   6  -6   10.48    0.66
   5  -6   6   11.62    0.78
   6   6   6   -0.28    0.26
   6   5   6   17.99    0.97
   6   4   6   -0.51    0.22
  -6  -3  -6   34.87    1.29
   6   3   6   36.03    1.35
  -6  -2  -6   -0.08    0.19
   6   2   6   -0.45    0.20
  -6  -1  -6   34.97    1.26
   6   1   6   35.88    1.33
  -6   0  -6    0.05    0.18
   6   0   6   -0.11    0.21
  -6   1  -6   33.52    1.23
   6  -1   6   34.70    1.30
  -6   2  -6    0.05    0.17
   6  -2   6   -0.21    0.20
  -6   3  -6   28.36    1.13
   6  -3   6   28.28    1.18
  -6   4  -6    0.19    0.17
   6  -4   6   -0.11    0.22
  -6   5  -6   11.80    0.70
   6  -5   6   12.95    0.83
   7   4   6   20.77    1.07
   7   3   6   -0.38    0.24
  -7  -2  -6   22.56    1.01
   7   2   6   23.67    1.09
  -7  -1  -6   -0.53    0.16
   7   1   6    0.24    0.27
  -7   0  -6   26.24    1.09
   7   0   6   27.09    1.16
  -7   1  -6   -0.04    0.20
   7  -1   6   -0.20    0.23
  -7   2  -6   18.43    0.89
   7  -2   6   17.48    0.95
  -7   3  -6    0.17    0.21
   7  -3   6   -0.08    0.25
  -7   4  -6   11.92    0.73
   7  -4   6   12.70    0.84
   8   2   6   -0.05    0.27
   8   1   6    9.64    0.74
  -8   0  -6   -0.04    0.21
   8   0   6   -0.48    0.23
   8  -1   6    9.02    0.76
   9  -4  -7    1.56    0.39
  -9   3   7    0.49    0.20
  -9   2   7    2.32    0.31
  -9   1   7    1.20    0.25
  -9   0   7    2.09    0.30
  -9  -1   7    0.95    0.23
  -9  -2   7    3.04    0.37
  -9  -3   7    0.11    0.19
  -9  -4   7    0.91    0.26
   8  -5  -7    0.97    0.35
  -8   5   7    0.88    0.22
   8  -4  -7    1.88    0.42
  -8   4   7    1.21    0.23
  -8   3   7    3.06    0.32
  -8   2   7    2.83    0.32
  -8   1   7    1.76    0.25
  -8   0   7    0.40    0.16
  -8  -1   7    4.07    0.36
  -8  -2   7    2.07    0.29
  -8  -3   7    3.28    0.38
  -8  -4   7    0.43    0.22
  -8  -5   7    0.75    0.25
   7  -6  -7    0.83    0.34
  -7   6   7    0.68    0.20
   7  -5  -7    1.40    0.39
  -7   5   7    1.62    0.25
   7  -4  -7    2.09    0.39
  -7   4   7    2.79    0.29
  -7   3   7    2.94    0.29
  -7   2   7    5.47    0.36
  -7   1   7    1.92    0.23
  -7   0   7    2.45    0.25
  -7  -1   7    1.21    0.19
  -7  -2   7    3.15    0.30
  -7  -3   7    1.13    0.22
  -7  -4   7    2.19    0.31
  -7  -5   7    0.40    0.21
  -7  -6   7    0.72    0.28
  -6   7   7    0.97    0.22
   6  -6  -7    1.20    0.36
  -6   6   7    1.21    0.23
   6  -5  -7    2.67    0.44
  -6   5   7    3.35    0.31
   6  -4  -7    1.00    0.30
  -6   4   7    0.93    0.17
   6  -3  -7    6.97    0.57
  -6   3   7    7.49    0.38
  -6   2   7    1.47    0.19
  -6   2   7    1.98    0.21
  -6   1   7    3.69    0.27
  -6   1   7    3.68    0.26
  -6   0   7    0.95    0.16
  -6   0   7    1.30    0.18
  -6  -1   7    6.18    0.35
  -6  -1   7    6.01    0.35
  -6  -2   7    0.47    0.14
  -6  -3   7    1.80    0.24
  -6  -4   7    0.37    0.17
  -6  -5   7    1.03    0.25
  -6  -6   7    0.10    0.18
  -6  -7   7    0.18    0.23
  -5   8   7    0.87    0.23
  -5   7   7    0.65    0.20
  -5   6   7    4.74    0.36
   5  -5  -7    1.33    0.31
  -5   5   7    1.03    0.18
   5  -4  -7    3.64    0.43
  -5   4   7    4.02    0.28
   5  -3  -7    1.15    0.27
  -5   3   7    1.10    0.15
  -5   3   7    0.79    0.14
  -5   2   7    4.79    0.26
  -5   2   7    4.51    0.26
  -5   1   7    0.76    0.12
  -5   1   7    0.89    0.13
  -5   0   7    8.45    0.36
  -5   0   7    7.99    0.35
   5   1  -7    0.16    0.19
  -5  -1   7    0.10    0.09
  -5  -1   7    0.17    0.10
   5   2  -7    1.79    0.33
   5   2  -7    2.44    0.19
  -5  -2   7    2.18    0.23
  -5  -2   7    1.94    0.22
   5   3  -7    0.66    0.15
   5   3  -7    0.51    0.25
  -5  -3   7    0.66    0.16
   5   4  -7    0.66    0.28
  -5  -4   7    1.13    0.21
  -5  -5   7   -0.10    0.13
  -5  -6   7    0.80    0.23
  -5  -7   7    0.02    0.20
  -5  -8   7   -0.24    0.18
  -4   8   7    0.62    0.20
  -4   7   7    1.68    0.26
  -4   6   7    1.41    0.22
   4  -5  -7    1.62    0.33
  -4   5   7    1.46    0.20
   4  -4  -7    2.02    0.34
  -4   4   7    2.52    0.21
  -4   4   7    2.00    0.20
   4  -3  -7    2.67    0.36
  -4   3   7    2.42    0.18
  -4   3   7    2.02    0.18
   4  -2  -7    0.25    0.15
  -4   2   7    0.07    0.07
  -4   2   7    0.17    0.07
   4  -1  -7    3.94    0.41
  -4   1   7    3.54    0.18
  -4   1   7    3.65    0.18
   4   0  -7    9.58    0.61
  -4   0   7    9.20    0.34
  -4   0   7    9.10    0.33
   4   1  -7    2.59    0.36
  -4  -1   7    3.03    0.20
  -4  -1   7    2.77    0.19
   4   2  -7    0.65    0.11
   4   2  -7    0.33    0.22
  -4  -2   7    0.63    0.13
   4   3  -7    0.60    0.13
   4   3  -7    0.80    0.27
  -4  -3   7    0.36    0.14
  -4  -3   7    0.28    0.11
   4   4  -7   -0.14    0.19
   4   4  -7    0.11    0.13
  -4  -4   7    0.27    0.15
   4   5  -7    0.51    0.27
   4   5  -7    0.83    0.22
  -4  -5   7    0.73    0.20
   4   6  -7   -0.06    0.24
  -4  -6   7   -0.13    0.17
  -4  -7   7    0.15    0.20
  -4  -8   7    0.03    0.21
  -3   8   7    0.20    0.16
  -3   7   7    0.68    0.19
  -3   6   7    1.52    0.22
  -3   5   7    0.45    0.13
   3  -4  -7    0.94    0.24
  -3   4   7    0.87    0.14
  -3   4   7    1.05    0.15
   3  -3  -7    0.67    0.21
   3  -3  -7    0.48    0.15
  -3   3   7    0.51    0.09
  -3   3   7    0.37    0.09
   3  -2  -7    0.45    0.16
   3  -2  -7    0.40    0.18
  -3   2   7    0.64    0.08
  -3   2   7    0.54    0.07
   3  -1  -7    0.15    0.16
   3   0  -7    1.95    0.28
  -3   0   7    2.41    0.13
  -3   0   7    2.25    0.12
   3   1  -7    0.14    0.15
  -3  -1   7    0.45    0.07
  -3  -1   7    0.38    0.09
   3   2  -7    0.29    0.08
   3   2  -7    0.17    0.17
  -3  -2   7    0.13    0.10
  -3  -2   7    0.32    0.09
   3   3  -7    0.12    0.11
   3   3  -7   -0.02    0.18
  -3  -3   7    0.32    0.10
  -3  -3   7    0.44    0.14
   3   4  -7   -0.10    0.12
   3   4  -7    0.21    0.21
  -3  -4   7   -0.05    0.12
  -3  -4   7    0.06    0.10
   3   5  -7    0.22    0.22
   3   5  -7    0.09    0.16
  -3  -5   7   -0.01    0.15
   3   6  -7    0.01    0.17
   3   6  -7   -0.21    0.24
  -3  -6   7    0.19    0.18
   3   7  -7    0.16    0.28
  -3  -7   7   -0.32    0.17
   3   8  -7   -0.11    0.28
  -3  -8   7    0.46    0.25
  -2   9   7    0.84    0.32
  -2   6   7   -0.15    0.09
  -2   5   7    0.28    0.12
  -2   5   7    0.31    0.14
  -2   4   7    0.38    0.12
  -2   4   7    0.27    0.10
   2  -3  -7    9.15    0.51
  -2   3   7    8.74    0.33
  -2   3   7    8.84    0.35
   2  -2  -7    1.99    0.26
  -2   2   7    2.01    0.11
  -2   2   7    1.94    0.12
   2  -1  -7   -0.13    0.12
  -2  -1   7    1.22    0.12
  -2  -1   7    1.21    0.12
   2   2  -7    0.78    0.12
  -2  -2   7    0.82    0.12
  -2  -2   7    0.56    0.12
   2   3  -7    0.29    0.12
  -2  -3   7    0.02    0.10
  -2  -3   7    0.01    0.08
   2   4  -7    0.24    0.15
   2   4  -7   -0.04    0.18
  -2  -4   7    0.01    0.09
  -2  -4   7   -0.16    0.12
   2   5  -7    0.25    0.21
   2   5  -7   -0.08    0.15
  -2  -5   7    0.19    0.14
   2   6  -7    0.08    0.24
   2   6  -7    0.44    0.21
  -2  -6   7    0.41    0.20
   2   7  -7    0.37    0.29
  -2  -7   7    0.58    0.23
   2   8  -7   -0.25    0.26
  -2  -8   7   -0.19    0.20
  -1   9   7   -0.39    0.23
  -1   8   7    0.53    0.27
  -1   7   7   -0.23    0.20
  -1   6   7    0.88    0.22
  -1   5   7   -0.02    0.14
  -1   5   7    0.16    0.12
  -1   4   7    2.15    0.23
  -1   4   7    2.27    0.21
  -1   3   7    0.50    0.18
  -1   3   7    0.39    0.12
  -1   3   7    0.40    0.10
  -1   2   7    0.75    0.10
  -1   2   7    0.64    0.09
   1  -1  -7    0.01    0.11
  -1   1   7    0.00    0.04
  -1   1   7   -0.01    0.05
   1   0  -7    0.77    0.14
  -1   0   7    0.73    0.09
  -1   0   7    0.75    0.08
   1   1  -7   -0.02    0.04
  -1  -1   7   -0.05    0.07
  -1  -1   7    0.02    0.05
   1   2  -7    0.16    0.07
  -1  -2   7    0.14    0.07
  -1  -2   7    0.04    0.09
   1   3  -7    2.58    0.21
  -1  -3   7    2.49    0.21
  -1  -3   7    2.04    0.22
   1   4  -7    0.99    0.15
  -1  -4   7    0.90    0.18
   1   5  -7    0.07    0.12
  -1  -5   7    0.00    0.14
   1   6  -7    0.48    0.17
   1   6  -7   -0.01    0.22
  -1  -6   7    0.51    0.22
   1   7  -7    0.57    0.30
   1   7  -7    1.08    0.21
  -1  -7   7    0.46    0.24
   1   8  -7    0.90    0.33
  -1  -8   7    1.23    0.31
  -1  -9   7    0.40    0.28
   0   9   7   -0.16    0.26
   0   8   7   -0.03    0.22
   0   7   7    0.19    0.20
   0   6   7   -0.14    0.16
   0  -5  -7    0.20    0.10
   0   5   7    0.12    0.15
   0  -4  -7   -0.09    0.07
   0   4   7   -0.04    0.09
   0   4   7    0.00    0.14
   0  -3  -7    2.37    0.16
   0   3   7    2.42    0.28
   0   3   7    2.18    0.20
   0   3   7    2.54    0.20
   0  -2  -7    0.50    0.07
   0   2   7    0.26    0.10
   0   2   7    0.40    0.09
   0   2   7    0.16    0.13
   0  -1  -7   -0.02    0.03
   0   1   7   -0.07    0.08
   0   1   7    0.05    0.06
   0   0  -7    1.85    0.12
   0   0   7    1.59    0.15
   0   0   7    1.62    0.15
   0   1  -7    1.67    0.13
   0  -1   7    1.59    0.15
   0  -1   7    1.88    0.18
   0   2  -7    1.70    0.16
   0  -2   7    1.22    0.17
   0  -2   7    1.33    0.16
   0   3  -7    8.85    0.39
   0  -3   7    8.69    0.41
   0  -3   7    7.86    0.42
   0   4  -7    3.90    0.29
   0  -4   7    4.05    0.36
   0   5  -7    1.69    0.23
   0  -5   7    1.44    0.25
   0   6  -7    1.77    0.27
   0  -6   7    1.29    0.28
   0   7  -7    1.90    0.29
   0  -7   7    1.24    0.30
   0   8  -7    0.27    0.29
   0  -8   7    0.93    0.31
   1   8   7    0.24    0.27
   1   7   7    0.20    0.24
   1   6   7    0.05    0.20
  -1  -5  -7    0.77    0.16
   1   5   7    0.66    0.21
  -1  -4  -7    3.25    0.24
   1   4   7    3.34    0.27
   1   4   7    2.50    0.28
  -1  -3  -7    4.94    0.27
   1   3   7    5.62    0.31
   1   3   7    5.13    0.33
   1   3   7    5.04    0.37
  -1  -2  -7    0.38    0.10
   1   2   7    0.26    0.10
   1   2   7    0.19    0.12
   1   2   7    0.33    0.14
  -1  -1  -7    3.73    0.21
   1   1   7    3.67    0.23
   1   1   7    3.66    0.26
   1   1   7    3.46    0.24
  -1   0  -7   22.73    0.70
   1   0   7   23.58    0.74
   1   0   7   22.40    0.74
  -1   1  -7   14.22    0.50
   1  -1   7   14.55    0.53
   1  -1   7   14.36    0.55
  -1   2  -7    3.54    0.23
   1  -2   7    3.94    0.26
   1  -2   7    3.64    0.29
  -1   3  -7    3.19    0.24
   1  -3   7    2.08    0.24
  -1   4  -7    6.36    0.37
   1  -4   7    6.40    0.44
  -1   5  -7    3.16    0.32
   1  -5   7    3.27    0.37
  -1   6  -7    2.93    0.34
   1  -6   7    2.56    0.36
  -1   7  -7    0.58    0.21
   1  -7   7   -0.09    0.20
   1  -8   7    0.96    0.33
   2   8   7    0.10    0.29
   2   7   7    0.01    0.23
   2   6   7    1.70    0.31
   2   5   7    0.76    0.22
  -2  -4  -7    2.89    0.27
   2   4   7    2.30    0.29
  -2  -3  -7    0.11    0.10
   2   3   7   -0.09    0.13
   2   3   7   -0.02    0.10
  -2  -2  -7    3.90    0.26
   2   2   7    3.41    0.30
   2   2   7    4.02    0.28
  -2  -1  -7    3.63    0.24
   2   1   7    3.80    0.26
   2   1   7    3.51    0.30
  -2   0  -7    6.61    0.33
   2   0   7    7.47    0.36
   2   0   7    6.60    0.38
  -2   1  -7    3.82    0.26
   2  -1   7    3.87    0.31
  -2   2  -7    2.87    0.24
   2  -2   7    2.58    0.27
  -2   3  -7    1.69    0.20
   2  -3   7    1.12    0.21
  -2   4  -7    0.19    0.12
   2  -4   7    0.28    0.18
  -2   5  -7    4.14    0.35
   2  -5   7    3.72    0.39
  -2   6  -7    1.38    0.26
   2  -6   7    1.30    0.30
  -2   7  -7    1.66    0.29
   2  -7   7    1.52    0.35
   2  -8   7    0.29    0.28
   3   8   7   -0.08    0.28
   3   7   7    0.13    0.25
   3   6   7    0.02    0.22
   3   5   7    0.98    0.24
  -3  -4  -7    1.14    0.20
   3   4   7    1.56    0.26
  -3  -3  -7    0.08    0.11
   3   3   7   -0.10    0.14
  -3  -2  -7    0.25    0.13
   3   2   7    0.08    0.16
  -3  -1  -7    0.28    0.12
   3   1   7    0.43    0.17
  -3   0  -7    3.74    0.29
   3   0   7    3.94    0.34
  -3   1  -7    0.61    0.15
   3  -1   7    0.75    0.19
  -3   2  -7    0.05    0.09
   3  -2   7    0.21    0.17
  -3   3  -7    0.10    0.12
   3  -3   7    0.29    0.17
  -3   4  -7    2.83    0.31
   3  -4   7    2.85    0.35
  -3   5  -7    1.29    0.23
   3  -5   7    1.39    0.28
  -3   6  -7    1.91    0.31
   3  -6   7    2.29    0.38
   3  -7   7    0.34    0.27
   4   7   7    1.09    0.37
   4   6   7   -0.04    0.22
   4   5   7    0.14    0.24
   4   4   7    0.37    0.21
  -4  -3  -7    0.84    0.20
   4   3   7    0.72    0.23
  -4  -2  -7    0.20    0.13
   4   2   7    0.40    0.18
  -4  -1  -7    1.92    0.24
   4   1   7    1.60    0.26
  -4   0  -7    1.10    0.19
   4   0   7    0.79    0.21
  -4   1  -7    4.54    0.34
   4  -1   7    2.94    0.33
  -4   2  -7    1.22    0.21
   4  -2   7    0.67    0.21
  -4   3  -7    2.70    0.30
   4  -3   7    2.91    0.34
  -4   4  -7    0.90    0.21
   4  -4   7    1.21    0.29
  -4   5  -7    3.47    0.38
   4  -5   7    3.63    0.44
  -4   6  -7    1.30    0.27
   4  -6   7    0.66    0.27
   4  -7   7    1.90    0.41
   5   6   7    0.29    0.31
   5   5   7    0.43    0.28
   5   4   7    1.36    0.32
  -5  -3  -7    2.49    0.32
   5   3   7    1.98    0.34
  -5  -2  -7    5.28    0.42
   5   2   7    3.58    0.41
  -5  -1  -7    3.23    0.33
   5   1   7    3.54    0.39
  -5   0  -7    3.83    0.36
   5   0   7    3.60    0.40
  -5   1  -7    2.05    0.28
   5  -1   7    1.94    0.32
   5  -2   7    7.23    0.56
  -5   3  -7    3.52    0.36
   5  -3   7    3.76    0.42
  -5   4  -7    5.04    0.44
   5  -4   7    5.05    0.50
  -5   5  -7    0.93    0.24
   5  -5   7    1.31    0.32
   5  -6   7    2.43    0.43
   6   5   7    0.75    0.33
   6   4   7    1.05    0.35
   6   3   7    2.78    0.41
   6   2   7    6.65    0.59
  -6  -1  -7    5.54    0.47
   6   1   7    3.86    0.47
  -6   0  -7    1.00    0.24
   6   0   7    0.59    0.27
  -6   1  -7    3.09    0.36
   6  -1   7    3.88    0.47
   6  -2   7    4.49    0.48
  -6   3  -7    6.85    0.52
   6  -3   7    7.05    0.62
  -6   4  -7    0.84    0.24
   6  -4   7    1.01    0.32
   6  -5   7    1.73    0.38
   7   3   7    0.78    0.33
   7   2   7    2.86    0.46
   7   1   7    1.60    0.36
   7   0   7    3.12    0.44
   7  -1   7    0.74    0.32
   7  -2   7    4.02    0.52
   7  -3   7    0.96    0.34
  -9   3   8   14.49    0.71
  -9   2   8    1.96    0.29
  -9   1   8   26.75    1.02
  -9   0   8    0.67    0.22
  -9  -1   8   24.92    0.97
  -9  -2   8    0.85    0.23
  -9  -3   8   24.05    1.01
   8  -5  -8    1.54    0.42
  -8   5   8    1.79    0.27
   8  -4  -8   23.34    1.17
  -8   4   8   22.80    0.89
  -8   3   8    0.85    0.20
  -8   2   8   41.92    1.35
  -8   1   8    1.67    0.25
  -8   0   8   37.27    1.22
  -8  -1   8    0.47    0.17
  -8  -2   8   42.30    1.39
  -8  -3   8   -0.17    0.13
  -8  -4   8   30.90    1.18
  -8  -5   8    0.69    0.26
   7  -6  -8    1.08    0.38
  -7   6   8    1.33    0.25
   7  -5  -8   22.65    1.15
  -7   5   8   22.31    0.86
   7  -4  -8   -0.05    0.22
  -7   4   8    0.03    0.11
   7  -3  -8   55.56    2.03
  -7   3   8   55.88    1.66
  -7   2   8    0.35    0.14
  -7   1   8   48.79    1.46
  -7   0   8    0.71    0.16
  -7  -1   8   53.63    1.60
  -7  -2   8    0.92    0.19
  -7  -3   8   54.55    1.69
  -7  -4   8    0.76    0.21
  -7  -5   8   26.98    1.10
  -7  -6   8    0.01    0.20
  -6   7   8    0.38    0.18
   6  -6  -8   24.82    1.21
  -6   6   8   22.04    0.88
   6  -5  -8   -0.10    0.24
  -6   5   8   -0.14    0.10
   6  -4  -8   55.02    2.00
  -6   4   8   56.84    1.64
   6  -3  -8    0.60    0.25
  -6   3   8    0.30    0.12
  -6   2   8   81.56    2.23
  -6   1   8    0.05    0.10
  -6   1   8   -0.02    0.08
  -6   0   8   90.24    2.46
  -6   0   8   90.37    2.45
  -6  -1   8    0.72    0.15
  -6  -2   8   83.93    2.35
  -6  -3   8    0.02    0.12
  -6  -4   8   51.32    1.63
  -6  -5   8    0.97    0.24
  -6  -6   8   29.56    1.20
  -6  -7   8    0.14    0.21
  -5   7   8   21.16    0.87
  -5   6   8   -0.04    0.12
   5  -5  -8   61.04    2.13
  -5   5   8   58.65    1.74
   5  -4  -8    1.83    0.33
  -5   4   8    1.83    0.19
   5  -3  -8   82.29    2.65
  -5   3   8   82.72    2.22
  -5   3   8   82.33    2.23
  -5   2   8    2.16    0.18
  -5   2   8    2.55    0.18
   5  -1  -8  150.46    4.80
  -5   1   8  145.26    3.82
  -5   1   8  146.99    3.83
   5   0  -8    0.07    0.17
  -5   0   8   -0.08    0.07
  -5   0   8    0.08    0.08
   5   1  -8  132.05    4.42
  -5  -1   8  138.43    3.51
  -5  -1   8  127.21    3.48
   5   2  -8    2.13    0.36
  -5  -2   8    2.37    0.23
  -5  -2   8    2.26    0.24
   5   3  -8   80.29    2.90
  -5  -3   8   78.47    2.25
   5   4  -8    1.40    0.33
  -5  -4   8    1.12    0.22
   5   5  -8   66.24    2.53
  -5  -5   8   63.93    2.02
  -5  -6   8    0.13    0.17
  -5  -7   8   23.85    1.08
  -4   8   8   14.70    0.70
  -4   7   8    0.30    0.16
  -4   6   8   50.60    1.56
  -4   5   8    0.68    0.15
   4  -4  -8   68.88    2.31
  -4   4   8   72.00    1.95
  -4   4   8   69.64    1.93
   4  -3  -8    4.83    0.41
   4  -3  -8    4.34    0.42
  -4   3   8    4.56    0.23
  -4   3   8    4.42    0.22
   4  -2  -8   87.22    2.91
   4  -2  -8   85.07    2.70
  -4   2   8   86.59    2.26
  -4   2   8   88.09    2.26
   4  -1  -8    0.94    0.23
  -4   1   8    0.53    0.07
   4   0  -8  185.38    5.88
  -4   0   8  180.69    4.70
  -4   0   8  185.78    4.70
   4   1  -8    0.13    0.19
  -4  -1   8    0.50    0.10
   4   2  -8   74.74    2.72
  -4  -2   8   77.08    2.12
  -4  -2   8   78.13    2.10
   4   3  -8    6.13    0.60
   4   3  -8    6.14    0.31
  -4  -3   8    7.24    0.37
  -4  -3   8    5.94    0.37
   4   4  -8   71.57    2.59
  -4  -4   8   67.72    2.06
   4   5  -8    1.84    0.38
  -4  -5   8    2.18    0.31
   4   6  -8   55.64    2.19
  -4  -6   8   52.63    1.79
   4   7  -8    0.26    0.30
  -4  -7   8    0.10    0.19
  -4  -8   8   13.45    0.82
  -3   7   8   32.13    1.09
  -3   6   8    0.07    0.11
  -3   5   8   68.32    1.94
   3  -4  -8    1.16    0.28
  -3   4   8    1.10    0.16
  -3   4   8    1.22    0.16
   3  -3  -8   73.09    2.37
   3  -3  -8   75.18    2.50
  -3   3   8   76.08    1.99
  -3   3   8   74.84    1.99
   3  -2  -8    0.39    0.18
   3  -2  -8    0.43    0.18
   3  -1  -8  136.12    4.40
   3   0  -8    0.05    0.14
   3   1  -8  129.41    4.29
  -3  -1   8  129.43    3.41
  -3  -1   8  133.69    3.41
   3   2  -8    0.75    0.24
  -3  -2   8    1.77    0.17
  -3  -2   8    1.34    0.17
   3   3  -8   75.51    2.67
   3   3  -8   74.36    2.04
  -3  -3   8   71.98    2.11
  -3  -3   8   77.49    2.12
   3   4  -8    0.15    0.14
   3   4  -8   -0.20    0.19
  -3  -4   8    0.02    0.12
   3   5  -8   66.89    2.44
  -3  -5   8   63.24    1.98
   3   6  -8    1.47    0.36
  -3  -6   8    1.54    0.29
   3   7  -8   32.33    1.52
  -3  -7   8   30.92    1.24
   3   8  -8   -0.39    0.29
  -3  -8   8    0.03    0.22
  -2   8   8   20.04    0.95
  -2   7   8    0.06    0.22
  -2   6   8   56.45    1.75
  -2   4   8   95.51    2.59
  -2   3   8    0.23    0.09
  -2   3   8    0.31    0.11
   2  -2  -8  193.79    5.42
  -2   2   8  185.18    4.81
   2  -1  -8    0.15    0.13
  -2   0   8  117.77    3.04
  -2   0   8  119.86    3.04
  -2  -1   8    1.00    0.12
  -2  -1   8    1.01    0.10
   2   2  -8  216.80    5.71
  -2  -2   8  234.12    5.79
  -2  -2   8  221.48    5.79
   2   3  -8    3.14    0.26
  -2  -3   8    3.54    0.29
  -2  -3   8    3.89    0.26
   2   4  -8   87.90    2.99
   2   4  -8   81.58    2.37
  -2  -4   8   85.96    2.44
   2   5  -8   -0.32    0.18
   2   5  -8    0.00    0.16
  -2  -5   8   -0.23    0.13
   2   6  -8   51.22    2.00
  -2  -6   8   47.82    1.64
   2   7  -8    0.70    0.34
  -2  -7   8    1.19    0.30
   2   8  -8   25.67    1.35
  -2  -8   8   24.91    1.14
  -1   8   8   -0.01    0.24
  -1   7   8   43.95    1.51
  -1   6   8    0.15    0.17
  -1   5   8   61.80    1.82
  -1   4   8   -0.17    0.10
  -1   4   8   -0.11    0.08
  -1   3   8  193.01    5.10
  -1   3   8  202.16    5.10
  -1   2   8    3.89    0.21
  -1   2   8    4.42    0.20
   1  -1  -8  198.68    5.72
  -1   1   8  203.04    5.18
  -1   1   8  207.81    5.18
   1   0  -8    5.04    0.31
  -1   0   8    5.76    0.23
  -1   0   8    5.67    0.25
  -1  -1   8  159.79    4.10
  -1  -1   8  157.37    4.11
   1   2  -8    4.51    0.22
  -1  -2   8    4.46    0.25
  -1  -2   8    4.13    0.27
  -1  -3   8  216.97    5.78
  -1  -3   8  225.30    5.77
   1   4  -8    0.81    0.16
  -1  -4   8    0.83    0.19
   1   5  -8   44.04    1.35
  -1  -5   8   43.53    1.45
   1   6  -8    0.07    0.24
  -1  -6   8    0.16    0.20
   1   7  -8   45.45    1.89
  -1  -7   8   44.43    1.62
   1   8  -8    0.36    0.34
  -1  -8   8    0.39    0.27
   0   8   8   30.82    1.26
   0   7   8    0.62    0.26
   0   6   8   41.23    1.40
   0   5   8    0.57    0.19
   0  -4  -8  127.10    3.26
   0   4   8  125.76    3.34
   0   4   8  119.38    3.34
   0   3   8    5.50    0.32
   0   3   8    6.24    0.31
   0   2   8  149.32    3.80
   0   2   8  141.70    3.80
   0   1   8    0.13    0.08
   0   1   8    0.16    0.10
   0   0  -8  167.41    4.29
   0   0   8  164.14    4.35
   0   0   8  172.45    4.36
   0   1  -8    0.91    0.11
   0  -1   8    0.55    0.11
   0  -1   8    0.77    0.14
   0   2  -8  112.58    2.99
   0  -2   8  115.22    3.02
   0  -2   8  110.24    3.04
   0   3  -8    5.31    0.31
   0  -3   8    4.70    0.35
   0  -3   8    4.97    0.31
   0   4  -8   95.59    2.63
   0  -4   8   94.00    2.69
   0   5  -8   -0.04    0.11
   0  -5   8   -0.13    0.14
   0  -6   8   30.68    1.19
   0  -7   8    0.49    0.27
   0   8  -8   20.75    1.21
   0  -8   8   21.22    1.09
   1   8   8    0.09    0.27
   1   7   8   37.01    1.39
   1   6   8   -0.09    0.17
   1   5   8   53.88    1.68
   1   4   8    0.39    0.16
  -1  -3  -8  104.70    2.78
   1   3   8  101.48    2.85
   1   3   8  107.84    2.85
  -1  -2  -8    3.06    0.20
   1   2   8    3.02    0.23
   1   2   8    2.77    0.28
   1   2   8    2.67    0.24
  -1  -1  -8  122.86    3.17
   1   1   8  117.22    3.23
   1   1   8  123.46    3.23
  -1   0  -8    2.32    0.17
   1   0   8    2.12    0.21
   1   0   8    2.24    0.20
  -1   1  -8  104.16    2.80
   1  -1   8  103.91    2.86
   1  -1   8  108.23    2.85
  -1   2  -8    1.59    0.17
   1  -2   8    1.66    0.21
   1  -2   8    1.75    0.20
  -1   3  -8   76.75    2.15
   1  -3   8   76.57    2.22
  -1   4  -8    1.06    0.18
   1  -4   8    0.81    0.21
  -1   5  -8   37.45    1.27
   1  -5   8   38.76    1.35
   1  -6   8    0.71    0.25
   1  -7   8   21.60    1.04
   1  -8   8   -0.09    0.26
   2   8   8   20.09    1.05
   2   7   8   -0.28    0.20
   2   6   8   33.91    1.27
   2   5   8   -0.11    0.16
   2   4   8   66.00    1.98
  -2  -3  -8    0.13    0.11
   2   3   8   -0.06    0.13
  -2  -2  -8   75.55    2.07
   2   2   8   72.69    2.26
   2   2   8   73.64    2.13
   2   2   8   76.72    2.13
  -2  -1  -8   -0.06    0.08
   2   1   8   -0.19    0.08
   2   1   8   -0.33    0.13
  -2   0  -8  109.42    2.93
   2   0   8  112.03    2.98
   2   0   8  105.08    2.97
  -2   1  -8    0.12    0.09
   2  -1   8    0.15    0.14
  -2   2  -8   58.30    1.70
   2  -2   8   59.87    1.77
  -2   3  -8    0.74    0.16
   2  -3   8    0.89    0.21
  -2   4  -8   50.11    1.56
   2  -4   8   50.46    1.64
  -2   5  -8    0.47    0.16
   2  -5   8    0.47    0.21
   2  -6   8   25.36    1.11
   2  -7   8   -0.32    0.22
   3   7   8   17.57    0.96
   3   6   8    0.22    0.24
   3   5   8   45.16    1.54
   3   4   8    0.05    0.17
   3   3   8   38.95    1.30
  -3  -2  -8    2.52    0.26
   3   2   8    2.81    0.31
  -3  -1  -8   65.05    1.88
   3   1   8   65.66    1.95
  -3   0  -8   -0.18    0.09
   3   0   8   -0.19    0.14
  -3   1  -8   61.70    1.83
   3  -1   8   63.55    1.89
  -3   2  -8    0.88    0.16
   3  -2   8    1.38    0.25
  -3   3  -8   30.20    1.05
   3  -3   8   30.98    1.13
  -3   4  -8    0.13    0.13
   3  -4   8    0.00    0.17
  -3   5  -8   30.58    1.13
   3  -5   8   29.51    1.20
   3  -6   8   -0.02    0.21
   3  -7   8   12.17    0.85
   4   7   8    0.22    0.30
   4   6   8   20.64    1.01
   4   5   8    0.21    0.23
   4   4   8   33.48    1.25
   4   3   8    0.16    0.21
   4   2   8   29.50    1.10
  -4  -1  -8    0.05    0.14
   4   1   8   -0.05    0.19
  -4   0  -8   49.43    1.52
   4   0   8   47.44    1.57
  -4   1  -8    0.24    0.15
   4  -1   8    0.21    0.19
  -4   2  -8   32.32    1.12
   4  -2   8   31.15    1.18
  -4   3  -8   -0.09    0.12
   4  -3   8    0.05    0.18
   4  -4   8   22.67    1.02
   4  -5   8    0.44    0.27
   4  -6   8   12.21    0.83
   5   6   8   -0.32    0.24
   5   5   8   19.50    0.99
   5   4   8    0.06    0.23
   5   3   8   26.53    1.11
   5   2   8    0.99    0.29
   5   1   8   33.85    1.27
  -5   0  -8   -0.19    0.14
   5   0   8   -0.18    0.19
  -5   1  -8   27.24    1.05
   5  -1   8   28.32    1.13
  -5   2  -8    0.78    0.23
   5  -2   8    0.63    0.26
   5  -3   8   21.69    1.00
   5  -4   8   -0.13    0.21
   5  -5   8   12.48    0.83
   6   4   8   17.47    0.96
   6   3   8   -0.10    0.25
   6   2   8   21.92    1.04
   6   1   8   -0.26    0.23
   6   0   8   20.45    0.98
   6  -1   8   -0.02    0.24
   6  -2   8   15.75    0.90
   6  -3   8   -0.39    0.24
   6  -4   8   11.46    0.82
   7   2   8    0.35    0.32
   7   1   8    9.58    0.74
   7   0   8   -0.06    0.27
   7  -1   8    7.87    0.72
   9  -3  -9    1.90    0.44
  -9   3   9    1.15    0.23
  -9   2   9    1.07    0.23
  -9   1   9    1.80    0.26
  -9   0   9    1.04    0.22
  -9  -1   9    2.38    0.31
  -9  -2   9    0.95    0.23
  -9  -3   9    0.77    0.24
   8  -5  -9    1.60    0.41
   8  -4  -9    1.40    0.39
  -8   4   9    1.12    0.21
   8  -3  -9    2.11    0.42
  -8   3   9    1.64    0.24
  -8   2   9    1.57    0.23
  -8   1   9    1.98    0.25
  -8   0   9    1.43    0.21
  -8  -1   9    2.08    0.27
  -8  -2   9    2.25    0.28
  -8  -3   9    0.96    0.24
  -8  -4   9    1.02    0.25
  -8  -5   9    0.01    0.17
   7  -6  -9    0.99    0.38
  -7   6   9    0.85    0.20
   7  -5  -9    0.79    0.34
  -7   5   9    1.07    0.20
   7  -4  -9    2.11    0.40
  -7   4   9    2.66    0.27
   7  -3  -9    2.02    0.37
  -7   3   9    1.78    0.22
  -7   2   9    3.37    0.28
  -7   1   9    0.84    0.16
  -7   0   9    1.16    0.18
  -7  -1   9    2.15    0.24
  -7  -2   9    2.06    0.25
  -7  -3   9    0.44    0.17
  -7  -4   9    0.26    0.18
  -7  -5   9    0.28    0.20
  -7  -6   9    0.16    0.20
  -6   6   9    1.07    0.21
   6  -5  -9    1.17    0.34
  -6   5   9    1.35    0.20
   6  -4  -9    1.19    0.33
  -6   4   9    1.22    0.18
   6  -3  -9    1.93    0.35
  -6   3   9    1.49    0.18
  -6   2   9    4.26    0.26
  -6   1   9    0.87    0.14
  -6   1   9    0.86    0.14
  -6   0   9    0.50    0.12
  -6   0   9    0.50    0.12
  -6  -1   9    0.57    0.13
   6   2  -9    1.02    0.30
  -6  -2   9    1.52    0.20
   6   3  -9    0.92    0.30
  -6  -3   9    0.60    0.17
  -6  -4   9    0.48    0.19
  -6  -5   9   -0.14    0.13
  -6  -6   9    0.15    0.19
  -5   7   9    0.48    0.18
  -5   6   9    0.60    0.16
   5  -5  -9    1.10    0.33
  -5   5   9    1.19    0.19
   5  -4  -9    1.15    0.30
  -5   4   9    0.98    0.15
   5  -3  -9    2.37    0.36
  -5   3   9    1.96    0.17
  -5   3   9    2.32    0.19
   5  -2  -9    2.69    0.37
  -5   2   9    1.90    0.16
  -5   2   9    2.04    0.16
   5  -1  -9    0.63    0.24
  -5   1   9    0.41    0.09
  -5   1   9    0.30    0.09
   5   0  -9    0.47    0.23
  -5   0   9    0.23    0.09
  -5   0   9    0.33    0.09
   5   1  -9    0.98    0.30
  -5  -1   9    0.62    0.13
  -5  -1   9    0.72    0.13
   5   2  -9    0.98    0.30
  -5  -2   9    0.76    0.13
  -5  -2   9    0.67    0.14
   5   3  -9    1.17    0.32
  -5  -3   9    0.54    0.16
   5   4  -9    0.40    0.26
  -5  -4   9    0.36    0.16
   5   5  -9    0.52    0.30
  -5  -5   9    0.23    0.17
   5   6  -9   -0.22    0.26
  -5  -6   9    0.27    0.20
  -5  -7   9    0.30    0.22
  -4   8   9    0.05    0.13
  -4   7   9    0.44    0.17
  -4   6   9    0.85    0.18
  -4   5   9    2.82    0.25
   4  -4  -9   -0.19    0.17
  -4   4   9   -0.02    0.08
  -4   4   9   -0.08    0.07
   4  -3  -9    0.75    0.24
   4  -3  -9    0.83    0.21
  -4   3   9    1.00    0.12
  -4   3   9    1.07    0.12
   4  -2  -9   -0.06    0.16
   4  -2  -9    0.05    0.16
   4  -1  -9    2.62    0.36
   4   0  -9    0.09    0.19
   4   1  -9    0.73    0.26
  -4  -1   9    0.66    0.11
  -4  -1   9    0.56    0.10
   4   2  -9   -0.06    0.18
  -4  -2   9    0.01    0.07
  -4  -2   9    0.01    0.10
   4   3  -9    0.75    0.27
  -4  -3   9    1.02    0.19
   4   4  -9   -0.14    0.23
  -4  -4   9    0.08    0.15
   4   5  -9    0.01    0.27
  -4  -5   9    0.03    0.17
   4   6  -9   -0.08    0.27
  -4  -6   9    0.11    0.18
   4   7  -9    0.18    0.32
  -4  -7   9   -0.15    0.18
   4   8  -9   -0.06    0.31
  -3   8   9    0.00    0.25
  -3   5   9    0.02    0.10
  -3   4   9    0.48    0.11
  -3   4   9    0.33    0.11
   3  -3  -9    0.17    0.15
   3  -3  -9    0.35    0.19
  -3   3   9    0.26    0.07
  -3   3   9    0.21    0.08
   3  -2  -9    1.88    0.29
   3  -2  -9    1.24    0.26
   3  -1  -9   -0.06    0.15
   3  -1  -9    0.12    0.17
   3   0  -9    2.46    0.34
   3   1  -9   -0.02    0.16
  -3  -1   9    0.06    0.06
  -3  -1   9   -0.01    0.08
   3   2  -9    0.22    0.20
  -3  -2   9    0.34    0.12
  -3  -2   9    0.19    0.08
   3   3  -9   -0.14    0.17
  -3  -3   9    0.08    0.08
  -3  -3   9    0.07    0.11
   3   4  -9    0.10    0.23
  -3  -4   9   -0.03    0.12
   3   5  -9    0.82    0.30
  -3  -5   9    0.74    0.20
   3   6  -9    0.12    0.26
  -3  -6   9    0.19    0.18
   3   7  -9    0.50    0.34
  -3  -7   9    0.25    0.22
   3   8  -9    0.18    0.34
  -3  -8   9    0.01    0.21
  -2   8   9    0.46    0.27
  -2   7   9    0.09    0.20
  -2   6   9    0.41    0.21
  -2   5   9   -0.08    0.13
  -2   4   9    0.10    0.11
  -2   4   9   -0.01    0.09
  -2   3   9    0.81    0.13
  -2   3   9    1.01    0.13
   2  -2  -9    0.32    0.17
   2  -1  -9    0.35    0.15
   2   0  -9   -0.26    0.12
  -2   0   9    0.09    0.06
  -2   0   9    0.13    0.05
  -2  -1   9    0.16    0.07
  -2  -1   9    0.17    0.09
  -2  -2   9    1.90    0.17
  -2  -2   9    1.45    0.18
   2   3  -9    0.10    0.11
  -2  -3   9    0.04    0.08
  -2  -3   9    0.08    0.12
  -2  -4   9    0.69    0.19
   2   5  -9    0.61    0.28
  -2  -5   9    0.69    0.21
   2   6  -9    0.37    0.30
  -2  -6   9    0.78    0.25
   2   7  -9    0.41    0.32
  -2  -7   9    0.22    0.21
   2   8  -9    0.69    0.35
  -2  -8   9    0.38    0.25
  -1   8   9   -0.20    0.21
  -1   7   9   -0.14    0.19
  -1   6   9   -0.07    0.16
  -1   5   9    0.04    0.15
  -1   4   9    0.49    0.13
  -1   4   9    0.51    0.16
  -1   3   9    0.25    0.09
  -1   3   9    0.21    0.11
  -1   2   9    1.99    0.16
  -1   2   9    2.10    0.18
  -1   1   9    3.55    0.19
  -1   1   9    3.32    0.20
   1   0  -9    0.30    0.13
  -1   0   9    0.38    0.08
  -1   0   9    0.31    0.10
  -1  -1   9    2.32    0.20
  -1  -1   9    2.52    0.18
   1   2  -9    3.31    0.19
  -1  -2   9    3.72    0.23
  -1  -2   9    4.01    0.28
   1   3  -9    6.97    0.33
  -1  -3   9    7.03    0.37
  -1  -3   9    7.13    0.41
  -1  -4   9    0.32    0.16
  -1  -5   9    0.12    0.16
  -1  -6   9    0.35    0.22
   1   7  -9    0.97    0.36
  -1  -7   9    2.23    0.38
   1   8  -9    0.40    0.34
  -1  -8   9    0.47    0.28
   0   8   9    0.40    0.29
   0   7   9   -0.12    0.22
   0   6   9    0.14    0.20
   0   5   9    0.48    0.18
   0   4   9    0.61    0.17
   0   3   9    1.04    0.17
   0   3   9    1.23    0.16
   0   2   9    8.60    0.37
   0   2   9    8.43    0.38
   0   1   9   -0.10    0.08
   0   1   9    0.01    0.07
   0   0   9    3.74    0.23
   0   0   9    3.85    0.25
   0   1  -9    0.18    0.08
   0  -1   9    0.05    0.11
   0  -1   9    0.15    0.08
   0   2  -9    6.18    0.31
   0  -2   9    6.05    0.36
   0  -2   9    6.14    0.33
   0   3  -9    1.90    0.21
   0  -3   9    1.66    0.23
   0   4  -9    3.96    0.33
   0  -4   9    2.60    0.31
   0  -5   9   -0.01    0.17
   0  -6   9    0.86    0.26
   0  -7   9   -0.14    0.22
   0   8  -9    0.78    0.36
   0  -8   9    1.03    0.35
   1   8   9    0.11    0.28
   1   7   9    0.08    0.23
   1   6   9    0.05    0.20
   1   5   9    0.04    0.16
   1   4   9    0.12    0.14
   1   3   9    1.15    0.20
  -1  -2  -9    0.60    0.10
   1   2   9    0.60    0.18
   1   2   9    0.52    0.13
   1   2   9    0.43    0.16
  -1  -1  -9    1.00    0.12
   1   1   9    0.86    0.16
   1   1   9    1.11    0.16
  -1   0  -9    0.41    0.09
   1   0   9    0.48    0.14
   1   0   9    0.65    0.13
  -1   1  -9    0.73    0.12
   1  -1   9    0.65    0.16
   1  -1   9    0.82    0.15
  -1   2  -9    0.10    0.08
   1  -2   9    0.02    0.13
  -1   3  -9    2.97    0.25
   1  -3   9    2.79    0.30
   1  -4   9    0.03    0.15
   1  -5   9    1.07    0.25
   1  -6   9    0.34    0.23
   1  -7   9    1.54    0.36
   2   7   9   -0.06    0.24
   2   6   9   -0.08    0.23
   2   5   9   -0.20    0.17
   2   4   9    0.06    0.15
   2   3   9   -0.02    0.15
   2   2   9    0.39    0.16
   2   2   9    0.21    0.15
  -2  -1  -9   -0.03    0.07
   2   1   9    0.05    0.14
  -2   0  -9    0.92    0.15
   2   0   9    1.01    0.19
  -2   1  -9    0.05    0.09
   2  -1   9    0.04    0.15
  -2   2  -9    1.29    0.18
   2  -2   9    1.31    0.23
  -2   3  -9   -0.08    0.09
   2  -3   9    0.02    0.15
   2  -4   9    2.99    0.37
   2  -5   9    0.46    0.23
   2  -6   9    2.21    0.38
   2  -7   9    0.06    0.26
   3   7   9    0.37    0.29
   3   6   9   -0.35    0.20
   3   5   9    1.43    0.31
   3   4   9    0.33    0.20
   3   3   9    1.10    0.24
   3   2   9    0.09    0.17
   3   1   9    5.63    0.44
   3   0   9    2.12    0.28
  -3   1  -9    7.58    0.46
   3  -1   9    7.91    0.51
   3  -2   9    0.42    0.20
   3  -3   9    3.12    0.37
   3  -4   9    1.13    0.28
   3  -5   9    4.92    0.50
   3  -6   9    1.44    0.35
   4   6   9    0.50    0.32
   4   5   9   -0.07    0.22
   4   4   9    4.89    0.49
   4   3   9    0.65    0.24
   4   2   9    1.93    0.31
   4   1   9    1.87    0.31
   4   0   9   14.96    0.74
   4  -1   9    3.32    0.40
   4  -2   9    3.86    0.43
   4  -3   9    0.51    0.24
   4  -4   9    6.43    0.60
   4  -5   9    1.46    0.33
   5   5   9    1.40    0.38
   5   4   9    0.97    0.32
   5   3   9    2.86    0.41
   5   2   9    1.77    0.34
   5   1   9    3.91    0.44
   5   0   9    0.93    0.29
   5  -1   9    4.01    0.45
   5  -2   9    1.83    0.37
   5  -3   9    4.49    0.51
   5  -4   9    0.79    0.32
   6   3   9    0.14    0.26
   6   2   9    2.63    0.41
   6   1   9    0.95    0.34
   6   0   9    1.77    0.37
   6  -1   9    0.40    0.29
   6  -2   9    3.21    0.48
   6  -3   9    0.70    0.33
  -9   2  10   18.96    0.78
  -9   1  10    0.11    0.15
  -9   0  10   29.35    1.06
  -9  -1  10    0.28    0.17
  -9  -2  10   23.55    0.94
   8  -4 -10    0.11    0.27
  -8   4  10    0.43    0.15
   8  -3 -10   25.67    1.23
  -8   3  10   23.06    0.86
  -8   2  10    0.10    0.13
  -8   1  10   38.57    1.23
  -8   0  10   -0.12    0.11
  -8  -1  10   37.95    1.24
  -8  -2  10    0.13    0.14
  -8  -3  10   31.07    1.14
  -8  -4  10    0.05    0.16
   7  -5 -10    0.23    0.29
  -7   5  10    0.55    0.16
   7  -4 -10   25.07    1.22
  -7   4  10   25.01    0.86
   7  -3 -10    0.37    0.27
  -7   3  10    0.41    0.13
  -7   2  10   45.40    1.34
  -7   1  10   -0.21    0.09
  -7   0  10   33.67    1.05
  -7  -1  10   -0.06    0.10
  -7  -2  10   44.24    1.38
  -7  -3  10    0.45    0.17
  -7  -4  10   28.43    1.09
  -7  -5  10    0.27    0.21
  -6   6  10    0.93    0.19
   6  -5 -10   21.19    1.10
  -6   5  10   21.35    0.77
   6  -4 -10   -0.30    0.19
  -6   4  10   -0.09    0.08
   6  -3 -10   51.94    1.88
  -6   3  10   51.18    1.45
  -6   2  10   -0.02    0.08
  -6   1  10   46.73    1.33
  -6   1  10   47.27    1.32
   6   0 -10    2.35    0.40
  -6   0  10    2.80    0.22
   6   1 -10   48.53    1.98
  -6  -1  10   46.06    1.37
   6   2 -10   -0.04    0.24
  -6  -2  10    0.03    0.10
   6   3 -10   61.34    2.44
  -6  -3  10   59.58    1.80
   6   4 -10   -0.14    0.25
  -6  -4  10    0.04    0.15
   6   5 -10   23.14    1.31
  -6  -5  10   21.56    0.94
  -6  -6  10    0.47    0.23
  -5   7  10    0.68    0.19
  -5   6  10   20.80    0.79
   5  -5 -10    0.61    0.29
  -5   5  10    0.80    0.16
   5  -4 -10   47.05    1.76
  -5   4  10   45.98    1.34
   5  -3 -10    0.24    0.17
   5  -3 -10    0.22    0.24
  -5   3  10    0.39    0.09
  -5   3  10    0.32    0.09
   5  -2 -10   59.80    2.07
   5  -2 -10   61.75    2.25
   5  -1 -10    2.22    0.38
   5   0 -10   78.21    2.84
  -5   0  10   76.67    2.07
  -5   0  10   79.44    2.08
   5   1 -10    1.79    0.36
  -5  -1  10    1.85    0.16
  -5  -1  10    1.97    0.18
   5   2 -10   61.91    2.43
  -5  -2  10   63.45    1.79
   5   3 -10   -0.08    0.20
  -5  -3  10   -0.02    0.12
   5   4 -10   56.08    2.26
  -5  -4  10   54.83    1.73
   5   5 -10   -0.11    0.27
  -5  -5  10    0.05    0.17
   5   6 -10   26.45    1.43
  -5  -6  10   25.34    1.08
   5   7 -10    0.17    0.34
  -5  -7  10    0.20    0.23
  -4   6  10    0.00    0.10
  -4   5  10   43.16    1.29
   4  -4 -10   -0.04    0.14
   4  -4 -10    0.21    0.23
  -4   4  10    0.05    0.08
  -4   4  10    0.01    0.08
   4  -3 -10   47.78    1.71
   4  -3 -10   48.17    1.79
  -4   3  10   47.60    1.29
   4  -2 -10    1.55    0.31
   4  -2 -10    1.60    0.31
   4  -1 -10   96.46    3.32
   4   0 -10    4.72    0.53
   4   1 -10   86.34    3.08
  -4  -1  10   87.17    2.32
  -4  -1  10   86.96    2.32
   4   2 -10    0.70    0.28
  -4  -2  10    1.35    0.17
  -4  -2  10    1.06    0.18
   4   3 -10   54.88    2.12
  -4  -3  10   50.91    1.58
   4   4 -10    1.29    0.36
  -4  -4  10    1.34    0.23
   4   5 -10   56.46    2.24
  -4  -5  10   52.45    1.74
   4   6 -10   -0.43    0.26
  -4  -6  10    0.45    0.21
   4   7 -10   17.06    1.16
  -4  -7  10   16.52    0.88
  -3   7  10    0.06    0.21
  -3   6  10   35.59    1.21
  -3   5  10    1.29    0.22
   3  -4 -10   53.01    1.88
  -3   4  10   52.76    1.49
  -3   4  10   52.16    1.49
   3  -3 -10    0.43    0.20
   3  -3 -10    1.16    0.29
  -3   3  10    0.67    0.10
   3  -2 -10   63.74    2.08
   3  -2 -10   65.28    2.33
   3  -1 -10    4.77    0.52
   3  -1 -10    5.77    0.42
   3   0 -10  149.65    4.91
   3   1 -10    6.56    0.60
  -3  -1  10    7.47    0.33
  -3  -1  10    7.30    0.29
   3   2 -10   62.96    2.39
  -3  -2  10   64.07    1.82
  -3  -2  10   65.12    1.79
   3   3 -10    0.71    0.26
  -3  -3  10    0.77    0.18
   3   4 -10   55.35    2.17
  -3  -4  10   54.03    1.69
   3   5 -10    7.78    0.77
  -3  -5  10    8.16    0.54
   3   6 -10   40.05    1.80
  -3  -6  10   40.20    1.44
   3   7 -10   -0.51    0.27
  -3  -7  10    0.21    0.22
  -2   8  10   -0.18    0.23
  -2   7  10   21.48    0.93
  -2   6  10    1.14    0.24
  -2   5  10   60.59    1.77
  -2   4  10   -0.10    0.11
  -2   4  10   -0.07    0.08
  -2   3  10   60.54    1.68
  -2   3  10   63.67    1.69
   2  -2 -10    1.01    0.23
   2  -1 -10  129.32    3.78
   2   0 -10    0.99    0.20
  -2   0  10    0.98    0.11
  -2   0  10    0.97    0.10
  -2  -1  10  119.52    3.12
  -2  -1  10  117.32    3.10
  -2  -2  10    1.15    0.15
  -2  -2  10    1.44    0.19
  -2  -3  10   66.27    1.92
  -2  -4  10    0.13    0.16
   2   5 -10   53.96    2.16
  -2  -5  10   53.31    1.74
   2   6 -10    0.79    0.34
  -2  -6  10    0.62    0.24
   2   7 -10   23.43    1.31
  -2  -7  10   22.38    1.04
  -1   8  10   15.36    0.86
  -1   7  10   -0.15    0.20
  -1   6  10   36.13    1.25
  -1   5  10    0.05    0.14
  -1   4  10   61.06    1.74
  -1   3  10    1.41    0.17
  -1   3  10    1.41    0.16
  -1   2  10  113.11    2.91
  -1   2  10  108.10    2.91
  -1   1  10   -0.02    0.06
  -1   1  10    0.03    0.08
   1   0 -10   85.47    2.55
  -1   0  10   88.37    2.32
  -1   0  10   87.12    2.33
  -1  -1  10    0.07    0.10
  -1  -1  10    0.06    0.07
  -1  -2  10  100.88    2.75
  -1  -2  10  102.64    2.78
  -1  -3  10    1.34    0.21
  -1  -4  10   52.88    1.66
  -1  -5  10   -0.04    0.16
  -1  -6  10   27.42    1.14
   1   7 -10    0.16    0.31
  -1  -7  10   -0.01    0.23
   0   7  10   24.94    1.06
   0   6  10    0.01    0.18
   0   5  10   29.14    1.03
   0   4  10    0.13    0.14
   0   3  10   73.76    2.06
   0   2  10    2.64    0.22
   0   2  10    2.29    0.23
   0   1  10   70.03    1.93
   0   0  10    0.32    0.13
   0   0  10    0.20    0.09
   0  -1  10   59.69    1.69
   0  -1  10   58.67    1.70
   0  -2  10    3.23    0.30
   0  -3  10   65.44    1.94
   0  -4  10    0.19    0.16
   0  -5  10   18.62    0.86
   0  -6  10    0.14    0.22
   0  -7  10   17.48    0.96
   1   7  10    0.17    0.25
   1   6  10   20.57    0.90
   1   5  10    0.29    0.19
   1   4  10   31.81    1.09
   1   3  10    1.30    0.22
   1   2  10   55.75    1.64
   1   1  10   -0.06    0.12
   1   0  10   35.94    1.14
   1  -1  10   -0.11    0.13
   1  -2  10   50.18    1.56
   1  -3  10    0.95    0.21
   1  -4  10   27.10    1.05
   1  -5  10   -0.16    0.17
   1  -6  10   16.08    0.87
   1  -7  10    0.50    0.29
   2   7  10   17.45    0.94
   2   6  10    0.16    0.22
   2   5  10   21.03    0.90
   2   4  10   -0.10    0.15
   2   3  10   37.12    1.25
   2   2  10   -0.08    0.16
   2   1  10   42.61    1.36
   2   0  10   -0.08    0.13
   2  -1  10   43.74    1.41
   2  -2  10    0.04    0.16
   2  -3  10   36.19    1.28
   2  -4  10   -0.28    0.17
   2  -5  10   19.69    0.95
   2  -6  10   -0.01    0.23
   3   6  10   15.37    0.86
   3   5  10    0.06    0.22
   3   4  10   28.90    1.12
   3   3  10    0.00    0.20
   3   2  10   29.42    1.09
   3   1  10    0.04    0.19
   3   0  10   49.41    1.60
   3  -1  10    1.25    0.27
   3  -2  10   28.64    1.10
   3  -3  10    0.00    0.19
   3  -4  10   24.53    1.07
   3  -5  10    0.22    0.24
   3  -6  10   12.72    0.87
   4   5  10   19.02    0.97
   4   4  10    0.68    0.26
   4   3  10   20.42    0.93
   4   2  10    0.52    0.25
   4   1  10   27.87    1.11
   4   0  10    1.28    0.29
   4  -1  10   24.82    1.05
   4  -2  10    0.24    0.23
   4  -3  10   16.49    0.87
   4  -4  10    0.01    0.24
   4  -5  10    9.41    0.75
   5   4  10   12.50    0.80
   5   3  10   -0.14    0.23
   5   2  10   13.30    0.80
   5   1  10   -0.07    0.21
   5   0  10   14.39    0.81
   5  -1  10    0.01    0.24
   5  -2  10   10.79    0.74
   5  -3  10   -0.13    0.24
   6   1  10    9.28    0.73
   6   0  10   -0.05    0.27
   8  -3 -11    1.40    0.39
  -8   3  11    0.97    0.18
  -8   2  11    0.71    0.16
  -8   1  11    1.59    0.21
  -8   0  11    0.59    0.16
  -8  -1  11    1.63    0.23
  -8  -2  11    0.25    0.15
  -8  -3  11    1.29    0.25
   7  -5 -11    0.57    0.31
  -7   5  11    0.99    0.18
   7  -4 -11    1.58    0.41
  -7   4  11    1.53    0.20
   7  -3 -11    0.58    0.29
  -7   3  11    0.56    0.13
  -7   2  11    0.94    0.15
  -7   1  11    0.31    0.11
  -7   0  11    1.54    0.19
  -7  -1  11    0.47    0.14
  -7  -2  11    1.57    0.22
  -7  -3  11    0.08    0.13
  -7  -4  11    0.50    0.21
  -7  -5  11   -0.19    0.15
  -6   6  11    0.10    0.12
   6  -5 -11    1.05    0.35
  -6   5  11    1.23    0.20
   6  -4 -11    0.09    0.24
  -6   4  11    0.13    0.10
   6  -3 -11    1.92    0.37
  -6   3  11    2.36    0.18
   6  -2 -11   -0.19    0.21
  -6   2  11    0.19    0.09
   6  -1 -11    1.79    0.38
  -6   1  11    1.86    0.16
  -6   1  11    1.85    0.17
   6   0 -11   -0.03    0.19
  -6   0  11    0.19    0.09
   6   1 -11    3.46    0.51
  -6  -1  11    3.41    0.25
   6   2 -11    0.03    0.23
  -6  -2  11    0.18    0.12
   6   3 -11    0.64    0.32
  -6  -3  11    0.67    0.18
   6   4 -11   -0.17    0.26
  -6  -4  11    0.03    0.15
   6   5 -11    0.68    0.36
  -6  -5  11    0.66    0.23
   6   6 -11   -0.08    0.29
  -5   6  11    0.21    0.13
  -5   5  11    0.54    0.14
   5  -4 -11    0.84    0.30
  -5   4  11    1.36    0.16
   5  -3 -11    0.37    0.19
   5  -3 -11    0.31    0.23
   5  -2 -11    2.40    0.38
   5  -2 -11    2.23    0.35
   5  -1 -11    0.36    0.23
   5   0 -11    1.11    0.33
   5   1 -11   -0.09    0.20
  -5  -1  11    0.25    0.09
  -5  -1  11    0.13    0.08
   5   2 -11    1.02    0.36
  -5  -2  11    1.09    0.17
   5   3 -11   -0.11    0.24
  -5  -3  11    0.04    0.12
   5   4 -11    0.56    0.30
  -5  -4  11    0.61    0.19
   5   5 -11   -0.28    0.25
  -5  -5  11   -0.03    0.16
   5   6 -11   -0.10    0.30
  -5  -6  11    0.07    0.20
  -4   7  11   -0.14    0.19
  -4   6  11   -0.27    0.15
   4  -4 -11    0.84    0.23
   4  -4 -11    1.23    0.32
   4  -3 -11    0.69    0.25
   4  -3 -11    0.35    0.19
   4  -2 -11    0.56    0.23
   4  -2 -11    0.54    0.22
   4  -1 -11    0.21    0.18
   4  -1 -11    0.18    0.20
   4   0 -11    0.11    0.20
   4   1 -11    0.47    0.24
  -4  -1  11    0.52    0.10
  -4  -1  11    0.74    0.12
   4   2 -11    0.22    0.23
  -4  -2  11    0.19    0.12
   4   3 -11    0.00    0.23
  -4  -3  11    0.04    0.13
   4   4 -11   -0.16    0.24
  -4  -4  11    0.15    0.16
   4   5 -11   -0.20    0.27
  -4  -5  11    0.10    0.17
   4   6 -11    0.13    0.32
  -4  -6  11   -0.09    0.18
   4   7 -11   -0.03    0.33
  -3   7  11    0.27    0.21
  -3   6  11    0.23    0.18
  -3   5  11    0.10    0.14
   3  -4 -11    0.01    0.15
  -3   4  11    0.00    0.10
   3  -3 -11    0.06    0.17
   3  -3 -11    0.12    0.19
   3  -2 -11    0.43    0.23
   3  -2 -11    0.46    0.21
   3  -1 -11    0.12    0.17
   3   0 -11    0.10    0.16
  -3  -1  11    0.42    0.12
  -3  -1  11    0.58    0.09
   3   2 -11    0.16    0.24
  -3  -2  11    0.34    0.13
   3   3 -11   -0.37    0.18
  -3  -3  11   -0.18    0.12
   3   4 -11    0.19    0.27
  -3  -4  11    0.81    0.20
   3   5 -11    1.45    0.38
  -3  -5  11    0.94    0.25
   3   6 -11    0.34    0.31
  -3  -6  11    0.01    0.18
   3   7 -11   -0.18    0.31
  -3  -7  11    0.35    0.23
  -2   7  11    0.39    0.22
  -2   6  11   -0.17    0.16
  -2   5  11    0.11    0.15
  -2   4  11    0.57    0.14
  -2   3  11    0.43    0.10
  -2   3  11    0.39    0.10
   2  -1 -11    0.28    0.18
   2   0 -11    2.35    0.28
  -2   0  11    2.41    0.18
  -2   0  11    2.29    0.16
   2   1 -11    0.34    0.16
  -2  -1  11    0.41    0.10
  -2  -1  11    0.42    0.12
  -2  -2  11    0.38    0.14
  -2  -3  11   -0.10    0.12
  -2  -4  11    0.65    0.20
   2   5 -11    0.66    0.31
  -2  -5  11    1.06    0.25
   2   6 -11    0.47    0.32
  -2  -6  11    0.38    0.24
   2   7 -11    0.34    0.36
  -2  -7  11    0.11    0.22
  -1   7  11    0.09    0.23
  -1   6  11    0.26    0.19
  -1   5  11    0.17    0.15
  -1   4  11    0.21    0.13
  -1   3  11   -0.02    0.10
  -1   3  11    0.07    0.08
  -1   2  11    0.00    0.07
  -1   2  11   -0.10    0.09
  -1   1  11    0.06    0.07
  -1   1  11   -0.03    0.09
  -1   0  11    0.43    0.10
  -1   0  11    0.20    0.11
  -1  -1  11    0.55    0.14
  -1  -1  11    0.61    0.12
  -1  -2  11    0.48    0.15
  -1  -3  11   -0.18    0.12
  -1  -4  11    0.20    0.18
  -1  -5  11    0.22    0.19
  -1  -6  11    0.36    0.23
   1   7 -11    0.26    0.32
  -1  -7  11    0.49    0.29
   0   7  11   -0.06    0.22
   0   6  11    0.02    0.19
   0   5  11    0.01    0.15
   0   4  11    0.00    0.13
   0   3  11    0.31    0.14
   0   2  11   -0.05    0.11
   0   1  11    0.07    0.12
   0   0  11    0.30    0.15
   0  -1  11    0.12    0.13
   0  -2  11    0.03    0.13
   0  -3  11    0.95    0.21
   0  -4  11   -0.06    0.16
   0  -5  11    0.02    0.19
   0  -6  11    0.33    0.24
   0  -7  11    1.21    0.36
   1   7  11   -0.18    0.22
   1   6  11   -0.23    0.18
   1   5  11   -0.29    0.15
   1   4  11    0.07    0.16
   1   3  11    0.21    0.17
   1   2  11    0.75    0.20
   1   1  11    0.01    0.13
   1   0  11    0.07    0.14
   1  -1  11    0.53    0.18
   1  -2  11    3.22    0.33
   1  -3  11    1.08    0.23
   1  -4  11    1.28    0.27
   1  -5  11    0.34    0.23
   1  -6  11    1.15    0.32
   2   6  11    0.47    0.25
   2   5  11    0.13    0.21
   2   4  11    0.23    0.21
   2   3  11    1.36    0.26
   2   2  11    3.11    0.33
   2   1  11    3.12    0.33
   2   0  11    0.55    0.21
   2  -1  11    2.93    0.34
   2  -2  11    3.77    0.37
   2  -3  11    5.65    0.50
   2  -4  11    0.93    0.26
   2  -5  11    1.72    0.36
   2  -6  11    0.68    0.31
   3   5  11    0.22    0.24
   3   4  11    2.07    0.35
   3   3  11    0.78    0.25
   3   2  11    3.08    0.36
   3   1  11    1.48    0.28
   3   0  11    5.77    0.49
   3  -1  11    1.40    0.29
   3  -2  11    3.50    0.40
   3  -3  11    0.96    0.27
   3  -4  11    3.21    0.44
   3  -5  11    1.19    0.34
   4   4  11    0.10    0.25
   4   3  11    1.64    0.33
   4   2  11    0.69    0.26
   4   1  11    2.63    0.36
   4   0  11    1.10    0.30
   4  -1  11    3.82    0.44
   4  -2  11    0.56    0.26
   4  -3  11    1.67    0.36
   4  -4  11    0.56    0.30
   5   2  11    1.35    0.34
   5   1  11    0.55    0.28
   5   0  11    2.27    0.40
   5  -1  11    0.70    0.30
   5  -2  11    1.03    0.34
   8  -2 -12   21.59    1.15
  -8   2  12   21.71    0.74
  -8   1  12    0.12    0.12
  -8   0  12   27.96    0.93
  -8  -1  12   -0.11    0.11
  -8  -2  12   20.75    0.80
   7  -4 -12    0.69    0.33
  -7   4  12    0.78    0.15
   7  -3 -12   21.87    1.12
  -7   3  12   21.59    0.70
   7  -2 -12    0.36    0.27
  -7   2  12    0.19    0.09
  -7   1  12   27.23    0.83
  -7   0  12    0.47    0.13
  -7  -1  12   30.61    0.98
  -7  -2  12    0.07    0.11
  -7  -3  12   21.89    0.85
  -7  -4  12    0.51    0.20
   6  -5 -12    1.56    0.41
  -6   5  12    1.48    0.20
   6  -4 -12   22.62    1.14
  -6   4  12   23.02    0.74
   6  -3 -12    0.04    0.24
   6  -2 -12   48.38    1.93
   6  -2 -12   45.29    1.75
   6  -1 -12    1.41    0.35
   6   0 -12   34.66    1.63
   6   1 -12    0.40    0.27
  -6  -1  12    0.37    0.11
   6   2 -12   53.39    2.24
  -6  -2  12   51.02    1.53
   6   3 -12   -0.05    0.26
  -6  -3  12    0.21    0.13
   6   4 -12   25.51    1.45
  -6  -4  12   25.34    0.99
   6   5 -12    0.60    0.35
  -6  -5  12    0.64    0.22
   5  -4 -12    0.17    0.25
   5  -4 -12    0.00    0.17
   5  -3 -12   56.78    2.04
   5  -3 -12   57.65    2.17
   5  -2 -12   -0.14    0.19
   5  -2 -12   -0.12    0.18
   5  -1 -12   50.28    2.07
   5  -1 -12   52.08    1.83
   5   0 -12    0.88    0.31
   5   1 -12   48.52    2.07
  -5  -1  12   50.22    1.39
   5   2 -12    0.50    0.31
  -5  -2  12    0.33    0.13
   5   3 -12   67.17    2.61
  -5  -3  12   62.66    1.91
   5   4 -12   -0.03    0.29
  -5  -4  12   -0.27    0.11
   5   5 -12   20.23    1.25
  -5  -5  12   18.92    0.87
   5   6 -12   -0.05    0.32
  -4   6  12   16.51    0.70
  -4   5  12    0.02    0.14
   4  -4 -12   42.94    1.68
   4  -3 -12    0.91    0.27
   4  -3 -12    1.35    0.31
   4  -2 -12   51.57    2.04
   4  -2 -12   52.66    1.82
   4  -1 -12   -0.07    0.19
   4  -1 -12    0.09    0.18
   4   0 -12   64.83    2.49
   4   1 -12    0.18    0.25
  -4  -1  12    0.22    0.07
  -4  -1  12    0.35    0.11
   4   2 -12   53.96    2.18
  -4  -2  12   52.47    1.55
   4   3 -12    0.89    0.36
  -4  -3  12    0.74    0.20
   4   4 -12   41.64    1.85
  -4  -4  12   40.26    1.37
   4   5 -12   -0.03    0.30
  -4  -5  12    0.42    0.21
   4   6 -12   18.24    1.23
  -4  -6  12   19.03    0.90
  -3   6  12   -0.14    0.17
  -3   5  12   37.04    1.15
   3  -4 -12    0.27    0.20
  -3   4  12    0.41    0.11
   3  -3 -12   39.66    1.64
   3  -2 -12   -0.23    0.17
   3  -2 -12    0.19    0.20
   3  -1 -12   68.62    2.20
   3   0 -12    2.79    0.34
  -3  -1  12   62.06    1.71
  -3  -1  12   60.12    1.67
   3   2 -12   -0.31    0.17
  -3  -2  12   -0.04    0.12
   3   3 -12   35.99    1.65
  -3  -3  12   35.32    1.19
   3   4 -12    0.03    0.28
  -3  -4  12    0.71    0.21
   3   5 -12   32.40    1.60
  -3  -5  12   31.25    1.19
   3   6 -12   -0.58    0.28
  -3  -6  12    0.11    0.20
  -2   6  12   26.58    0.98
  -2   5  12    0.53    0.16
  -2   4  12   39.05    1.16
  -2   3  12    1.26    0.14
  -2   3  12    0.81    0.13
  -2   2  12   46.65    1.27
  -2   1  12    0.36    0.09
  -2   1  12    0.11    0.08
   2   0 -12   82.85    2.51
  -2   0  12   85.57    2.21
  -2   0  12   79.68    2.21
   2   1 -12   -0.04    0.13
  -2  -1  12    0.19    0.11
  -2  -2  12   40.56    1.25
  -2  -3  12    0.67    0.18
  -2  -4  12   34.66    1.23
   2   5 -12    0.42    0.29
  -2  -5  12    0.40    0.23
   2   6 -12   19.09    1.24
  -2  -6  12   19.50    0.95
  -1   6  12    0.05    0.17
  -1   5  12   30.44    1.04
  -1   4  12   -0.04    0.12
  -1   3  12   31.36    0.98
  -1   2  12    0.05    0.11
  -1   1  12   56.47    1.59
  -1   0  12    0.08    0.11
  -1  -1  12   45.06    1.35
  -1  -2  12    0.20    0.14
  -1  -3  12   31.44    1.10
  -1  -4  12    0.24    0.18
  -1  -5  12   24.44    1.03
  -1  -6  12   -0.25    0.19
   0   6  12   16.28    0.78
   0   5  12   -0.37    0.14
   0   4  12   24.79    0.89
   0   3  12   -0.17    0.12
   0   2  12   34.15    1.09
   0   1  12   -0.27    0.11
   0   0  12   35.09    1.12
   0  -1  12   -0.01    0.13
   0  -2  12   32.85    1.12
   0  -3  12    0.06    0.16
   0  -4  12   22.55    0.95
   0  -5  12    0.25    0.21
   0  -6  12   12.77    0.79
   1   6  12   -0.23    0.19
   1   5  12   17.27    0.79
   1   4  12    0.09    0.17
   1   3  12   31.02    1.08
   1   2  12    0.85    0.22
   1   1  12   32.42    1.10
   1   0  12    0.06    0.16
   1  -1  12   29.83    1.06
   1  -2  12    1.62    0.26
   1  -3  12   32.24    1.20
   1  -4  12    0.56    0.24
   1  -5  12   14.37    0.83
   2   5  12   -0.19    0.19
   2   4  12   21.71    0.92
   2   3  12    0.44    0.24
   2   2  12   34.46    1.22
   2   1  12    0.25    0.19
   2   0  12   30.67    1.12
   2  -1  12    0.36    0.22
   2  -2  12   31.71    1.19
   2  -3  12    0.08    0.21
   2  -4  12   17.91    0.92
   2  -5  12   -0.10    0.25
   3   4  12   -0.36    0.19
   3   3  12   19.21    0.89
   3   2  12    0.02    0.21
   3   1  12   20.70    0.92
   3   0  12    0.02    0.22
   3  -1  12   19.80    0.93
   3  -2  12   -0.19    0.19
   3  -3  12   12.61    0.77
   3  -4  12    0.11    0.25
   4   3  12   -0.01    0.23
   4   2  12    8.56    0.65
   4   1  12   -0.32    0.19
   4   0  12   11.45    0.74
   4  -1  12   -0.26    0.22
   4  -2  12    6.97    0.64
   7  -3 -13    1.44    0.38
   7  -2 -13    0.02    0.21
  -7   0  13    0.02    0.09
   7   1 -13    1.42    0.43
  -7  -1  13    1.34    0.18
   7   2 -13    0.17    0.27
  -7  -2  13    0.20    0.12
   7   3 -13    0.46    0.32
  -7  -3  13    1.00    0.22
   6  -4 -13    1.42    0.37
   6  -3 -13   -0.13    0.20
   6  -2 -13    1.09    0.33
   6  -2 -13    1.49    0.35
   6  -1 -13   -0.12    0.20
   6  -1 -13    0.34    0.25
   6   0 -13    0.95    0.35
   6   1 -13    0.00    0.23
  -6  -1  13    0.08    0.09
   6   2 -13    0.45    0.32
  -6  -2  13    0.46    0.15
   6   3 -13    0.19    0.30
  -6  -3  13   -0.02    0.12
   6   4 -13    0.11    0.32
  -6  -4  13    1.00    0.23
   5  -4 -13    0.38    0.27
   5  -3 -13    0.68    0.29
   5  -3 -13    0.36    0.23
   5  -2 -13   -0.08    0.20
   5  -2 -13    0.01    0.21
   5  -1 -13    0.39    0.27
   5  -1 -13    1.02    0.26
   5   0 -13    0.01    0.23
   5   1 -13    0.43    0.27
  -5  -1  13    0.53    0.11
   5   2 -13   -0.04    0.28
  -5  -2  13   -0.12    0.10
   5   3 -13   -0.21    0.24
  -5  -3  13   -0.02    0.13
   5   4 -13   -0.15    0.29
  -5  -4  13   -0.17    0.13
   5   5 -13    0.08    0.31
  -5  -5  13    0.23    0.19
   4  -4 -13    0.35    0.21
   4  -3 -13   -0.25    0.17
   4  -3 -13    0.02    0.19
   4  -2 -13   -0.06    0.18
   4  -2 -13    0.12    0.20
   4  -1 -13    0.19    0.22
   4  -1 -13   -0.10    0.16
   4   0 -13    0.08    0.17
   4   0 -13    0.08    0.21
   4   1 -13    0.03    0.22
  -4  -1  13   -0.11    0.09
   4   2 -13    0.01    0.25
  -4  -2  13    0.16    0.13
   4   3 -13    0.08    0.25
  -4  -3  13    0.14    0.15
   4   4 -13    0.05    0.26
  -4  -4  13    0.17    0.17
   4   5 -13    0.39    0.33
  -4  -5  13    0.19    0.19
  -3   6  13   -0.13    0.15
  -3   5  13    0.40    0.13
   3  -4 -13   -0.01    0.18
   3  -3 -13   -0.04    0.18
   3  -1 -13   -0.07    0.16
   3   0 -13    0.20    0.17
   3   1 -13    0.16    0.15
  -3  -1  13    0.08    0.10
   3   2 -13    0.25    0.23
  -3  -2  13    0.04    0.11
   3   3 -13   -0.13    0.21
  -3  -3  13    0.09    0.15
   3   4 -13    0.23    0.27
  -3  -4  13   -0.16    0.14
   3   5 -13    0.18    0.29
  -3  -5  13    0.16    0.18
  -2   6  13    0.17    0.17
  -2   5  13    0.16    0.14
  -2   4  13    0.18    0.11
  -2   3  13    0.01    0.09
  -2   1  13    0.11    0.09
  -2   1  13    0.28    0.08
  -2   0  13    0.13    0.09
  -2  -1  13    0.08    0.11
  -2  -2  13    0.00    0.12
  -2  -3  13    0.13    0.14
  -2  -4  13    0.07    0.17
   2   5 -13    0.23    0.28
  -2  -5  13    0.13    0.21
  -1   6  13   -0.10    0.18
  -1   5  13   -0.16    0.13
  -1   4  13    0.04    0.12
  -1   3  13    0.21    0.13
  -1   2  13    0.04    0.11
  -1   1  13    0.17    0.12
  -1   0  13    0.23    0.13
  -1  -1  13    0.05    0.11
  -1  -2  13    0.02    0.13
  -1  -3  13    0.45    0.19
  -1  -4  13    0.19    0.19
  -1  -5  13    0.52    0.24
   0   5  13   -0.02    0.16
   0   4  13    0.64    0.19
   0   3  13    0.29    0.16
   0   2  13    0.22    0.14
   0   1  13    0.16    0.14
   0   0  13    1.75    0.24
   0  -1  13    0.70    0.19
   0  -2  13    0.85    0.20
   0  -3  13    0.44    0.20
   0  -4  13    2.19    0.35
   0  -5  13    0.66    0.26
   1   5  13    0.31    0.22
   1   4  13    0.76    0.24
   1   3  13    1.00    0.24
   1   2  13    1.04    0.23
   1   1  13    1.35    0.23
   1   0  13    0.88    0.22
   1  -1  13    1.55    0.27
   1  -2  13    1.88    0.30
   1  -3  13    2.86    0.38
   1  -4  13    0.85    0.29
   2   4  13    0.28    0.23
   2   3  13    1.03    0.26
   2   2  13    1.29    0.27
   2   1  13    0.25    0.20
   2   0  13    1.15    0.28
   2  -1  13    0.77    0.24
   2  -2  13    2.40    0.35
   2  -3  13    0.74    0.29
   3   3  13    1.25    0.30
   3   2  13    0.24    0.23
   3   1  13    1.11    0.28
   3   0  13    0.28    0.25
   3  -1  13    1.37    0.31
   3  -2  13    0.08    0.23
   7  -1 -14   -0.15    0.22
   7   0 -14   21.01    1.28
   7   1 -14   -0.31    0.23
  -7  -1  14    0.03    0.10
   6  -3 -14   20.47    1.13
   6  -3 -14   20.56    1.09
   6  -2 -14    0.03    0.23
   6  -2 -14   -0.01    0.23
   6  -1 -14   27.47    1.23
   6  -1 -14   28.80    1.47
   6   0 -14    0.08    0.24
   6   1 -14   25.84    1.44
   6   2 -14    0.54    0.34
  -6  -2  14    0.18    0.12
   6   3 -14   24.09    1.40
  -6  -3  14   21.12    0.83
   5  -3 -14    0.13    0.23
   5  -3 -14    0.50    0.27
   5  -2 -14   31.46    1.33
   5  -2 -14   31.55    1.52
   5  -1 -14    0.23    0.21
   5  -1 -14   -0.15    0.19
   5   0 -14   26.58    1.13
   5   0 -14   24.85    1.37
   5   1 -14    0.45    0.29
   5   2 -14   31.92    1.62
  -5  -2  14   31.01    1.00
   5   3 -14    0.73    0.38
  -5  -3  14    0.63    0.18
   5   4 -14   16.38    1.17
  -5  -4  14   14.99    0.72
   4  -3 -14   27.57    1.34
   4  -2 -14    0.56    0.25
   4  -2 -14    0.17    0.25
   4  -1 -14   21.57    1.23
   4  -1 -14   23.94    1.03
   4   0 -14   -0.30    0.15
   4   0 -14    0.32    0.25
   4   1 -14   23.15    1.00
   4   1 -14   23.99    1.33
  -4  -1  14   24.85    0.77
   4   2 -14    1.09    0.35
  -4  -2  14    0.98    0.19
   4   3 -14   22.26    1.31
  -4  -3  14   21.86    0.85
   4   4 -14    0.59    0.33
  -4  -4  14    0.13    0.17
  -3   5  14   -0.08    0.10
   3  -4 -14   18.91    1.05
   3  -3 -14    0.25    0.22
   3  -1 -14   -0.15    0.17
   3   0 -14   22.57    0.94
   3   1 -14    0.20    0.17
  -3  -1  14    0.34    0.13
   3   2 -14   24.63    1.34
  -3  -2  14   23.87    0.86
   3   3 -14    0.03    0.24
  -3  -3  14    0.06    0.15
   3   4 -14   13.30    1.05
  -3  -4  14   13.73    0.69
  -2   5  14   16.64    0.65
  -2   4  14   -0.07    0.10
  -2   1  14   25.97    0.79
  -2   0  14    0.10    0.10
  -2  -1  14   25.93    0.87
  -2  -2  14    0.07    0.13
  -2  -3  14   17.90    0.76
  -2  -4  14    0.15    0.19
  -1   5  14    0.18    0.16
  -1   4  14   17.79    0.69
  -1   3  14    0.05    0.12
  -1   2  14   19.11    0.68
  -1   1  14    0.38    0.14
  -1   0  14   28.06    0.93
  -1  -1  14    0.59    0.17
  -1  -2  14   17.25    0.73
  -1  -3  14    0.57    0.21
  -1  -4  14   15.32    0.78
   0   4  14    0.24    0.19
   0   3  14   16.65    0.70
   0   2  14    0.35    0.17
   0   1  14   25.19    0.91
   0   0  14    1.71    0.24
   0  -1  14   18.16    0.76
   0  -2  14    0.98    0.22
   0  -3  14   15.51    0.77
   0  -4  14    0.81    0.28
   1   4  14   14.00    0.70
   1   3  14    0.75    0.23
   1   2  14   18.77    0.80
   1   1  14    0.85    0.23
   1  -1  14    0.47    0.21
   1  -2  14   15.67    0.78
   1  -3  14    0.56    0.25
   2   2  14    0.19    0.21
   2   1  14   12.43    0.70
   2   0  14   -0.07    0.19
   2  -1  14   10.39    0.66
   2  -2  14    0.21    0.24
   6  -1 -15    0.24    0.24
   6  -1 -15    0.11    0.26
   6   0 -15    0.05    0.21
   6   0 -15   -0.10    0.24
   6   1 -15   -0.12    0.25
   5  -2 -15   -0.21    0.20
   5  -2 -15   -0.18    0.22
   5  -1 -15    0.16    0.27
   5  -1 -15    0.05    0.21
   5   0 -15   -0.14    0.22
   5   0 -15   -0.10    0.18
   5   1 -15    0.26    0.21
   5   1 -15   -0.05    0.24
   5   2 -15   -0.13    0.25
  -5  -2  15    0.01    0.10
   4  -3 -15    0.17    0.23
   4  -2 -15   -0.34    0.18
   4  -1 -15   -0.07    0.22
   4  -1 -15    0.14    0.21
   4   0 -15    0.18    0.26
   4   0 -15    0.16    0.20
   4   1 -15    0.25    0.27
   4   2 -15   -0.15    0.25
  -4  -2  15   -0.02    0.12
   4   3 -15   -0.04    0.28
  -4  -3  15    0.16    0.16
   3  -3 -15    0.15    0.24
   3  -2 -15    0.24    0.24
  -3  -1  15    0.03    0.11
   3   2 -15    0.21    0.26
  -3  -2  15    0.18    0.14
   3   3 -15    0.00    0.26
  -3  -3  15   -0.01    0.13
  -2   1  15    0.16    0.09
  -2   0  15   -0.17    0.09
  -2  -1  15    0.24    0.13
  -2  -2  15   -0.11    0.13
  -2  -3  15    0.17    0.17
  -1   3  15   -0.02    0.13
  -1   2  15    0.49    0.15
  -1   1  15    0.30    0.14
  -1   0  15    1.33    0.20
  -1  -1  15    0.14    0.14
  -1  -2  15    1.01    0.23
  -1  -3  15    0.17    0.18
   0   3  15    0.45    0.19
   0   2  15   -0.03    0.15
   0   1  15    1.28    0.23
   0   0  15    0.42    0.18
   0  -1  15    1.15    0.24
   0  -2  15    0.32    0.20
   1   1  15   -0.01    0.18
   1   0  15    1.01    0.25
   4  -1 -16   -0.44    0.22
   4   0 -16   10.91    0.94
   3  -1 -16   12.80    0.98
   3   0 -16    0.47    0.30
   3   1 -16   13.34    1.04
  -3  -1  16   13.80    0.56
  -2   0  16   14.66    0.57
  -2  -1  16    1.00    0.19
   0   0   0    0.00    0.00
;
_shelx_hkl_checksum              28746
loop_
_space_group_symop_operation_xyz
'x, y, z'
'-x, y, -z'
'-x, -y, -z'
'x, -y, z'
loop_
_atom_site_label
_atom_site_type_symbol
_atom_site_fract_x
_atom_site_fract_y
_atom_site_fract_z
_atom_site_U_iso_or_equiv
_atom_site_adp_type
_atom_site_occupancy
_atom_site_site_symmetry_order
_atom_site_calc_flag
_atom_site_refinement_flags_posn
_atom_site_refinement_flags_adp
_atom_site_refinement_flags_occupancy
_atom_site_disorder_assembly
_atom_site_disorder_group
Pd1 Pd 0.0000 0.0000 0.5000 0.0341(2) Uani 1 4 d S T P . .
Pd2 Pd 0.0000 0.0000 0.0000 0.0372(2) Uani 1 4 d S T P . .
Ru3 Ru 0.51206(7) 0.5000 0.25282(5) 0.03193(18) Uani 1 2 d S T P A .
O1 O 0.6835(8) 0.5000 0.3951(5) 0.066(3) Uani 1 2 d S T P . .
H1 H 0.6398 0.5426 0.4419 0.079 Uiso 0.5 1 calc R U P . .
N34 N 0.3721(8) 0.3139(9) 0.3133(5) 0.0538(14) Uani 1 1 d . . . . .
N33 N 0.6616(7) 0.3129(10) 0.2022(5) 0.0557(16) Uani 1 1 d . . . . .
N35 N 0.3521(11) 0.5000 0.1244(6) 0.056(2) Uani 1 2 d S T P . .
O351 O 0.2374(13) 0.5000 0.0475(7) 0.120(5) Uani 1 2 d S T P A .
N11 N -0.2688(10) 0.0000 0.4738(8) 0.071(3) Uani 1 2 d S T P . .
H11A H -0.3125 0.0990 0.4429 0.107 Uiso 0.5 1 calc R U P . .
H11B H -0.2957 -0.0129 0.5385 0.107 Uiso 0.5 1 calc R U P . .
H11C H -0.3150 -0.0861 0.4286 0.107 Uiso 0.5 1 calc R U P . .
N22 N 0.2691(10) 0.0000 0.0431(7) 0.053(2) Uani 1 2 d S T P . .
H22A H 0.3090 -0.0262 0.1149 0.080 Uiso 0.5 1 calc R U P . .
H22B H 0.3080 0.1036 0.0309 0.080 Uiso 0.5 1 calc R U P . .
H22C H 0.3077 -0.0774 0.0025 0.080 Uiso 0.5 1 calc R U P . .
N21 N -0.0041(11) 0.0000 0.1627(6) 0.058(2) Uani 1 2 d S T P . .
H21A H -0.0944 0.0632 0.1708 0.087 Uiso 0.5 1 calc R U P . .
H21B H 0.0964 0.0439 0.2040 0.087 Uiso 0.5 1 calc R U P . .
H21C H -0.0161 -0.1071 0.1844 0.087 Uiso 0.5 1 calc R U P . .
N12 N 0.0000 -0.2539(13) 0.5000 0.078(3) Uani 1 2 d S T P . .
H12A H 0.1105 -0.2920 0.5140 0.116 Uiso 0.5 1 calc R U P . .
H12B H -0.0613 -0.2920 0.4338 0.116 Uiso 0.5 1 calc R U P . .
H12C H -0.0492 -0.2920 0.5522 0.116 Uiso 0.5 1 calc R U P . .
O342 O 0.399(2) 0.283(2) 0.4123(11) 0.113(5) Uani 0.597(18) 1 d . . P A 2
O341 O 0.250(2) 0.247(2) 0.2529(10) 0.113(5) Uani 0.597(18) 1 d . U P A 2
O332 O 0.5951(15) 0.226(2) 0.1202(13) 0.099(4) Uani 0.63(3) 1 d . . P A 1
O331 O 0.8212(15) 0.303(3) 0.2462(11) 0.099(4) Uani 0.63(3) 1 d . U P A 1
O343 O 0.386(3) 0.161(3) 0.2957(17) 0.100(6) Uani 0.403(18) 1 d . U P A 1
O344 O 0.267(3) 0.346(3) 0.3620(16) 0.100(6) Uani 0.403(18) 1 d . . P A 1
O333 O 0.748(4) 0.201(4) 0.2646(16) 0.103(7) Uani 0.37(3) 1 d . U P A 2
O334 O 0.660(4) 0.283(4) 0.113(2) 0.103(7) Uani 0.37(3) 1 d . . P A 2
loop_
_atom_site_aniso_label
_atom_site_aniso_U_11
_atom_site_aniso_U_22
_atom_site_aniso_U_33
_atom_site_aniso_U_23
_atom_site_aniso_U_13
_atom_site_aniso_U_12
Pd1 0.0300(4) 0.0319(5) 0.0420(5) 0.000 0.0121(3) 0.000
Pd2 0.0371(4) 0.0337(6) 0.0485(5) 0.000 0.0248(4) 0.000
Ru3 0.0333(3) 0.0324(4) 0.0312(3) 0.000 0.0104(2) 0.000
O1 0.041(3) 0.118(8) 0.037(3) 0.000 0.007(2) 0.000
N34 0.063(3) 0.039(4) 0.065(4) -0.005(3) 0.027(3) -0.012(3)
N33 0.060(3) 0.065(5) 0.046(3) -0.005(3) 0.022(2) 0.015(3)
N35 0.058(4) 0.066(7) 0.042(4) 0.000 0.009(3) 0.000
O351 0.087(6) 0.189(15) 0.059(5) 0.000 -0.024(5) 0.000
N11 0.038(4) 0.097(9) 0.082(6) 0.000 0.020(4) 0.000
N22 0.050(4) 0.055(6) 0.063(5) 0.000 0.027(4) 0.000
N21 0.056(4) 0.076(7) 0.052(4) 0.000 0.030(4) 0.000
N12 0.068(5) 0.030(5) 0.111(7) 0.000 -0.017(5) 0.000
O342 0.125(7) 0.105(7) 0.105(6) 0.011(5) 0.023(5) -0.051(6)
O341 0.125(7) 0.105(7) 0.105(6) 0.011(5) 0.023(5) -0.051(6)
O332 0.069(5) 0.106(7) 0.123(6) -0.042(5) 0.027(4) 0.015(4)
O331 0.069(5) 0.106(7) 0.123(6) -0.042(5) 0.027(4) 0.015(4)
O343 0.111(8) 0.090(9) 0.121(9) 0.010(6) 0.068(6) -0.015(6)
O344 0.111(8) 0.090(9) 0.121(9) 0.010(6) 0.068(6) -0.015(6)
O333 0.124(10) 0.103(10) 0.091(8) -0.009(6) 0.046(6) 0.028(7)
O334 0.124(10) 0.103(10) 0.091(8) -0.009(6) 0.046(6) 0.028(7)
loop_
_atom_type_symbol
_atom_type_description
_atom_type_scat_dispersion_real
_atom_type_scat_dispersion_imag
_atom_type_scat_source
N N 0.0061 0.0033 'International Tables Vol C Tables 4.2.6.8 and 6.1.1.4'
H H 0.0000 0.0000 'International Tables Vol C Tables 4.2.6.8 and 6.1.1.4'
O O 0.0106 0.0060 'International Tables Vol C Tables 4.2.6.8 and 6.1.1.4'
Ru Ru -1.2594 0.8363 'International Tables Vol C Tables 4.2.6.8 and 6.1.1.4'
Pd Pd -0.9988 1.0072 'International Tables Vol C Tables 4.2.6.8 and 6.1.1.4'
loop_
_geom_angle_atom_site_label_1
_geom_angle_atom_site_label_2
_geom_angle_atom_site_label_3
_geom_angle
_geom_angle_site_symmetry_1
_geom_angle_site_symmetry_3
_geom_angle_publ_flag
N12 Pd1 N12 180.0 . 3_556 ?
N12 Pd1 N11 90.000(2) . . ?
N12 Pd1 N11 90.000(1) 3_556 . ?
N12 Pd1 N11 90.000(1) . 3_556 ?
N12 Pd1 N11 90.000(2) 3_556 3_556 ?
N11 Pd1 N11 180.0 . 3_556 ?
N21 Pd2 N21 180.0 . 3 ?
N21 Pd2 N22 91.3(3) . . ?
N21 Pd2 N22 88.7(3) 3 . ?
N21 Pd2 N22 88.7(3) . 3 ?
N21 Pd2 N22 91.3(3) 3 3 ?
N22 Pd2 N22 180.0 . 3 ?
N35 Ru3 O1 178.8(3) . . ?
N35 Ru3 N33 92.9(2) . . ?
O1 Ru3 N33 88.0(2) . . ?
N35 Ru3 N33 92.9(2) . 4_565 ?
O1 Ru3 N33 88.0(2) . 4_565 ?
N33 Ru3 N33 89.5(4) . 4_565 ?
N35 Ru3 N34 90.6(3) . 4_565 ?
O1 Ru3 N34 88.6(2) . 4_565 ?
N33 Ru3 N34 176.5(2) . 4_565 ?
N33 Ru3 N34 90.8(3) 4_565 4_565 ?
N35 Ru3 N34 90.6(3) . . ?
O1 Ru3 N34 88.6(2) . . ?
N33 Ru3 N34 90.8(3) . . ?
N33 Ru3 N34 176.5(2) 4_565 . ?
N34 Ru3 N34 88.6(4) 4_565 . ?
Ru3 O1 H1 109.5 . . ?
O341 N34 O342 117.3(10) . . ?
O344 N34 O343 114.3(14) . . ?
O344 N34 Ru3 123.3(11) . . ?
O341 N34 Ru3 119.8(8) . . ?
O342 N34 Ru3 122.4(7) . . ?
O343 N34 Ru3 122.3(9) . . ?
O332 N33 O331 119.9(9) . . ?
O334 N33 O333 109.5(16) . . ?
O334 N33 Ru3 125.5(13) . . ?
O332 N33 Ru3 119.5(6) . . ?
O331 N33 Ru3 120.0(8) . . ?
O333 N33 Ru3 124.3(9) . . ?
O351 N35 Ru3 173.4(9) . . ?
Pd1 N11 H11A 109.5 . . ?
Pd1 N11 H11B 109.5 . . ?
H11A N11 H11B 109.5 . . ?
Pd1 N11 H11C 109.5 . . ?
H11A N11 H11C 109.5 . . ?
H11B N11 H11C 109.5 . . ?
Pd2 N22 H22A 109.5 . . ?
Pd2 N22 H22B 109.5 . . ?
H22A N22 H22B 109.5 . . ?
Pd2 N22 H22C 109.5 . . ?
H22A N22 H22C 109.5 . . ?
H22B N22 H22C 109.5 . . ?
Pd2 N21 H21A 109.5 . . ?
Pd2 N21 H21B 109.5 . . ?
H21A N21 H21B 109.5 . . ?
Pd2 N21 H21C 109.5 . . ?
H21A N21 H21C 109.5 . . ?
H21B N21 H21C 109.5 . . ?
Pd1 N12 H12A 109.5 . . ?
Pd1 N12 H12B 109.5 . . ?
H12A N12 H12B 109.5 . . ?
Pd1 N12 H12C 109.5 . . ?
H12A N12 H12C 109.5 . . ?
H12B N12 H12C 109.5 . . ?
loop_
_geom_bond_atom_site_label_1
_geom_bond_atom_site_label_2
_geom_bond_distance
_geom_bond_site_symmetry_2
_geom_bond_publ_flag
Pd1 N12 1.978(10) . ?
Pd1 N12 1.978(10) 3_556 ?
Pd1 N11 2.049(7) . ?
Pd1 N11 2.049(7) 3_556 ?
Pd2 N21 2.035(7) . ?
Pd2 N21 2.035(7) 3 ?
Pd2 N22 2.039(8) . ?
Pd2 N22 2.039(8) 3 ?
Ru3 N35 1.757(8) . ?
Ru3 O1 1.925(6) . ?
Ru3 N33 2.071(6) . ?
Ru3 N33 2.071(6) 4_565 ?
Ru3 N34 2.076(6) 4_565 ?
Ru3 N34 2.076(6) . ?
O1 H1 0.8200 . ?
N34 O344 1.173(17) . ?
N34 O341 1.174(14) . ?
N34 O342 1.219(13) . ?
N34 O343 1.22(2) . ?
N33 O334 1.14(2) . ?
N33 O332 1.225(14) . ?
N33 O331 1.232(11) . ?
N33 O333 1.24(2) . ?
N35 O351 1.131(11) . ?
N11 H11A 0.8900 . ?
N11 H11B 0.8900 . ?
N11 H11C 0.8900 . ?
N22 H22A 0.8900 . ?
N22 H22B 0.8900 . ?
N22 H22C 0.8900 . ?
N21 H21A 0.8900 . ?
N21 H21B 0.8900 . ?
N21 H21C 0.8900 . ?
N12 H12A 0.8900 . ?
N12 H12B 0.8900 . ?
N12 H12C 0.8900 . ?
loop_
_geom_hbond_atom_site_label_D
_geom_hbond_atom_site_label_H
_geom_hbond_atom_site_label_A
_geom_hbond_distance_DH
_geom_hbond_distance_HA
_geom_hbond_distance_DA
_geom_hbond_angle_DHA
_geom_hbond_site_symmetry_A
O1 H1 O342 0.82 2.35 3.139(16) 161.2 3_666
O1 H1 O342 0.82 2.28 2.852(13) 127.5 4_565
O1 H1 O344 0.82 2.51 3.18(2) 139.5 3_666
N11 H11A O342 0.89 2.62 3.35(2) 139.3 1_455
N11 H11A O342 0.89 2.53 2.947(15) 109.2 2_556
N11 H11B O342 0.89 2.39 2.947(15) 120.5 3_556
N11 H11B O343 0.89 2.62 3.470(18) 160.1 3_556
N11 H11C O343 0.89 2.56 3.27(3) 137.2 4_455
N11 H11C O333 0.89 2.40 3.08(3) 132.8 4_455
N22 H22A O341 0.89 2.56 3.280(16) 138.7 4
N22 H22A O343 0.89 2.41 3.29(2) 166.7 4
N22 H22B O332 0.89 2.43 3.046(16) 126.5 .
N22 H22B O332 0.89 2.40 3.082(15) 133.3 2_655
N22 H22B O334 0.89 2.34 3.08(3) 141.7 2_655
N22 H22C O332 0.89 2.20 3.082(15) 168.6 3_655
N22 H22C O334 0.89 2.21 3.08(3) 167.0 3_655
N21 H21A O332 0.89 2.67 3.521(13) 160.0 1_455
N21 H21A O331 0.89 2.27 3.048(13) 146.2 1_455
N21 H21A O333 0.89 2.19 3.02(2) 155.3 1_455
N21 H21A O334 0.89 2.54 3.37(2) 155.3 1_455
N21 H21B O341 0.89 1.99 2.789(14) 149.2 .
N21 H21B O343 0.89 2.44 3.32(2) 172.5 .
N21 H21C O341 0.89 2.31 2.789(14) 113.4 4
N21 H21C O331 0.89 2.25 3.048(13) 148.7 4_455
N21 H21C O333 0.89 2.43 3.02(2) 124.1 4_455
N12 H12A O1 0.89 2.36 3.141(8) 146.5 3_656
N12 H12A O333 0.89 2.78 3.10(2) 102.9 3_656
N12 H12B O1 0.89 2.52 3.141(8) 127.0 1_445
N12 H12B O331 0.89 2.28 3.130(14) 159.9 4_455
N12 H12B O333 0.89 2.35 3.10(2) 142.5 4_455
N12 H12C O344 0.89 2.28 3.121(15) 157.9 3_556
