#------------------------------------------------------------------------------
#$Date: 2020-06-09 04:37:41 +0300 (Tue, 09 Jun 2020) $
#$Revision: 253021 $
#$URL: file:///home/coder/svn-repositories/cod/cif/7/24/06/7240660.cif $
#------------------------------------------------------------------------------
#
# This file is available in the Crystallography Open Database (COD),
# http://www.crystallography.net/
#
# All data on this site have been placed in the public domain by the
# contributors.
#
data_7240660
loop_
_publ_author_name
'Roy, Parag'
'Ghosh, Animesh'
_publ_section_title
;
 Mechanochemical cocrystallization to improve the physicochemical
 properties of chlorzoxazone
;
_journal_name_full               CrystEngComm
_journal_paper_doi               10.1039/D0CE00635A
_journal_year                    2020
_chemical_formula_moiety         'C7 H4 Cl N O2, C6 H5 N O2'
_chemical_formula_sum            'C13 H9 Cl N2 O4'
_chemical_formula_weight         292.67
_chemical_name_systematic        CHZ_PA
_space_group_crystal_system      triclinic
_space_group_IT_number           2
_space_group_name_Hall           '-P 1'
_space_group_name_H-M_alt        'P -1'
_atom_sites_solution_hydrogens   mixed
_atom_sites_solution_primary     dual
_audit_creation_date             2020-02-06
_audit_creation_method
;
Olex2 1.2
(compiled 2018.05.29 svn.r3508 for OlexSys, GUI svn.r5506)
;
_audit_update_record
;
2020-02-06 deposited with the CCDC.	2020-06-08 downloaded from the CCDC.
;
_cell_angle_alpha                99.238(5)
_cell_angle_beta                 107.382(5)
_cell_angle_gamma                101.179(5)
_cell_formula_units_Z            2
_cell_length_a                   7.5903(4)
_cell_length_b                   9.0809(6)
_cell_length_c                   9.7444(5)
_cell_measurement_reflns_used    2639
_cell_measurement_temperature    298
_cell_measurement_theta_max      29.2310
_cell_measurement_theta_min      4.4350
_cell_volume                     611.46(7)
_computing_cell_refinement       'CrysAlisPro 1.171.38.46 (Rigaku OD, 2015)'
_computing_data_collection       'CrysAlisPro 1.171.38.46 (Rigaku OD, 2015)'
_computing_data_reduction        'CrysAlisPro 1.171.38.46 (Rigaku OD, 2015)'
_computing_molecular_graphics    'Olex2 (Dolomanov et al., 2009)'
_computing_publication_material  'Olex2 (Dolomanov et al., 2009)'
_computing_structure_refinement  'ShelXL (Sheldrick, 2015)'
_computing_structure_solution    'ShelXT (Sheldrick, 2015)'
_diffrn_ambient_temperature      298
_diffrn_detector                 'CCD plate'
_diffrn_detector_area_resol_mean 10.4324
_diffrn_detector_type            Atlas
_diffrn_measured_fraction_theta_full 0.997
_diffrn_measured_fraction_theta_max 0.835
_diffrn_measurement_details
;
List of Runs (angles in degrees, time in seconds):

  # Type    Start    End  Width  t~exp~   \w     \q     \k     \f   Frames
#--------------------------------------------------------------------------
  1  \w    -12.00  79.00   1.00   12.57    --   10.22  57.00 -90.00   91
  2  \w    -59.00  35.00   1.00   12.57    --   10.22 -57.00 120.00   94
  3  \w    -67.00  15.00   1.00   12.57    --  -10.38 -57.00 -30.00   82
;
_diffrn_measurement_device       'four-circle diffractometer'
_diffrn_measurement_device_type  'Xcalibur, Atlas'
_diffrn_measurement_method       '\w scans'
_diffrn_orient_matrix_type
'CrysAlisPro convention (1999,Acta A55,543-557)'
_diffrn_orient_matrix_UB_11      -0.0519477000
_diffrn_orient_matrix_UB_12      -0.0028748000
_diffrn_orient_matrix_UB_13      -0.0745888000
_diffrn_orient_matrix_UB_21      -0.0203688000
_diffrn_orient_matrix_UB_22      0.0710818000
_diffrn_orient_matrix_UB_23      0.0228066000
_diffrn_orient_matrix_UB_31      0.0845666000
_diffrn_orient_matrix_UB_32      0.0405398000
_diffrn_orient_matrix_UB_33      -0.0083108000
_diffrn_radiation_monochromator  graphite
_diffrn_radiation_probe          x-ray
_diffrn_radiation_type           MoK\a
_diffrn_radiation_wavelength     0.71073
_diffrn_reflns_av_R_equivalents  0.0092
_diffrn_reflns_av_unetI/netI     0.0168
_diffrn_reflns_Laue_measured_fraction_full 0.997
_diffrn_reflns_Laue_measured_fraction_max 0.835
_diffrn_reflns_limit_h_max       7
_diffrn_reflns_limit_h_min       -10
_diffrn_reflns_limit_k_max       12
_diffrn_reflns_limit_k_min       -11
_diffrn_reflns_limit_l_max       12
_diffrn_reflns_limit_l_min       -11
_diffrn_reflns_number            4909
_diffrn_reflns_point_group_measured_fraction_full 0.997
_diffrn_reflns_point_group_measured_fraction_max 0.835
_diffrn_reflns_theta_full        25.242
_diffrn_reflns_theta_max         29.445
_diffrn_reflns_theta_min         3.617
_diffrn_source                   'fine-focus sealed X-ray tube'
_diffrn_source_type              'Enhance (Mo) X-ray Source'
_exptl_absorpt_coefficient_mu    0.328
_exptl_absorpt_correction_T_max  1.00000
_exptl_absorpt_correction_T_min  0.73083
_exptl_absorpt_correction_type   multi-scan
_exptl_absorpt_process_details
;
CrysAlisPro 1.171.38.46 (Rigaku Oxford Diffraction, 2015)
Empirical absorption correction using spherical harmonics,
 implemented in SCALE3 ABSPACK scaling algorithm.
;
_exptl_crystal_colour            'clear whiteish colourless'
_exptl_crystal_colour_lustre     clear
_exptl_crystal_colour_modifier   whiteish
_exptl_crystal_colour_primary    colourless
_exptl_crystal_density_diffrn    1.590
_exptl_crystal_description       block
_exptl_crystal_F_000             300
_exptl_crystal_preparation       'LIQUID ASSISTED GRINDING WITH ACN'
_exptl_crystal_recrystallization_method
'Re-crystallisation from solvent: ethyl acetate'
_exptl_crystal_size_max          0.3
_exptl_crystal_size_mid          0.2
_exptl_crystal_size_min          0.2
_refine_diff_density_max         0.165
_refine_diff_density_min         -0.327
_refine_diff_density_rms         0.070
_refine_ls_extinction_method     none
_refine_ls_goodness_of_fit_ref   1.048
_refine_ls_hydrogen_treatment    mixed
_refine_ls_matrix_type           full
_refine_ls_number_parameters     185
_refine_ls_number_reflns         2843
_refine_ls_number_restraints     0
_refine_ls_restrained_S_all      1.048
_refine_ls_R_factor_all          0.0417
_refine_ls_R_factor_gt           0.0359
_refine_ls_shift/su_max          0.000
_refine_ls_shift/su_mean         0.000
_refine_ls_structure_factor_coef Fsqd
_refine_ls_weighting_details
'w=1/[\s^2^(Fo^2^)+(0.0570P)^2^+0.1051P] where P=(Fo^2^+2Fc^2^)/3'
_refine_ls_weighting_scheme      calc
_refine_ls_wR_factor_gt          0.0990
_refine_ls_wR_factor_ref         0.1043
_reflns_Friedel_coverage         0.000
_reflns_number_gt                2464
_reflns_number_total             2843
_reflns_threshold_expression     'I > 2\s(I)'
_iucr_refine_instructions_details
;
TITL chz_pa_a.res in P-1
    chz_pa.res
    created by SHELXL-2018/3 at 14:57:02 on 06-Feb-2020
REM Old TITL chz_pa_a.res in P-1
REM SHELXT solution in P-1: R1 0.142, Rweak 0.008, Alpha 0.029
REM <I/s> 0.000 for 0 systematic absences, Orientation as input
REM Formula found by SHELXT: C13 Cl N4 O2
CELL 0.71073 7.5903 9.0809 9.7444 99.238 107.382 101.179
ZERR 2 0.0004 0.0006 0.0005 0.005 0.005 0.005
LATT 1
SFAC C H Cl N O
UNIT 26 18 2 4 8

L.S. 4 0 0
PLAN  10
SIZE 0.2 0.2 0.3
TEMP 24.85
BOND
list 4
fmap 2 53
ACTA
REM <olex2.extras>
REM <HklSrc "%.\\CHZ_PA.hkl">
REM </olex2.extras>

WGHT    0.057000    0.105100
FVAR       0.82310
CL1   3    0.324650    0.640476    0.047061    11.00000    0.06584    0.05734 =
         0.04188    0.01295    0.00969    0.02231
O4    5    0.794517    0.696642    0.654453    11.00000    0.05501    0.03586 =
         0.03415    0.00087    0.01483    0.01407
O1    5    0.892922    0.140003    0.467302    11.00000    0.06454    0.05459 =
         0.03243   -0.00117    0.00812    0.02327
O2    5    0.682124    0.201542    0.287906    11.00000    0.08260    0.05332 =
         0.04551    0.00600    0.01600    0.04197
O3    5    0.945956    0.521305    0.740955    11.00000    0.06115    0.05719 =
         0.04475    0.01432    0.01034    0.02171
N1    4    0.915420   -0.097196    0.270457    11.00000    0.04257    0.03661 =
         0.02939    0.00399    0.00918    0.01446
N2    4    0.767902    0.484772    0.492577    11.00000    0.04462    0.03203 =
         0.04019    0.00236    0.01442    0.01637
AFIX  43
H6    2    0.781225    0.397118    0.454626    11.00000   -1.20000
AFIX   0

C2    1    0.818273    0.003364    0.221326    11.00000    0.03507    0.03023 =
         0.03347    0.00375    0.01081    0.00812
C9    1    0.662560    0.571190    0.414337    11.00000    0.03471    0.02783 =
         0.03734    0.00319    0.01591    0.00982
C1    1    0.795767    0.125986    0.336328    11.00000    0.04482    0.03164 =
         0.03530    0.00330    0.01395    0.01037
C10   1    0.554330    0.547339    0.267594    11.00000    0.04216    0.03212 =
         0.03655   -0.00139    0.01411    0.00999
AFIX  43
H7    2    0.541541    0.459410    0.197876    11.00000   -1.20000
AFIX   0
C7    1    0.847230    0.557728    0.637577    11.00000    0.04225    0.03857 =
         0.04091    0.00815    0.01690    0.01113

C3    1    0.743794   -0.010595    0.071776    11.00000    0.04766    0.03977 =
         0.03520    0.00789    0.01095    0.01779
AFIX  43
H5    2    0.676227    0.058052    0.035172    11.00000   -1.20000
AFIX   0

C8    1    0.680444    0.703185    0.516915    11.00000    0.04167    0.03112 =
         0.03381    0.00101    0.01504    0.00866
C11   1    0.465357    0.662310    0.229783    11.00000    0.04100    0.03701 =
         0.03837    0.00776    0.01451    0.01016
C5    1    0.869966   -0.228811    0.029967    11.00000    0.05579    0.03944 =
         0.03890   -0.00163    0.01692    0.01618
AFIX  43
H3    2    0.888838   -0.307131   -0.033955    11.00000   -1.20000
AFIX   0

C12   1    0.482654    0.793599    0.331800    11.00000    0.05536    0.03569 =
         0.05162    0.01007    0.01984    0.02137
AFIX  43
H8    2    0.420383    0.867564    0.301543    11.00000   -1.20000
AFIX   0

C6    1    0.941571   -0.212505    0.179904    11.00000    0.04891    0.03785 =
         0.04235    0.00520    0.01435    0.01897
AFIX  43
H2    2    1.007887   -0.280881    0.218734    11.00000   -1.20000
AFIX   0
C4    1    0.769840   -0.127727   -0.024583    11.00000    0.05846    0.05032 =
         0.02960    0.00237    0.01067    0.01746
AFIX  43
H4    2    0.719530   -0.137858   -0.126136    11.00000   -1.20000
AFIX   0

C13   1    0.592717    0.815753    0.479537    11.00000    0.06294    0.03251 =
         0.04650   -0.00002    0.02038    0.01861
AFIX  43
H9    2    0.605899    0.903428    0.549710    11.00000   -1.20000
AFIX   0

H1    2    0.967286   -0.089018    0.365280    11.00000    0.06650
HKLF 4




REM  chz_pa_a.res in P-1
REM wR2 = 0.1043, GooF = S = 1.048, Restrained GooF = 1.048 for all data
REM R1 = 0.0359 for 2464 Fo > 4sig(Fo) and 0.0417 for all 2843 data
REM 185 parameters refined using 0 restraints

END  
     
WGHT      0.0570      0.1051 

REM Highest difference peak  0.165,  deepest hole -0.327,  1-sigma level  0.070
Q1    1   1.0622  0.3252  0.5604  11.00000  0.05    0.16
Q2    1   0.7462  0.6013  0.2530  11.00000  0.05    0.16
Q3    1   0.6800  0.1571  0.3176  11.00000  0.05    0.16
Q4    1   0.7695  0.6990  0.2947  11.00000  0.05    0.16
Q5    1   0.8563 -0.2817  0.3541  11.00000  0.05    0.16
Q6    1   0.5034  0.5185  0.4810  11.00000  0.05    0.16
Q7    1   0.7540  0.9434  0.5755  11.00000  0.05    0.16
Q8    1   0.8241  0.6223  0.3538  11.00000  0.05    0.15
Q9    1   0.5919  0.4099  0.5009  11.00000  0.05    0.15
Q10   1   1.0584  0.2045  0.5110  11.00000  0.05    0.15

  REM The information below was added by Olex2.
  REM
  REM R1 = 0.0359 for 2464 Fo > 4sig(Fo) and 0.0417 for all 4909 data
  REM n/a parameters refined using n/a restraints
  REM Highest difference peak 0.16, deepest hole -0.33
  REM Mean Shift 0, Max Shift 0.000.

  REM +++ Tabular Listing of Refinement Information +++
  REM R1_all = 0.0417
  REM R1_gt = 0.0359
  REM wR_ref = 0.1043
  REM GOOF = 1.048
  REM Shift_max = 0.000
  REM Shift_mean = 0
  REM Reflections_all = 4909
  REM Reflections_gt = 2464
  REM Parameters = n/a
  REM Hole = -0.33
  REM Peak = 0.16
  REM Flack = n/a

  
;
_cod_data_source_file            d0ce00635a2.cif
_cod_data_source_block           chz_pa
_cod_original_cell_volume        611.46(6)
_cod_database_code               7240660
_shelx_shelxl_version_number     2018/3
_chemical_oxdiff_formula         'C13 H9 Cl N2 O4'
_shelx_space_group_comment
;
The symmetry employed for this shelxl refinement is uniquely defined
by the following loop, which should always be used as a source of
symmetry information in preference to the above space-group names.
They are only intended as comments.
;
_shelx_estimated_absorpt_t_max   0.937
_shelx_estimated_absorpt_t_min   0.908
_reflns_odcompleteness_completeness 99.76
_reflns_odcompleteness_iscentric 1
_reflns_odcompleteness_theta     26.32
_olex2_refinement_description
;
1. Fixed Uiso
 At 1.2 times of:
  All C(H) groups, All N(H) groups
2.a Aromatic/amide H refined with riding coordinates:
 N2(H6), C10(H7), C3(H5), C5(H3), C12(H8), C6(H2), C4(H4), C13(H9)
;
_olex2_submission_original_sample_id CHZ_PA
_olex2_submission_special_instructions 'No special instructions were received'
_oxdiff_exptl_absorpt_empirical_details
;
Empirical correction (ABSPACK) includes:
- Absorption correction using spherical harmonics
- Frame scaling
;
_oxdiff_exptl_absorpt_empirical_full_max 1.260
_oxdiff_exptl_absorpt_empirical_full_min 0.796
loop_
_space_group_symop_operation_xyz
'x, y, z'
'-x, -y, -z'
loop_
_atom_site_label
_atom_site_type_symbol
_atom_site_fract_x
_atom_site_fract_y
_atom_site_fract_z
_atom_site_U_iso_or_equiv
_atom_site_adp_type
_atom_site_occupancy
_atom_site_site_symmetry_order
_atom_site_calc_flag
_atom_site_refinement_flags_posn
_atom_site_refinement_flags_adp
_atom_site_refinement_flags_occupancy
_atom_site_disorder_assembly
_atom_site_disorder_group
Cl1 Cl 0.32465(6) 0.64048(5) 0.04706(4) 0.05591(15) Uani 1 1 d . . . . .
O4 O 0.79452(15) 0.69664(11) 0.65445(10) 0.0423(2) Uani 1 1 d . . . . .
O1 O 0.89292(17) 0.14000(13) 0.46730(11) 0.0527(3) Uani 1 1 d . . . . .
O2 O 0.68212(19) 0.20154(14) 0.28791(12) 0.0589(3) Uani 1 1 d . . . . .
O3 O 0.94596(17) 0.52131(14) 0.74096(12) 0.0549(3) Uani 1 1 d . . . . .
N1 N 0.91542(17) -0.09720(13) 0.27046(13) 0.0367(3) Uani 1 1 d . . . . .
N2 N 0.76790(17) 0.48477(13) 0.49258(13) 0.0387(3) Uani 1 1 d . . . . .
H6 H 0.781225 0.397118 0.454626 0.046 Uiso 1 1 calc R . . . .
C2 C 0.81827(18) 0.00336(15) 0.22133(14) 0.0336(3) Uani 1 1 d . . . . .
C9 C 0.66256(18) 0.57119(14) 0.41434(14) 0.0327(3) Uani 1 1 d . . . . .
C1 C 0.7958(2) 0.12599(15) 0.33633(15) 0.0376(3) Uani 1 1 d . . . . .
C10 C 0.55433(19) 0.54734(15) 0.26759(15) 0.0379(3) Uani 1 1 d . . . . .
H7 H 0.541541 0.459410 0.197876 0.045 Uiso 1 1 calc R . . . .
C7 C 0.8472(2) 0.55773(16) 0.63758(16) 0.0400(3) Uani 1 1 d . . . . .
C3 C 0.7438(2) -0.01060(17) 0.07178(15) 0.0407(3) Uani 1 1 d . . . . .
H5 H 0.676227 0.058052 0.035172 0.049 Uiso 1 1 calc R . . . .
C8 C 0.68044(19) 0.70319(15) 0.51692(14) 0.0359(3) Uani 1 1 d . . . . .
C11 C 0.4654(2) 0.66231(16) 0.22978(15) 0.0387(3) Uani 1 1 d . . . . .
C5 C 0.8700(2) -0.22881(17) 0.02997(16) 0.0452(3) Uani 1 1 d . . . . .
H3 H 0.888838 -0.307131 -0.033955 0.054 Uiso 1 1 calc R . . . .
C12 C 0.4827(2) 0.79360(17) 0.33180(17) 0.0458(3) Uani 1 1 d . . . . .
H8 H 0.420383 0.867564 0.301543 0.055 Uiso 1 1 calc R . . . .
C6 C 0.9416(2) -0.21250(17) 0.17990(16) 0.0427(3) Uani 1 1 d . . . . .
H2 H 1.007887 -0.280881 0.218734 0.051 Uiso 1 1 calc R . . . .
C4 C 0.7698(2) -0.12773(18) -0.02458(16) 0.0475(4) Uani 1 1 d . . . . .
H4 H 0.719530 -0.137858 -0.126136 0.057 Uiso 1 1 calc R . . . .
C13 C 0.5927(2) 0.81575(17) 0.47954(17) 0.0471(4) Uani 1 1 d . . . . .
H9 H 0.605899 0.903428 0.549710 0.057 Uiso 1 1 calc R . . . .
H1 H 0.967(3) -0.089(2) 0.365(2) 0.067(6) Uiso 1 1 d . . . . .
loop_
_atom_site_aniso_label
_atom_site_aniso_U_11
_atom_site_aniso_U_22
_atom_site_aniso_U_33
_atom_site_aniso_U_23
_atom_site_aniso_U_13
_atom_site_aniso_U_12
Cl1 0.0658(3) 0.0573(3) 0.0419(2) 0.01295(18) 0.00969(18) 0.0223(2)
O4 0.0550(6) 0.0359(5) 0.0341(5) 0.0009(4) 0.0148(4) 0.0141(4)
O1 0.0645(7) 0.0546(7) 0.0324(5) -0.0012(5) 0.0081(5) 0.0233(5)
O2 0.0826(8) 0.0533(7) 0.0455(6) 0.0060(5) 0.0160(6) 0.0420(6)
O3 0.0612(7) 0.0572(7) 0.0448(6) 0.0143(5) 0.0103(5) 0.0217(6)
N1 0.0426(6) 0.0366(6) 0.0294(5) 0.0040(5) 0.0092(5) 0.0145(5)
N2 0.0446(6) 0.0320(6) 0.0402(6) 0.0024(5) 0.0144(5) 0.0164(5)
C2 0.0351(6) 0.0302(6) 0.0335(6) 0.0038(5) 0.0108(5) 0.0081(5)
C9 0.0347(6) 0.0278(6) 0.0373(6) 0.0032(5) 0.0159(5) 0.0098(5)
C1 0.0448(7) 0.0316(7) 0.0353(7) 0.0033(5) 0.0140(6) 0.0104(5)
C10 0.0422(7) 0.0321(7) 0.0365(7) -0.0014(5) 0.0141(6) 0.0100(5)
C7 0.0422(7) 0.0386(7) 0.0409(7) 0.0081(6) 0.0169(6) 0.0111(6)
C3 0.0477(8) 0.0398(7) 0.0352(7) 0.0079(6) 0.0109(6) 0.0178(6)
C8 0.0417(7) 0.0311(6) 0.0338(6) 0.0010(5) 0.0150(5) 0.0087(5)
C11 0.0410(7) 0.0370(7) 0.0384(7) 0.0078(6) 0.0145(6) 0.0102(5)
C5 0.0558(9) 0.0394(8) 0.0389(7) -0.0016(6) 0.0169(7) 0.0162(6)
C12 0.0554(9) 0.0357(7) 0.0516(8) 0.0101(6) 0.0198(7) 0.0214(6)
C6 0.0489(8) 0.0379(7) 0.0424(7) 0.0052(6) 0.0143(6) 0.0190(6)
C4 0.0585(9) 0.0503(9) 0.0296(6) 0.0024(6) 0.0107(6) 0.0175(7)
C13 0.0629(9) 0.0325(7) 0.0465(8) 0.0000(6) 0.0204(7) 0.0186(7)
loop_
_atom_type_symbol
_atom_type_description
_atom_type_scat_dispersion_real
_atom_type_scat_dispersion_imag
_atom_type_scat_source
C C 0.0033 0.0016 'International Tables Vol C Tables 4.2.6.8 and 6.1.1.4'
H H 0.0000 0.0000 'International Tables Vol C Tables 4.2.6.8 and 6.1.1.4'
Cl Cl 0.1484 0.1585 'International Tables Vol C Tables 4.2.6.8 and 6.1.1.4'
N N 0.0061 0.0033 'International Tables Vol C Tables 4.2.6.8 and 6.1.1.4'
O O 0.0106 0.0060 'International Tables Vol C Tables 4.2.6.8 and 6.1.1.4'
loop_
_geom_angle_atom_site_label_1
_geom_angle_atom_site_label_2
_geom_angle_atom_site_label_3
_geom_angle
_geom_angle_site_symmetry_1
_geom_angle_site_symmetry_3
_geom_angle_publ_flag
C8 O4 C7 107.22(10) . . ?
C2 N1 C6 123.06(12) . . ?
C7 N2 C9 110.33(11) . . ?
N1 C2 C1 117.44(11) . . ?
N1 C2 C3 118.70(12) . . ?
C3 C2 C1 123.86(12) . . ?
N2 C9 C8 105.92(11) . . ?
C10 C9 N2 132.85(12) . . ?
C10 C9 C8 121.23(12) . . ?
O1 C1 C2 117.07(12) . . ?
O2 C1 O1 127.16(13) . . ?
O2 C1 C2 115.77(12) . . ?
C9 C10 C11 116.09(12) . . ?
O3 C7 O4 121.41(14) . . ?
O3 C7 N2 131.13(14) . . ?
N2 C7 O4 107.46(12) . . ?
C2 C3 C4 119.59(13) . . ?
O4 C8 C9 109.07(11) . . ?
C13 C8 O4 128.37(12) . . ?
C13 C8 C9 122.56(13) . . ?
C10 C11 Cl1 119.01(11) . . ?
C12 C11 Cl1 118.24(11) . . ?
C12 C11 C10 122.76(13) . . ?
C6 C5 C4 119.02(13) . . ?
C11 C12 C13 120.34(13) . . ?
N1 C6 C5 119.60(13) . . ?
C5 C4 C3 120.02(13) . . ?
C8 C13 C12 117.03(13) . . ?
loop_
_geom_bond_atom_site_label_1
_geom_bond_atom_site_label_2
_geom_bond_distance
_geom_bond_site_symmetry_2
_geom_bond_publ_flag
Cl1 C11 1.7374(14) . ?
O4 C7 1.3953(17) . ?
O4 C8 1.3790(16) . ?
O1 C1 1.2402(17) . ?
O2 C1 1.2360(17) . ?
O3 C7 1.1991(18) . ?
N1 C2 1.3407(17) . ?
N1 C6 1.3428(18) . ?
N2 C9 1.3812(17) . ?
N2 C7 1.3544(18) . ?
C2 C1 1.5207(18) . ?
C2 C3 1.3711(18) . ?
C9 C10 1.3770(18) . ?
C9 C8 1.3876(17) . ?
C10 C11 1.3893(19) . ?
C3 C4 1.387(2) . ?
C8 C13 1.364(2) . ?
C11 C12 1.381(2) . ?
C5 C6 1.370(2) . ?
C5 C4 1.374(2) . ?
C12 C13 1.391(2) . ?
loop_
_refln_index_h
_refln_index_k
_refln_index_l
_refln_F_squared_meas
_refln_F_squared_sigma
0 0 -2 69.17 0.96
0 0 2 68.37 0.94
0 0 2 68.44 0.96
0 0 -2 68.22 0.96
0 0 -3 653.15 3.63
0 0 3 647.68 3.67
0 0 3 643.66 3.54
0 0 -4 1946.53 7.44
0 0 4 1928.49 7.07
0 0 -4 1940.81 7.18
0 0 -5 164.55 2.43
0 0 5 166.44 2.41
0 0 5 166.2 2.33
0 0 -5 168.37 2.36
0 0 -6 23.05 0.97
0 0 6 22.66 0.96
0 0 -6 22.42 1.01
0 0 6 22.84 0.99
0 0 7 128.51 2.5
0 0 -7 132.87 2.52
0 0 7 131.26 2.59
0 0 -7 131.21 2.66
0 0 8 0.37 0.19
0 0 -8 0.09 0.18
0 0 -9 46.67 1.7
0 0 9 44.77 1.75
0 0 9 44.2 1.72
0 0 10 51.91 1.99
0 0 10 52.03 1.99
0 0 11 6.38 0.79
0 -1 11 13.58 1.09
0 -1 11 12.77 0.99
0 -1 10 1.08 0.32
0 -1 10 0.94 0.35
0 -1 9 52.19 1.83
0 1 -9 50.63 1.65
0 -1 8 158.31 2.97
0 1 -8 158.23 2.74
0 -1 8 156.25 2.78
0 1 -7 3.54 0.39
0 -1 7 3.15 0.38
0 -1 7 3.63 0.42
0 1 -7 3.18 0.42
0 -1 6 104.92 1.9
0 -1 6 104.06 2.06
0 1 -6 107.74 1.92
0 1 -6 100.92 2.13
0 -1 5 326.64 2.98
0 1 -5 335.71 3.03
0 -1 5 334.25 3.35
0 1 -5 327.55 3.41
0 1 -4 29.89 0.92
0 -1 4 29.87 0.91
0 1 -4 29.41 0.79
0 -1 4 30.22 0.78
0 1 -3 21.34 0.56
0 -1 3 20.87 0.53
0 -1 3 20.13 0.65
0 1 -3 20.28 0.65
0 1 -2 1165.88 4.18
0 -1 2 1167.48 4.12
0 1 -2 1158.29 3.04
0 -1 2 1174.51 2.96
0 -1 -1 378.5 2.21
0 1 2 711.72 3.82
0 -1 -2 711.89 3.73
0 1 3 2.2 0.26
0 -1 -3 1.69 0.23
0 -1 -3 2.46 0.24
0 -1 -4 1.16 0.22
0 1 4 1.29 0.24
0 -1 -4 0.98 0.19
0 -1 -5 137.29 2.34
0 1 5 136.21 2.17
0 -1 -5 132.86 2.24
0 1 5 135.04 2.42
0 1 6 291.21 3.86
0 -1 -6 282.92 3.66
0 -1 -6 292.25 3.69
0 -1 -7 10.03 0.75
0 1 7 9.98 0.8
0 -1 -7 9.22 0.73
0 -1 -8 20.41 1.13
0 1 8 19.16 1.15
0 1 9 14.44 1.08
0 1 10 17.9 1.29
0 1 11 1.25 0.47
0 -2 11 2.78 0.53
0 -2 10 29.58 1.49
0 -2 10 28.61 1.25
0 -2 9 0.05 0.2
0 -2 9 0.28 0.26
0 2 -9 0.02 0.17
0 -2 8 142.56 2.4
0 2 -8 144.98 2.45
0 -2 8 139.65 2.83
0 -2 7 79.06 1.98
0 2 -7 81.96 2.14
0 2 -7 82.91 1.71
0 -2 7 81.61 1.65
0 -2 6 107.88 1.69
0 -2 6 114.31 2.27
0 2 -6 110.37 1.77
0 2 -6 109.53 2.26
0 2 -5 608.66 4.79
0 -2 5 594.19 4.65
0 2 -5 603.38 3.65
0 -2 5 601.47 3.47
0 -2 4 182.34 2.34
0 2 -4 182.19 1.71
0 2 -4 182.12 2.37
0 2 -3 63.74 1.26
0 2 -3 64.36 0.84
0 -2 3 64.04 1.25
0 2 -3 62.37 0.74
0 -2 2 5.16 0.33
0 2 -2 5.1 0.18
0 -2 2 5.27 0.19
0 2 -1 15.22 0.36
0 -2 1 14.79 0.34
0 2 0 22.13 0.57
0 -2 0 22.42 0.54
0 -2 -1 70.43 1.17
0 2 1 70.34 1.21
0 2 2 468.57 3.64
0 -2 -2 472.14 3.47
0 2 3 538.72 4.38
0 -2 -3 542.44 4.18
0 -2 -3 528.26 3.74
0 -2 -4 7.55 0.51
0 -2 -4 6.64 0.52
0 2 4 6.41 0.54
0 -2 -5 325.67 3.62
0 2 5 323.67 4.12
0 -2 -6 440.33 4.84
0 2 6 425.23 5.07
0 -2 -6 427.52 4.57
0 2 7 50.12 1.88
0 -2 -7 51.89 1.77
0 2 8 0.48 0.25
0 2 9 9.18 0.93
0 2 10 19.31 1.42
0 2 11 0.31 0.31
0 -3 12 1.99 0.49
0 -3 11 20.32 1.33
0 -3 10 5.73 0.69
0 -3 9 10.52 0.86
0 3 -9 10.15 0.64
0 3 -8 196.98 2.59
0 -3 8 194.56 3.45
0 3 -7 49.23 1.2
0 3 -7 49.13 1.68
0 -3 7 46.7 1.6
0 3 -6 32.45 1.27
0 3 -6 31.97 0.82
0 -3 6 33.32 1.26
0 3 -6 34.23 0.9
0 3 -5 6.19 0.35
0 3 -5 6.66 0.32
0 3 -5 5.98 0.51
0 -3 5 6.5 0.54
0 3 -4 441.83 2.53
0 3 -4 433.99 3.93
0 3 -4 438.74 2.15
0 -3 4 439.67 3.93
0 -3 3 150.74 2.14
0 -3 3 151.41 1.23
0 3 -3 151.99 1.15
0 -3 2 167.36 1.32
0 3 -2 167.94 1.33
0 3 -1 1022.13 4.12
0 -3 1 1003.81 3.71
0 -3 0 370.87 2.68
0 3 0 377.34 2.88
0 3 1 1519.77 6.68
0 -3 -1 1544.42 6.31
0 3 2 16.32 0.78
0 -3 -2 17.59 0.76
0 -3 -3 3.98 0.42
0 3 3 4.28 0.46
0 3 4 3.09 0.44
0 -3 -4 3.33 0.41
0 -3 -4 3.29 0.36
0 -3 -5 307.13 3.75
0 3 5 310.23 4.3
0 3 6 112 2.81
0 -3 -6 114.37 2.62
0 3 7 233.57 4.33
0 3 8 0.01 0.27
0 3 9 0.52 0.29
0 3 10 21.12 1.56
0 3 11 30.25 1.95
0 -4 11 3.34 0.57
0 -4 10 45.64 1.94
0 4 -10 46.91 1.28
0 4 -9 0.48 0.15
0 4 -9 0.29 0.14
0 -4 9 0.36 0.25
0 4 -8 2.06 0.25
0 4 -8 1.91 0.23
0 4 -7 9.65 0.49
0 4 -7 9.99 0.44
0 -4 7 10.09 0.8
0 4 -7 10.5 0.83
0 4 -6 0.81 0.13
0 4 -6 0.59 0.13
0 -4 6 0.54 0.2
0 4 -5 195.47 1.53
0 -4 5 196.07 3.01
0 4 -5 192.72 1.88
0 4 -4 49.27 0.75
0 -4 4 50.01 1.44
0 -4 3 2.5 0.19
0 -4 3 2.93 0.37
0 4 -3 2.75 0.2
0 4 -2 681.28 3.67
0 -4 2 666.46 3.23
0 4 -1 103.25 1.62
0 -4 1 102.71 1.43
0 -4 0 2.9 0.29
0 4 0 2.67 0.3
0 4 1 14.74 0.76
0 -4 -1 15.32 0.71
0 -4 -2 45.71 1.34
0 4 2 45.16 1.43
0 4 3 295.23 3.96
0 -4 -3 302 3.7
0 -4 -4 44.22 1.54
0 4 4 42.85 1.64
0 4 5 20.37 1.23
0 -4 -5 21.57 1.13
0 4 6 1.11 0.44
0 4 7 29.67 1.64
0 4 8 24.14 1.61
0 4 9 -0.02 0.36
0 4 10 7.91 1.03
0 -5 11 8.26 0.92
0 -5 10 0.72 0.34
0 5 -9 3.4 0.26
0 -5 9 3.1 0.55
0 5 -8 72.97 1.28
0 -5 8 70.68 2.25
0 5 -8 70.63 1.07
0 5 -7 0.01 0.07
0 5 -7 -0.15 0.14
0 5 -6 27.91 0.77
0 5 -6 28.65 0.6
0 -5 6 29.56 1.33
0 5 -5 164.99 1.48
0 -5 5 158.56 2.91
0 -5 4 0.32 0.1
0 5 -4 0.08 0.06
0 -5 3 2.8 0.24
0 5 -3 1.47 0.18
0 5 -2 76.85 1.49
0 -5 2 76.35 1.29
0 -5 1 212.92 2.38
0 5 -1 215.48 2.68
0 -5 0 0.83 0.2
0 5 0 0.94 0.22
0 5 1 151.68 2.68
0 -5 -1 153.13 2.45
0 5 2 35.1 1.4
0 -5 -2 34.74 1.26
0 -5 -3 0.78 0.23
0 5 3 0.64 0.25
0 5 4 61.38 2.12
0 5 5 5.33 0.7
0 5 6 87.27 2.84
0 5 7 1.63 0.49
0 5 8 25.14 1.73
0 5 9 2.49 0.59
0 -6 11 9.48 1.04
0 -6 10 9.39 0.95
0 -6 9 59.79 2.27
0 -6 8 18.67 1.26
0 6 -8 16.87 0.36
0 6 -8 18.25 0.59
0 6 -7 590.31 2.49
0 6 -7 580.76 3.59
0 -6 7 592.85 6.49
0 6 -6 106.65 1.22
0 6 -6 104.63 1.6
0 -6 6 103.77 2.65
0 -6 5 50.17 0.96
0 -6 5 49.86 1.78
0 6 -4 11.57 0.57
0 -6 4 11.34 0.49
0 -6 4 12.08 0.84
0 6 -3 481.91 3.97
0 -6 3 471.48 3.4
0 6 -2 25.92 1
0 -6 2 25.51 0.85
0 6 -1 85.95 1.96
0 -6 1 86.11 1.69
0 6 0 231.62 3.43
0 -6 0 230.83 3
0 6 1 104.92 2.46
0 -6 -1 108.46 2.26
0 6 2 12.53 0.92
0 -6 -2 12.65 0.84
0 6 3 58.8 2.11
0 6 4 145.18 3.47
0 6 5 8.07 0.91
0 6 6 69.35 2.7
0 6 7 14.43 1.32
0 6 8 20.17 1.63
0 -7 10 -0.16 0.37
0 -7 9 52.39 2.23
0 -7 8 28.62 1.58
0 7 -7 8.87 0.49
0 -7 7 8.64 0.9
0 7 -7 9.27 0.48
0 -7 6 -0.16 0.3
0 7 -6 0.19 0.15
0 -7 5 3.94 0.31
0 7 -5 3.86 0.37
0 -7 4 21.25 0.76
0 7 -4 21.74 0.91
0 7 -3 21.43 0.96
0 -7 3 20.95 0.81
0 7 -2 3.62 0.44
0 -7 2 3.68 0.37
0 -7 1 53.19 1.47
0 7 -1 55.49 1.76
0 7 0 3.76 0.5
0 -7 0 3.14 0.39
0 -7 -1 157.38 2.9
0 7 1 152.21 3.26
0 7 2 5.07 0.66
0 7 3 0.36 0.31
0 7 4 50.01 2.22
0 7 5 1.62 0.47
0 7 6 0.63 0.49
0 7 7 1.15 0.49
0 -8 10 1.86 0.51
0 -8 9 4.95 0.79
0 -8 8 4.67 0.74
0 -8 7 9.13 0.94
0 8 -7 9.05 0.52
0 -8 6 4.49 0.67
0 8 -6 4.78 0.44
0 -8 5 18.3 0.74
0 8 -5 19.06 0.9
0 -8 5 19.63 1.3
0 8 -4 73.33 1.88
0 -8 4 50.79 1.3
0 8 -3 1.55 0.32
0 -8 3 1.63 0.27
0 8 -2 59.38 1.9
0 -8 2 55.72 1.55
0 -8 1 270.01 3.63
0 8 -1 275.96 4.3
0 8 0 2.31 0.49
0 8 1 13.36 1.08
0 8 2 10.47 1.02
0 8 3 0.5 0.33
0 8 4 3.75 0.72
0 8 5 3.18 0.68
0 -9 9 0.56 0.38
0 -9 8 8.94 1.02
0 -9 7 7.27 0.89
0 -9 6 46.42 2.16
0 9 -6 45.8 1.49
0 9 -5 1.6 0.32
0 -9 5 1.54 0.45
0 9 -4 38.57 1.54
0 -9 4 38.34 1.25
0 -9 3 6.82 0.57
0 9 -3 7.17 0.71
0 -9 2 88.16 2.12
0 9 -2 92.49 2.63
0 9 -1 20.19 1.32
0 9 0 102.42 3.01
0 9 1 7.07 0.88
0 9 2 6.47 0.87
0 9 3 38.96 2.17
0 9 4 20.26 1.63
0 -10 7 2.51 0.6
0 -10 6 11.11 1.17
0 10 -5 17.6 1.1
0 -10 5 17.87 1.43
0 10 -4 15.65 1.09
0 10 -3 0.82 0.3
0 10 -2 13.83 1.11
0 10 -1 20 1.42
0 10 0 10.24 1.08
0 10 1 8.65 1.03
0 10 2 0.81 0.43
0 10 3 4.82 0.83
0 -11 5 4.47 0.82
0 11 -4 2.73 0.55
0 11 -3 -0.12 0.35
0 11 -2 5.44 0.81
0 11 -1 12.51 1.22
0 11 0 3.36 0.71
0 11 1 0.22 0.35
0 12 -2 0.25 0.32
0 12 -1 1.75 0.58
-1 12 -1 4.4 0.78
-1 12 -2 0.1 0.31
-1 12 -3 9.18 1.03
-1 11 1 5.19 0.87
-1 11 0 7.13 0.94
-1 11 -1 2.42 0.57
-1 11 -2 5.1 0.76
-1 11 -3 10.1 0.98
-1 11 -4 -0.21 0.32
1 -11 5 1.21 0.5
-1 10 3 2.53 0.62
-1 10 2 -0.09 0.33
-1 10 1 9.5 1.04
-1 10 0 30.64 1.75
-1 10 -1 82.97 2.79
-1 10 -2 4.75 0.65
-1 10 -3 3.35 0.53
-1 10 -4 22.84 1.29
1 -10 5 32.73 1.91
-1 10 -5 30.4 1.43
1 -10 6 0.72 0.33
1 -10 7 0.03 0.27
1 -10 8 1.44 0.5
-1 9 5 10.84 1.22
-1 9 4 4.09 0.76
-1 9 3 9.43 1.04
-1 9 2 22.52 1.51
-1 9 1 3.86 0.64
-1 9 0 73.62 2.48
-1 9 -1 152.93 3.39
-1 9 -2 0.18 0.29
1 -9 2 0.35 0.18
-1 9 -3 20.36 1.14
1 -9 3 18.85 0.96
1 -9 4 0.19 0.2
-1 9 -4 0.21 0.2
-1 9 -5 77.47 2.05
1 -9 5 77.18 2.69
1 -9 6 0.72 0.39
-1 9 -6 0.37 0.17
1 -9 7 10.16 1.06
1 -9 8 7.14 0.9
1 -9 9 0.56 0.4
-1 8 6 1.46 0.54
-1 8 5 1.77 0.57
-1 8 4 58.19 2.48
-1 8 3 3.71 0.61
-1 8 2 47.99 2.03
-1 8 1 41.67 1.78
-1 8 0 154.34 3.26
-1 8 -1 14 0.95
1 -8 1 12.64 0.79
1 -8 2 0.16 0.15
-1 8 -2 -0.07 0.27
-1 8 -3 0.23 0.23
1 -8 3 0.05 0.13
-1 8 -4 3.76 0.45
1 -8 4 2.26 0.31
1 -8 5 167.57 3.65
-1 8 -5 166.68 2.47
-1 8 -6 4.22 0.39
1 -8 6 3.74 0.57
-1 8 -7 1.76 0.24
1 -8 7 1.98 0.46
1 -8 8 45.85 2.08
1 -8 9 3.27 0.61
1 -8 10 3.49 0.65
-1 7 7 20.24 1.58
-1 7 6 0.22 0.32
-1 7 5 125.43 3.55
-1 7 4 35.51 1.78
-1 7 3 18.58 1.24
-1 7 2 -0.32 0.34
1 -7 -1 187.74 3.06
-1 7 1 190.18 3.46
1 -7 0 54.94 1.57
-1 7 0 58.48 1.81
-1 7 -1 28.18 1.19
1 -7 1 27.73 1.06
1 -7 2 33.46 1.11
-1 7 -2 34.97 1.25
-1 7 -3 50 1.36
1 -7 3 47.06 1.28
1 -7 4 4.69 0.57
-1 7 -4 3.62 0.36
1 -7 4 3.82 0.37
-1 7 -5 105.16 1.77
1 -7 5 105.01 2.69
-1 7 -6 64.88 1.34
1 -7 6 62.96 2.17
-1 7 -7 99.7 2.03
-1 7 -7 104.92 1.64
1 -7 7 102.8 2.84
1 -7 8 2.67 0.53
1 -7 9 17.66 1.31
1 -7 10 9.87 1.04
-1 6 9 18.5 1.6
-1 6 8 28.98 1.9
-1 6 7 0.16 0.34
-1 6 6 3.33 0.6
-1 6 5 1.62 0.47
-1 6 4 7.48 0.78
-1 6 3 183.9 3.51
-1 6 2 6.1 0.61
1 -6 -2 5.65 0.53
1 -6 -1 0.04 0.15
-1 6 1 -0.11 0.19
-1 6 0 397.61 4.27
1 -6 0 399.01 3.86
-1 6 -1 310.05 3.41
1 -6 1 299.67 3.18
-1 6 -1 306.84 3.5
-1 6 -2 15.1 0.71
1 -6 2 14.62 0.68
1 -6 3 187.35 2.33
-1 6 -3 183.81 2.31
-1 6 -4 56.16 1.22
1 -6 4 56.64 1.29
1 -6 4 56.51 1.79
1 -6 5 7.82 0.69
-1 6 -5 7.84 0.44
-1 6 -6 0.54 0.18
1 -6 6 1.77 0.44
-1 6 -6 1.2 0.23
-1 6 -7 4.47 0.35
-1 6 -7 4.95 0.47
1 -6 7 4.5 0.65
1 -6 8 43.44 1.82
-1 6 -8 44.03 1.09
-1 6 -8 43.61 1.34
1 -6 9 10.96 0.99
1 -6 10 15.68 1.24
1 -6 11 7.71 0.92
-1 5 10 2.29 0.65
-1 5 9 1.87 0.52
-1 5 8 18.33 1.42
-1 5 7 4.1 0.67
-1 5 6 -0.01 0.28
-1 5 5 108.78 2.81
-1 5 4 15.03 0.99
1 -5 -4 15.31 0.93
1 -5 -3 26.05 1.12
-1 5 3 27.56 1.24
1 -5 -2 249.55 3.21
-1 5 2 245.85 3.44
1 -5 -1 0.1 0.13
-1 5 1 0.07 0.17
-1 5 0 39.58 1.17
1 -5 0 39.5 1.1
-1 5 0 41.1 1.22
1 -5 1 726.08 4.43
-1 5 -1 739.87 4.66
1 -5 2 0.15 0.13
-1 5 -2 0.25 0.14
-1 5 -3 56.3 1.15
1 -5 3 57.87 1.21
-1 5 -4 10.3 0.48
1 -5 4 9.72 0.51
1 -5 4 10.91 0.72
-1 5 -5 45.48 1.03
-1 5 -5 46.02 1.22
1 -5 5 44.83 1.53
1 -5 6 33.97 1.39
-1 5 -6 32.83 1.09
-1 5 -6 33.31 0.91
1 -5 7 171.03 3.27
-1 5 -7 165.32 2.54
-1 5 -7 165.35 2.13
1 -5 8 27.34 1.39
-1 5 -8 26.29 1.08
-1 5 -8 26.76 0.92
1 -5 9 18.7 1.23
-1 5 -9 17.58 0.8
1 -5 10 16.78 1.22
1 -5 11 8.61 0.93
-1 4 11 10 1.17
-1 4 10 18.29 1.46
-1 4 9 3.32 0.62
-1 4 8 41.13 1.97
-1 4 7 108.32 3
-1 4 6 247.01 4.24
1 -4 -5 152.89 2.75
-1 4 5 152.1 3.06
1 -4 -5 152.72 2.88
-1 4 4 25.67 1.18
1 -4 -4 24.66 1.04
1 -4 -4 25.33 1.1
-1 4 3 47.69 1.46
1 -4 -3 48.12 1.39
-1 4 2 1761.66 8.28
1 -4 -2 1769.74 7.67
-1 4 1 28.27 0.95
1 -4 -1 27.97 0.89
-1 4 0 131.94 1.86
1 -4 0 126.84 1.75
1 -4 1 3.46 0.28
-1 4 -1 3.08 0.27
-1 4 -2 929.98 4.27
1 -4 2 931.03 4.39
-1 4 -3 115.44 1.49
1 -4 3 114.76 2.02
1 -4 3 117.29 1.6
1 -4 4 336.31 3.63
-1 4 -4 337.51 2.62
1 -4 5 58.83 1.6
-1 4 -5 60.13 1.37
-1 4 -5 59.28 1.16
-1 4 -6 529.46 4.34
-1 4 -6 529.71 5.3
1 -4 6 521.59 5.15
-1 4 -6 526.74 3.76
-1 4 -7 27.22 1.3
-1 4 -7 27.5 0.94
1 -4 7 27.92 1.27
-1 4 -7 25.52 1.02
-1 4 -8 53.79 1.58
-1 4 -8 53.69 1.41
1 -4 8 54.95 1.94
-1 4 -9 3.99 0.43
-1 4 -9 3.4 0.44
1 -4 9 3.44 0.53
1 -4 10 18.57 1.23
-1 4 -10 19.57 0.98
1 -4 11 -0.04 0.33
-1 3 11 5.54 0.83
-1 3 10 8.61 0.97
-1 3 9 14.07 1.16
-1 3 8 -0.08 0.3
-1 3 7 319.36 4.76
-1 3 6 136.63 2.91
1 -3 -6 136.79 2.68
1 -3 -6 137.35 2.74
1 -3 -5 5.94 0.54
1 -3 -5 6.47 0.54
-1 3 5 6.64 0.61
-1 3 4 2.74 0.37
1 -3 -4 2.48 0.31
1 -3 -4 2.51 0.33
1 -3 -3 193.55 2.55
-1 3 3 196.84 2.67
-1 3 2 1489.09 6.63
1 -3 -2 1472.69 6.3
1 -3 -1 70.68 1.25
-1 3 1 71.67 1.3
1 -3 0 549.38 3.18
-1 3 0 553.63 3.27
1 -3 1 257.97 2.1
-1 3 -1 255.97 2.06
-1 3 -2 63.1 1.02
1 -3 2 63.06 1.06
1 -3 2 63.1 1.25
1 -3 3 17.14 0.7
-1 3 -3 16.98 0.55
-1 3 -4 612.28 3.67
-1 3 -4 618.56 4.59
-1 3 -4 616.04 4.08
1 -3 4 621.83 4.5
-1 3 -5 1 0.23
-1 3 -5 0.88 0.17
1 -3 5 0.77 0.21
-1 3 -6 0.29 0.17
-1 3 -6 0.17 0.19
-1 3 -6 0.17 0.17
1 -3 6 0.43 0.18
-1 3 -7 1.36 0.27
1 -3 7 1.58 0.34
-1 3 -7 1.35 0.24
-1 3 -7 1.73 0.33
-1 3 -8 12.89 0.82
1 -3 8 11.96 0.84
-1 3 -9 0.22 0.22
1 -3 9 0.02 0.28
1 -3 10 39.51 1.75
-1 3 -10 40.33 1.53
1 -3 11 8.26 0.86
-1 2 11 16.69 1.33
-1 2 10 4.89 0.71
-1 2 9 22.42 1.36
-1 2 8 200.45 3.79
1 -2 -7 79.93 2.07
-1 2 7 77.57 2.18
1 -2 -6 10.21 0.7
-1 2 6 10.38 0.76
1 -2 -6 10.01 0.71
1 -2 -6 11.25 0.71
1 -2 -5 6.45 0.52
1 -2 -5 5.84 0.49
-1 2 5 6.31 0.54
-1 2 4 1004.25 6.01
1 -2 -4 999.58 5.7
1 -2 -4 987.98 5.52
-1 2 3 249.61 2.65
1 -2 -3 248.98 2.48
1 -2 -3 251.26 2.57
1 -2 -2 248.07 2.25
-1 2 2 250.72 2.33
1 -2 -1 2151.51 5.85
-1 2 1 2164.52 6.02
1 -2 0 271.19 1.92
-1 2 0 274.29 1.92
-1 2 -1 204.63 1.64
1 -2 1 208.46 1.68
1 -2 2 54.31 0.99
-1 2 -2 55.05 0.92
1 -2 3 564.09 3.59
-1 2 -3 563.81 3.6
-1 2 -3 558.6 3.64
-1 2 -4 160.53 2.14
-1 2 -4 160.62 2.2
1 -2 4 161.87 2.19
1 -2 5 57.56 1.35
1 -2 5 61.03 1.5
-1 2 -5 57.88 1.49
-1 2 -5 57.95 1.42
1 -2 6 104.51 1.99
-1 2 -6 103.77 2.08
1 -2 6 101.7 2.09
-1 2 -6 104.88 2.21
1 -2 7 3.75 0.48
1 -2 7 3.91 0.45
-1 2 -7 3.67 0.46
-1 2 -7 3.86 0.5
1 -2 8 132.95 2.64
-1 2 -8 132.77 2.75
1 -2 8 133.36 2.76
1 -2 9 42.97 1.69
1 -2 9 43.9 1.63
-1 2 -9 42.74 1.64
1 -2 10 7.4 0.74
1 -2 10 6.78 0.75
1 -2 11 19.75 1.3
-1 1 11 20.94 1.38
-1 1 10 0.76 0.3
-1 1 9 30.27 1.46
1 -1 -8 236.07 3.42
-1 1 8 232.89 3.63
1 -1 -8 231.69 3.54
-1 1 8 234.09 3.76
-1 1 7 69.04 1.85
1 -1 -7 72.45 1.84
-1 1 7 72.41 1.94
1 -1 -7 72.25 1.76
1 -1 -7 69.07 1.96
1 -1 -6 46.84 1.3
-1 1 6 47.26 1.43
-1 1 6 45.53 1.36
1 -1 -6 48.3 1.51
1 -1 -5 7.34 0.5
1 -1 -5 7.41 0.48
-1 1 5 7.06 0.49
1 -1 -5 6.52 0.5
-1 1 5 7.04 0.51
1 -1 -4 349.11 3
1 -1 -4 351.89 2.89
-1 1 4 344.23 3.01
-1 1 4 349.77 3.11
1 -1 -4 344.97 3.13
1 -1 -3 425.84 3.01
1 -1 -3 437.45 2.92
-1 1 3 435.51 2.96
-1 1 3 427.19 2.9
1 -1 -2 384.24 2.34
-1 1 2 386.64 2.4
-1 1 2 376.51 2.29
1 -1 -2 378.03 2.34
1 -1 -1 1972.57 4.54
-1 1 1 1958.83 4.58
-1 1 -1 1275.96 3.2
1 -1 1 1308.93 3.25
1 -1 2 5.41 0.32
-1 1 -2 5.36 0.28
-1 1 -2 5.63 0.33
1 -1 2 6.02 0.29
1 -1 3 10.72 0.47
1 -1 3 10.64 0.51
-1 1 -3 10.27 0.52
-1 1 -3 11.03 0.48
1 -1 4 607.98 4
-1 1 -4 601.63 4.41
-1 1 -4 598.61 4.13
1 -1 4 600.73 4.29
-1 1 -5 443.23 4.01
-1 1 -5 442.2 4.21
1 -1 5 442.4 3.86
1 -1 5 440.87 4.02
1 -1 6 145.48 2.54
-1 1 -6 152.8 2.69
-1 1 -6 143.92 2.58
1 -1 6 148.22 2.45
-1 1 -7 53.97 1.72
-1 1 -7 52.8 1.69
1 -1 7 53.5 1.61
1 -1 7 53.63 1.68
1 -1 8 18.12 1.06
-1 1 -8 17.15 1.05
1 -1 8 16.99 0.99
1 -1 9 53.13 1.92
1 -1 9 53.12 1.86
-1 1 -9 52.42 1.91
1 -1 10 1.41 0.36
1 -1 10 1.3 0.37
1 -1 11 2.23 0.48
-1 0 11 22.18 1.31
-1 0 11 22.26 1.39
-1 0 10 4.18 0.56
-1 0 10 4.67 0.63
-1 0 9 66.77 1.98
1 0 -9 72.68 2
-1 0 9 72.22 2.14
1 0 -8 38.83 1.28
-1 0 8 36.83 1.37
-1 0 8 36.99 1.43
1 0 -8 35.9 1.3
1 0 -7 43.99 1.54
-1 0 7 45.68 1.4
-1 0 7 43.12 1.43
1 0 -7 44.56 1.25
1 0 -6 444.44 3.56
-1 0 6 442.22 3.92
-1 0 6 430.15 4.14
1 0 -6 427.66 4.38
1 0 -5 4.53 0.42
1 0 -5 4.62 0.34
-1 0 5 4.63 0.41
-1 0 5 4.83 0.37
-1 0 4 315.17 2.86
1 0 -4 321.9 2.47
1 0 -4 316.54 2.97
1 0 -3 157.81 1.43
-1 0 3 155.9 1.42
-1 0 3 153.13 1.72
1 0 -3 152.97 1.78
-1 0 2 16.26 0.46
-1 0 2 16.34 0.37
1 0 -2 16.08 0.47
-1 0 -1 238.96 1.3
1 0 1 243.17 2
-1 0 -1 246.23 2.03
-1 0 -2 272.58 1.93
1 0 2 278.54 2.53
1 0 2 277.25 1.93
-1 0 -2 273.14 2.53
1 0 3 317.53 3.07
1 0 3 318.33 2.49
-1 0 -3 316.47 3.1
-1 0 -3 313.83 2.56
1 0 4 201.47 2.72
-1 0 -4 201.99 2.75
1 0 4 202.3 2.31
-1 0 -4 203.87 2.48
1 0 5 76.79 1.84
1 0 5 73.87 1.57
-1 0 -5 75.1 1.84
-1 0 -5 73.33 1.64
-1 0 -6 168.55 3
1 0 6 169.24 2.95
-1 0 -6 164.07 2.75
1 0 6 167.96 2.61
-1 0 -7 9.35 0.75
-1 0 -7 9.42 0.74
1 0 7 9.56 0.78
1 0 7 9.35 0.67
1 0 8 0.3 0.26
1 0 8 0.43 0.27
-1 0 -8 -0.04 0.24
1 0 9 23.48 1.38
1 0 10 9.34 0.93
1 0 11 22.97 1.53
-1 -1 12 21.79 1.46
-1 -1 11 8.65 0.88
-1 -1 11 10.05 0.81
-1 -1 10 1.6 0.33
-1 -1 10 1.91 0.42
1 1 -10 1.53 0.3
1 1 -9 15.3 0.84
-1 -1 9 14.41 0.84
-1 -1 9 13.65 0.97
-1 -1 8 141.65 2.81
-1 -1 8 139.58 2.36
1 1 -8 142.72 2.34
1 1 -8 141.8 2.18
1 1 -7 -0.01 0.19
-1 -1 7 0.15 0.13
1 1 -7 0.14 0.11
-1 -1 6 343.45 2.94
1 1 -6 339.83 3.87
-1 -1 6 336.02 3.7
1 1 -6 345.34 2.74
1 1 -5 45.41 1.29
1 1 -5 47.54 0.85
-1 -1 5 45.79 0.92
-1 -1 5 47.24 1.29
-1 -1 4 0.54 0.09
-1 -1 4 0.58 0.15
1 1 -4 0.64 0.15
1 1 -4 0.72 0.1
-1 -1 3 91.39 1.41
1 1 -3 93.59 0.75
1 1 -3 94.12 1.46
1 1 -2 576.08 3.07
-1 -1 2 578.24 3.04
1 1 -1 29.63 0.5
-1 -1 1 29.73 0.51
1 1 0 197.23 1.75
-1 -1 0 198.41 1.75
1 1 1 1241.79 5.26
-1 -1 -1 1258.25 5.31
-1 -1 -2 132.67 1.5
-1 -1 -2 137.95 2.02
1 1 2 134.69 1.99
-1 -1 -3 40.85 1.22
-1 -1 -3 39.38 0.95
1 1 3 38.79 1.2
-1 -1 -4 449.64 4.44
1 1 4 444.69 4.43
-1 -1 -4 441.53 3.65
1 1 5 0.1 0.18
-1 -1 -5 0.28 0.2
-1 -1 -5 0.16 0.13
-1 -1 -6 13.15 0.81
-1 -1 -6 12.84 0.88
1 1 6 12.45 0.89
1 1 7 6.46 0.68
-1 -1 -7 6.18 0.64
1 1 8 34.83 1.66
1 1 9 12.25 1.08
1 1 10 30.55 1.77
1 1 11 8.32 0.99
-1 -2 12 15.92 1.25
-1 -2 11 38.99 1.8
-1 -2 10 0.31 0.23
-1 -2 10 0.32 0.16
-1 -2 9 44.01 1.24
1 2 -9 44.39 1.29
-1 -2 9 42.9 1.69
1 2 -8 19.23 0.76
1 2 -8 19.82 0.7
-1 -2 8 19.58 0.74
-1 -2 8 19.33 1.06
-1 -2 7 3.91 0.47
-1 -2 7 3.69 0.29
1 2 -7 3.74 0.46
1 2 -7 4 0.28
1 2 -6 128.12 2.46
1 2 -6 135.99 1.34
-1 -2 6 132.42 2.4
-1 -2 6 131.66 1.4
1 2 -5 968.13 3.18
-1 -2 5 941.26 5.96
1 2 -5 962.65 2.64
1 2 -5 946.58 6.08
1 2 -4 278.81 2.99
-1 -2 4 276.96 2.92
1 2 -3 7.61 0.46
-1 -2 3 7.69 0.46
1 2 -2 1773.62 3.89
-1 -2 2 1802.27 3.64
1 2 -1 6480.92 10.04
-1 -2 1 6622.73 9.84
-1 -2 0 198.83 2.06
1 2 0 200.76 2.13
-1 -2 -1 540.43 3.89
1 2 1 527.24 3.98
-1 -2 -2 377.6 3.62
1 2 2 361.5 3.67
-1 -2 -3 1.27 0.24
1 2 3 1.35 0.27
-1 -2 -3 1.31 0.2
-1 -2 -4 10.65 0.61
1 2 4 9.84 0.74
-1 -2 -5 1.31 0.27
-1 -2 -5 1.22 0.3
1 2 5 1.33 0.33
-1 -2 -6 146.84 3.1
-1 -2 -6 142.14 2.69
1 2 6 147.13 3.19
1 2 7 37.54 1.73
1 2 8 37.56 1.84
1 2 9 26.92 1.67
1 2 10 2.36 0.58
1 2 11 2.72 0.64
-1 -3 12 -0.21 0.32
-1 -3 11 0.39 0.25
-1 -3 10 2.01 0.45
1 3 -9 99.77 1.63
-1 -3 9 96.59 2.6
-1 -3 8 0.01 0.21
1 3 -8 0.09 0.08
1 3 -7 69.56 0.99
1 3 -7 73.35 1.02
-1 -3 7 69.86 1.97
1 3 -7 72.19 2.07
1 3 -6 251.9 3.55
-1 -3 6 251.66 3.46
1 3 -6 247.57 1.39
-1 -3 5 38.32 1.25
1 3 -5 38.37 1.29
-1 -3 4 0.16 0.15
-1 -3 3 181.8 2.41
1 3 -3 184.74 1.36
1 3 -2 6.96 0.35
1 3 -1 255.6 2.45
-1 -3 1 258.34 2.3
1 3 0 83.02 1.6
-1 -3 0 83.39 1.51
-1 -3 -1 595.11 4.54
1 3 1 574.79 4.66
-1 -3 -2 271.51 3.35
1 3 2 260.6 3.42
1 3 3 109.33 2.4
-1 -3 -3 111.13 2.34
-1 -3 -4 83.54 2.17
1 3 4 83.01 2.26
-1 -3 -4 81.01 1.8
-1 -3 -5 161.52 2.78
1 3 5 164.19 3.4
-1 -3 -5 164.63 3.22
1 3 6 60.3 2.19
1 3 7 215.83 4.38
1 3 8 10.2 1.05
1 3 9 7.61 0.96
1 3 10 2.99 0.7
-1 -4 12 0.09 0.3
-1 -4 11 33.97 1.76
-1 -4 10 5.65 0.71
-1 -4 9 41.77 1.77
1 4 -9 39.65 0.7
1 4 -9 40.68 0.71
1 4 -8 49.97 0.56
1 4 -8 50.82 0.55
-1 -4 8 53.73 1.9
-1 -4 7 26.94 1.28
-1 -4 6 260.28 3.67
-1 -4 5 3.41 0.42
-1 -4 4 96.58 2.05
1 4 -4 100.33 1.09
-1 -4 3 67.15 0.84
1 4 -3 68.24 1.12
1 4 -2 4.69 0.36
-1 -4 2 4.58 0.29
-1 -4 1 202.01 2.31
1 4 -1 200.15 2.53
-1 -4 0 31.13 1.03
1 4 0 30.75 1.1
-1 -4 -1 912.95 6.06
1 4 1 888.15 6.45
-1 -4 -2 81.03 1.98
1 4 2 80.09 2.07
1 4 3 52.41 1.81
-1 -4 -3 52.9 1.72
-1 -4 -4 70.92 2.12
1 4 4 70.28 2.23
-1 -4 -4 68.9 1.82
1 4 5 642.72 7.18
1 4 6 3.37 0.62
1 4 7 0.05 0.27
1 4 8 4.47 0.74
1 4 9 1.65 0.54
-1 -5 11 1.35 0.49
-1 -5 10 26.75 1.56
-1 -5 9 10.88 0.95
-1 -5 8 41.2 1.75
-1 -5 7 62.34 2.02
-1 -5 6 0.07 0.23
1 5 -5 5.67 0.28
-1 -5 5 5.71 0.57
1 5 -4 4.88 0.33
-1 -5 4 4.5 0.22
-1 -5 4 5.05 0.54
1 5 -3 629.73 4.17
-1 -5 3 621.64 3.22
1 5 -2 47.29 1.27
-1 -5 2 45.64 1.07
-1 -5 1 43.39 1.16
1 5 -1 44.29 1.35
1 5 0 794.34 6.18
-1 -5 0 800.94 5.66
-1 -5 -1 162.6 2.8
1 5 1 159.53 2.98
-1 -5 -2 7.21 0.65
1 5 2 6.69 0.68
1 5 3 53.52 1.97
1 5 4 6.62 0.76
1 5 5 95.55 2.95
1 5 6 39.69 2.02
1 5 7 34.56 2
1 5 8 -0.02 0.33
-1 -6 11 1.45 0.45
-1 -6 10 3.49 0.63
-1 -6 9 2.49 0.54
-1 -6 8 23.96 1.42
-1 -6 7 30.12 1.51
1 6 -6 1.22 0.13
1 6 -6 1.25 0.14
-1 -6 6 1.11 0.32
-1 -6 5 18.52 1.11
-1 -6 5 17.54 0.42
1 6 -5 19.27 0.68
-1 -6 4 49.72 0.93
1 6 -4 53.27 1.27
-1 -6 4 50.9 1.79
-1 -6 3 208.8 2.23
1 6 -3 215.44 2.84
1 6 -2 0.21 0.19
-1 -6 2 0.42 0.15
1 6 -1 11.96 0.8
-1 -6 1 13.25 0.72
-1 -6 0 59.3 1.64
1 6 0 59.82 1.88
-1 -6 -1 14.59 0.91
-1 -6 -1 13.73 0.87
1 6 1 14.6 1.02
1 6 2 2.47 0.49
1 6 3 4.06 0.61
1 6 4 22.06 1.46
1 6 5 -0.07 0.34
1 6 6 17.81 1.45
1 6 7 0.45 0.43
-1 -7 10 10.64 1.1
-1 -7 9 43.88 2.07
-1 -7 8 3.04 0.63
-1 -7 7 17.69 1.24
1 7 -6 25.1 0.78
-1 -7 6 23.43 1.39
-1 -7 5 8.77 0.39
-1 -7 5 8.56 0.83
1 7 -5 9.37 0.57
1 7 -4 11.36 0.69
-1 -7 4 11.17 0.53
1 7 -3 49.24 1.56
-1 -7 3 47.09 1.2
-1 -7 2 20.35 0.89
1 7 -2 20.05 1.08
-1 -7 1 67.42 1.74
1 7 -1 68.23 2.06
-1 -7 0 -0.04 0.19
1 7 0 0.07 0.25
1 7 1 4.49 0.64
1 7 2 41.59 1.91
1 7 3 56.37 2.33
1 7 4 4.13 0.71
1 7 5 3.14 0.68
1 7 6 10.09 1.18
-1 -8 10 0.57 0.43
-1 -8 9 0.23 0.36
-1 -8 8 150.88 3.91
-1 -8 7 34.1 1.8
1 8 -6 11.01 0.62
-1 -8 6 10.85 1
-1 -8 5 12.22 0.54
-1 -8 5 12.23 1.05
1 8 -5 12.39 0.76
1 8 -4 3.52 0.46
-1 -8 4 2.31 0.28
-1 -8 3 0.09 0.13
1 8 -3 0.09 0.2
1 8 -2 7.66 0.76
-1 -8 2 6.83 0.57
-1 -8 1 69.37 1.91
1 8 -1 72.17 2.32
1 8 0 1.7 0.43
1 8 1 -0.17 0.29
1 8 2 56.51 2.41
1 8 3 13.8 1.27
1 8 4 19.71 1.58
1 8 5 6.76 1
-1 -9 9 1.02 0.48
-1 -9 8 0.16 0.36
-1 -9 7 17.6 1.39
-1 -9 6 23.4 1.56
1 9 -5 4.56 0.53
-1 -9 5 3.77 0.65
1 9 -4 0.73 0.27
-1 -9 3 4.65 0.47
1 9 -3 5.79 0.67
-1 -9 2 56.45 1.73
1 9 -2 56.75 2.13
1 9 -1 14.99 1.17
1 9 0 61.2 2.44
1 9 1 6.17 0.84
1 9 2 14.09 1.31
1 9 3 0.49 0.48
-1 -10 7 0.54 0.39
-1 -10 6 26.27 1.8
-1 -10 5 19.75 1.53
1 10 -4 0.35 0.23
1 10 -3 0.46 0.31
1 10 -2 138.44 3.63
1 10 -1 1.04 0.43
1 10 0 0.42 0.29
1 10 1 2.17 0.58
1 10 2 5.33 0.91
1 11 -3 4.87 0.74
1 11 -2 11.38 1.15
1 11 -1 11.94 1.23
1 11 0 4.38 0.8
-2 12 -1 0.93 0.45
-2 12 -2 2.18 0.55
-2 12 -3 5.09 0.76
-2 11 2 41.11 2.3
-2 11 1 1.22 0.48
-2 11 0 0.86 0.41
-2 11 -1 32.65 1.83
-2 11 -2 1.64 0.49
-2 11 -3 -0.15 0.3
-2 11 -4 0.39 0.27
2 -11 4 0.42 0.36
2 -11 5 4.37 0.79
2 -11 6 8.47 1.06
-2 10 3 2.37 0.6
-2 10 2 7.65 0.96
-2 10 1 15.9 1.3
-2 10 0 4.99 0.73
-2 10 -1 -0.19 0.34
-2 10 -2 -0.25 0.32
-2 10 -3 0 0.26
2 -10 4 44.19 2.13
-2 10 -4 40.23 1.68
-2 10 -5 0.13 0.23
2 -10 5 0.34 0.34
2 -10 6 -0.05 0.31
-2 10 -6 0.13 0.19
2 -10 7 9.33 1.05
2 -10 8 2.26 0.59
-2 9 5 1.13 0.46
-2 9 4 0.11 0.31
-2 9 3 4.87 0.74
-2 9 2 5.2 0.74
-2 9 1 25.23 1.5
-2 9 0 3.19 0.58
-2 9 -1 61.24 2.14
-2 9 -2 63.22 2.06
2 -9 3 15.53 0.92
-2 9 -3 16.3 0.97
2 -9 4 63.99 1.86
2 -9 4 66.7 2.43
-2 9 -4 65.36 1.86
2 -9 5 27.15 1.57
-2 9 -5 27.84 1.19
2 -9 6 1.88 0.46
-2 9 -6 2.4 0.36
2 -9 7 9.25 0.98
2 -9 8 0.36 0.36
2 -9 9 0.76 0.33
-2 8 7 2.6 0.66
-2 8 6 0.47 0.35
-2 8 5 6.83 0.89
-2 8 4 88.84 2.96
-2 8 3 1.79 0.42
-2 8 2 0.05 0.26
-2 8 1 342.97 4.96
-2 8 0 407.04 5.13
-2 8 -1 23.96 1.17
2 -8 1 24.03 1.11
-2 8 -1 22.69 1.16
-2 8 -2 109.82 2.4
2 -8 2 110.94 2.33
2 -8 3 1 0.26
-2 8 -3 0.88 0.24
2 -8 4 46.97 1.91
2 -8 4 49.28 1.56
-2 8 -4 48.25 1.48
-2 8 -5 6.34 0.53
2 -8 5 5.5 0.68
2 -8 5 5.51 0.52
2 -8 6 0.65 0.33
-2 8 -6 0.69 0.22
-2 8 -7 30.33 1.09
2 -8 7 30.27 1.62
2 -8 8 4.16 0.63
2 -8 9 10.45 1.04
2 -8 10 3.84 0.68
-2 7 8 6.69 0.98
-2 7 7 10.21 1.11
-2 7 6 31.2 1.82
-2 7 5 0.9 0.45
-2 7 4 7.48 0.8
-2 7 3 49.22 1.89
-2 7 2 1.41 0.37
2 -7 -1 48.43 1.56
-2 7 1 48.36 1.7
-2 7 0 86.57 2.12
2 -7 0 84.9 1.98
-2 7 -1 15.29 0.85
2 -7 1 15.25 0.82
2 -7 2 7.37 0.57
-2 7 -2 8.27 0.6
-2 7 -3 35.71 1.2
2 -7 3 37.23 1.26
2 -7 4 32.25 1.44
2 -7 4 33.35 1.2
-2 7 -4 32.03 1.11
2 -7 5 3.28 0.48
-2 7 -5 4.17 0.39
2 -7 6 97.89 2.64
-2 7 -6 95.49 2.27
-2 7 -6 96.27 1.88
-2 7 -7 4.26 0.5
-2 7 -7 4.5 0.43
2 -7 7 4.46 0.62
2 -7 8 19.66 1.28
-2 7 -8 20.06 0.88
2 -7 9 9.49 0.95
2 -7 10 3.14 0.62
-2 6 9 12.08 1.24
-2 6 8 0.48 0.36
-2 6 7 1.16 0.41
-2 6 6 76.75 2.61
-2 6 5 2.85 0.53
-2 6 4 0.11 0.25
-2 6 3 182.29 3.36
2 -6 -3 178.98 3.06
2 -6 -2 9.85 0.69
-2 6 2 10.87 0.81
2 -6 -1 1.38 0.28
-2 6 1 1.21 0.29
-2 6 0 28.03 1.1
2 -6 0 26.48 1.01
2 -6 1 3.51 0.38
-2 6 -1 3.35 0.38
-2 6 -2 26.76 0.98
2 -6 2 27.41 1
2 -6 3 157.17 2.43
-2 6 -3 155.86 2.3
2 -6 4 99.35 1.96
2 -6 4 97.87 2.27
-2 6 -4 97.87 1.81
2 -6 5 49.5 1.69
-2 6 -5 49.11 1.28
-2 6 -6 106.79 1.94
-2 6 -6 104.29 2.33
2 -6 6 105.14 2.53
-2 6 -7 59.11 1.8
2 -6 7 60.92 2.04
-2 6 -7 60.87 1.52
2 -6 8 11.12 0.93
-2 6 -8 11.53 0.69
2 -6 9 8.8 0.88
-2 6 -9 8.24 0.61
2 -6 10 3.55 0.64
2 -6 11 4.35 0.69
-2 5 10 40.4 2.25
-2 5 9 28.05 1.76
-2 5 8 28.29 1.68
-2 5 7 20.32 1.35
-2 5 6 104.96 2.86
-2 5 5 0.9 0.3
2 -5 -4 29.11 1.22
-2 5 4 30.98 1.34
-2 5 3 31.37 1.25
2 -5 -3 43.2 1.37
-2 5 2 1.78 0.31
2 -5 -2 2.31 0.31
-2 5 2 2.47 0.38
-2 5 1 548.08 4.63
2 -5 -1 534.77 4.37
2 -5 0 2.13 0.28
-2 5 0 2.15 0.3
2 -5 1 533.11 4.13
-2 5 -1 532.2 4.12
-2 5 -2 243.7 2.71
2 -5 2 243.93 2.82
2 -5 3 110.33 2.14
2 -5 3 110.43 1.94
-2 5 -3 106.92 1.78
-2 5 -4 74.52 1.52
2 -5 4 74.22 1.82
-2 5 -5 65.77 1.48
2 -5 5 66.56 1.8
-2 5 -5 65.54 1.74
-2 5 -6 790.66 5.27
2 -5 6 783.07 6.59
-2 5 -6 787.05 6.23
2 -5 7 27.61 1.3
-2 5 -7 26.37 1.03
-2 5 -7 26.41 1.22
2 -5 8 6.64 0.7
-2 5 -8 5.69 0.6
-2 5 -8 6.39 0.55
-2 5 -9 25.89 1.13
2 -5 9 27.8 1.47
2 -5 10 53.24 2.11
2 -5 11 2.29 0.51
-2 4 11 14.2 1.34
-2 4 10 29.1 1.79
-2 4 9 12.98 1.14
-2 4 8 26.06 1.52
-2 4 7 5.5 0.64
-2 4 6 11.34 0.88
2 -4 -5 166.88 2.86
2 -4 -5 170.19 2.9
-2 4 5 172.17 3.09
-2 4 4 11.68 0.77
2 -4 -4 11.34 0.7
2 -4 -4 13.48 0.75
-2 4 3 190.89 2.78
2 -4 -3 187.09 2.64
-2 4 2 2.4 0.33
2 -4 -2 2.54 0.31
2 -4 -1 442.98 3.63
-2 4 1 447.94 3.74
-2 4 0 104.96 1.73
2 -4 0 101.66 1.7
2 -4 1 2.94 0.3
-2 4 -1 3.21 0.32
2 -4 2 252.04 2.74
-2 4 -2 250.97 2.58
2 -4 3 196.1 2.48
-2 4 -3 191.78 2.29
2 -4 3 192.72 2.53
-2 4 -4 18.29 0.75
-2 4 -4 20.09 0.89
2 -4 4 18.85 0.84
-2 4 -5 21.49 0.87
-2 4 -5 20.15 0.96
2 -4 5 22.3 0.99
-2 4 -6 3.36 0.49
-2 4 -6 4.09 0.45
-2 4 -6 4.26 0.5
2 -4 6 3.25 0.46
2 -4 7 16.83 1
-2 4 -7 16.58 0.86
-2 4 -7 16.54 1.01
-2 4 -7 15.89 0.96
-2 4 -8 8.12 0.73
2 -4 8 8.05 0.72
-2 4 -8 8.5 0.66
-2 4 -9 31.48 1.34
2 -4 9 29.74 1.46
-2 4 -10 16.78 1.04
2 -4 10 16.75 1.16
2 -4 11 -0.35 0.35
-2 3 12 3.27 0.68
-2 3 11 2.3 0.54
-2 3 10 7.06 0.83
-2 3 9 -0.07 0.27
-2 3 8 15.32 1.09
-2 3 7 0.5 0.25
2 -3 -7 0.51 0.21
-2 3 6 21.54 1.09
2 -3 -6 21 1
2 -3 -6 21.36 1.06
-2 3 5 218.04 3.17
2 -3 -5 220.23 3.04
2 -3 -5 217.81 3.05
2 -3 -4 0.52 0.15
-2 3 4 0.56 0.2
2 -3 -4 0.42 0.15
-2 3 3 15.64 0.73
2 -3 -3 15.06 0.69
2 -3 -3 15.15 0.68
-2 3 2 17.89 0.71
2 -3 -2 17.21 0.68
2 -3 -1 434.9 3.27
-2 3 1 438.55 3.31
2 -3 0 745.26 4.17
-2 3 0 740.27 4.15
2 -3 1 343.81 2.94
-2 3 -1 344.07 2.85
-2 3 -2 67.95 1.29
2 -3 2 68.15 1.23
2 -3 2 68.21 1.36
-2 3 -3 12.45 0.66
2 -3 3 13.6 0.61
-2 3 -3 12.58 0.59
2 -3 4 119.96 1.96
-2 3 -4 120.93 2.19
-2 3 -4 119.84 1.96
-2 3 -4 121.93 2.01
-2 3 -5 174.68 2.52
-2 3 -5 174.48 2.8
-2 3 -5 173.79 2.65
2 -3 5 178.25 2.59
-2 3 -6 70.93 1.77
-2 3 -6 70.29 1.92
-2 3 -6 71.73 1.87
2 -3 6 71.33 1.79
-2 3 -7 12.01 0.78
-2 3 -7 11.36 0.83
-2 3 -7 11.7 0.83
2 -3 7 10.43 0.73
-2 3 -8 89.45 2.47
-2 3 -8 94.46 2.31
2 -3 8 93.51 2.35
2 -3 9 0.09 0.22
-2 3 -9 -0.24 0.29
2 -3 10 4.51 0.63
-2 3 -10 4.37 0.58
2 -3 11 0.43 0.3
-2 2 11 22.41 1.45
-2 2 10 25.46 1.48
-2 2 9 -0.15 0.29
2 -2 -8 300.32 4.02
-2 2 8 297.69 4.37
-2 2 7 795.63 6.64
2 -2 -7 784.66 6.09
-2 2 6 -0.01 0.19
2 -2 -6 0.34 0.2
2 -2 -6 0.26 0.17
-2 2 5 48.66 1.34
2 -2 -5 48.61 1.38
2 -2 -5 48.37 1.3
2 -2 -4 317.12 3.12
2 -2 -4 315.58 3.02
-2 2 4 317.46 3.09
2 -2 -3 1003.61 4.9
2 -2 -3 1005.6 4.95
2 -2 -2 965.49 4.14
-2 2 2 966.97 4.6
2 -2 -2 964.76 4.56
2 -2 -1 245.38 2.24
-2 2 1 242.8 2.21
2 -2 0 539 3.37
-2 2 0 535.79 3.26
-2 2 -1 371.01 2.85
2 -2 1 371.27 2.1
2 -2 1 371.71 2.89
2 -2 2 1679.11 5.2
-2 2 -2 1698.55 7.11
-2 2 -2 1683.97 6.46
-2 2 -3 1.86 0.27
2 -2 3 2.14 0.23
-2 2 -3 2.19 0.28
-2 2 -3 1.85 0.21
-2 2 -4 84.34 1.88
2 -2 4 86.67 1.56
-2 2 -4 85.93 1.61
2 -2 5 165.78 2.68
2 -2 5 163.57 2.37
-2 2 -5 162.06 2.52
-2 2 -5 166.12 2.82
-2 2 -6 196.06 3.31
-2 2 -6 189.15 3.01
2 -2 6 190.5 3.1
2 -2 6 196.31 2.85
2 -2 7 65.19 1.79
-2 2 -7 65.96 1.95
2 -2 7 65.78 1.93
-2 2 -7 63.81 2.04
2 -2 8 17.77 1.11
-2 2 -8 18.29 1.16
2 -2 8 18.32 1.04
2 -2 9 15.75 1.1
2 -2 9 16.62 1.06
2 -2 10 2.79 0.48
2 -2 11 18.47 1.29
-2 1 11 0.12 0.24
-2 1 10 1.76 0.38
-2 1 10 2.32 0.46
2 -1 -9 41.1 1.49
-2 1 9 39.19 1.58
-2 1 9 41.45 1.64
2 -1 -8 57.12 1.63
-2 1 8 57.03 1.8
-2 1 8 57.24 1.76
2 -1 -7 70.4 1.68
-2 1 7 66.83 1.79
-2 1 7 71.31 1.8
2 -1 -7 68.63 1.93
2 -1 -6 99.77 1.83
-2 1 6 101.95 1.94
2 -1 -6 101.91 2.16
-2 1 6 98.1 1.96
-2 1 5 24.06 0.9
-2 1 5 25.03 0.85
2 -1 -5 24.87 0.99
2 -1 -5 24.03 0.82
2 -1 -4 64.23 1.36
-2 1 4 64.57 1.27
-2 1 4 63.32 1.28
2 -1 -4 64.52 1.2
-2 1 4 65.82 1.21
2 -1 -3 565.92 3.47
-2 1 3 568.76 3.35
2 -1 -3 565.67 3.25
-2 1 3 560.22 3.29
-2 1 2 188.86 1.54
-2 1 2 190.53 1.78
2 -1 -2 191.97 1.82
2 -1 -2 187.63 1.62
2 -1 -1 505.84 2.97
-2 1 1 506.73 2.89
2 -1 -1 500.85 1.93
-2 1 0 410.71 2.77
2 -1 0 413.51 2.83
-2 1 -1 111.69 1.59
2 -1 1 112.03 0.84
-2 1 -1 113.39 1.69
-2 1 -1 111.02 0.88
-2 1 -2 52.77 0.86
2 -1 2 54.39 0.84
2 -1 2 54.86 1.27
-2 1 -2 54.49 1.3
2 -1 3 473.91 3.03
2 -1 3 477.28 4.06
-2 1 -3 475.64 4.22
-2 1 -3 468.19 3.16
2 -1 4 176.02 2.14
2 -1 4 175.99 2.71
-2 1 -4 175.76 2.26
-2 1 -4 178.97 2.82
2 -1 5 93.98 1.78
2 -1 5 95.14 2.13
-2 1 -5 96.11 2.25
-2 1 -5 91.89 1.86
2 -1 6 13.88 0.77
2 -1 6 15.59 0.95
-2 1 -6 15.62 0.99
-2 1 -6 14.14 0.82
2 -1 7 78.02 2.25
-2 1 -7 78.9 2.36
-2 1 -7 78.95 2.12
2 -1 7 79.61 1.96
2 -1 8 5.04 0.55
2 -1 8 5.65 0.67
2 -1 9 33.1 1.67
2 -1 10 11.94 1.07
2 -1 11 7.93 0.94
-2 0 11 6.76 0.77
-2 0 11 6.47 0.68
-2 0 10 0.5 0.24
-2 0 10 0.86 0.27
2 0 -10 0.35 0.2
-2 0 9 4.95 0.6
-2 0 9 4.46 0.5
2 0 -9 4.61 0.46
-2 0 8 23.48 1.14
2 0 -8 24.12 0.97
-2 0 8 23.6 1.02
2 0 -7 17.14 0.97
-2 0 7 17.08 0.9
2 0 -7 17.16 0.74
-2 0 7 18.16 0.82
2 0 -6 309.22 2.83
2 0 -6 309.15 3.74
-2 0 6 311.33 2.97
-2 0 6 306.11 3.47
-2 0 5 168.32 2.33
2 0 -5 164.8 2.47
2 0 -5 168.21 1.86
-2 0 5 170.62 1.9
-2 0 4 28.91 0.72
2 0 -4 29.73 0.93
-2 0 4 29.06 0.87
2 0 -4 28.78 0.69
2 0 -3 724.24 3.95
-2 0 3 730.92 3.8
-2 0 3 720.72 3.16
2 0 -2 4105.66 7.65
-2 0 2 4234.36 7.46
2 0 -1 74.97 1.1
-2 0 1 76.6 1.15
-2 0 1 74.34 0.75
-2 0 1 77.41 1.1
2 0 -1 76.37 0.78
2 0 0 743.39 4
-2 0 0 748.76 4.09
-2 0 -1 17.66 0.38
2 0 1 17.95 0.71
-2 0 -1 17.69 0.7
2 0 2 236.54 2.79
-2 0 -2 236.92 2.89
-2 0 -2 237.65 1.87
2 0 3 26.58 1.04
-2 0 -3 27.86 1.1
-2 0 -3 27.71 0.78
2 0 4 20.06 0.99
-2 0 -4 20.24 1.01
-2 0 -4 19.89 0.8
2 0 5 228.82 3.55
-2 0 -5 232.85 3.67
-2 0 -5 226.59 2.95
-2 0 -6 0.41 0.22
2 0 6 0.36 0.21
-2 0 -6 0.2 0.13
2 0 7 286.55 4.53
2 0 8 8.27 0.86
2 0 9 18.86 1.33
2 0 10 3.12 0.63
2 0 11 23.58 1.64
-2 -1 12 6.5 0.8
-2 -1 11 0.98 0.35
2 1 -10 33.88 1.21
-2 -1 10 34.39 1.24
-2 -1 10 33.44 1.57
2 1 -9 9.64 0.59
-2 -1 9 9.68 0.61
-2 -1 9 9.57 0.79
2 1 -8 144.15 2.07
-2 -1 8 144.46 2.83
-2 -1 8 142.33 2.12
-2 -1 7 -0.08 0.23
2 1 -7 0.24 0.18
-2 -1 7 0.15 0.12
2 1 -7 0.57 0.14
2 1 -6 452.78 2.89
2 1 -6 451.34 4.54
-2 -1 6 452.03 4.34
2 1 -5 0.27 0.16
-2 -1 5 0.15 0.15
2 1 -4 10.47 0.34
2 1 -4 10.89 0.58
-2 -1 4 11.33 0.36
-2 -1 4 10.59 0.56
2 1 -3 188.28 1.42
2 1 -3 188.5 2.12
-2 -1 3 184.77 1.34
-2 -1 3 186.46 2.03
-2 -1 2 5399.4 9.59
-2 -1 2 5492.94 8.87
2 1 -1 9843.98 13.63
-2 -1 1 9999 14.08
2 1 0 652.38 4.04
-2 -1 0 656.33 4.12
-2 -1 -1 6.17 0.46
2 1 1 6.34 0.47
-2 -1 -2 3.43 0.26
2 1 2 3.28 0.41
-2 -1 -2 3.3 0.38
-2 -1 -3 1944.66 6.9
2 1 3 1937.11 9.57
-2 -1 -4 69.95 1.51
2 1 4 71.34 1.98
-2 -1 -4 75.06 2.05
2 1 5 190.05 3.43
-2 -1 -5 193.65 3.5
-2 -1 -5 184.93 2.77
2 1 6 1.6 0.38
-2 -1 -6 1.43 0.28
2 1 7 22.84 1.39
2 1 8 11.27 1.04
2 1 9 3.56 0.65
2 1 10 4.01 0.73
-2 -2 12 13.46 1.14
-2 -2 11 0.43 0.29
-2 -2 10 144.99 1.97
-2 -2 10 142.24 3.27
-2 -2 9 2.46 0.43
-2 -2 9 2.84 0.26
2 2 -9 2.93 0.29
-2 -2 8 19.19 1.07
-2 -2 8 17.79 0.54
2 2 -8 19.12 0.63
-2 -2 7 96.06 0.99
2 2 -7 103.2 1.24
2 2 -7 100.48 2.38
-2 -2 7 102.4 2.31
-2 -2 6 6.51 0.55
2 2 -6 6.78 0.59
2 2 -6 6.62 0.26
2 2 -5 27.32 1.06
2 2 -5 26.19 0.41
-2 -2 5 26.53 1.01
2 2 -4 151.21 2.27
-2 -2 4 147.06 0.89
-2 -2 4 150.54 2.2
-2 -2 3 324.94 1.67
-2 -2 3 329.01 1.93
-2 -2 3 324.56 2.98
2 2 -2 29.47 0.72
-2 -2 2 30.61 0.75
-2 -2 2 29.79 0.84
2 2 -1 5.15 0.38
-2 -2 1 5.12 0.38
2 2 0 85.17 1.64
-2 -2 0 90.27 1.69
2 2 1 18.03 0.85
-2 -2 -1 18.27 0.84
2 2 2 45.16 1.44
-2 -2 -2 47.41 1.47
-2 -2 -3 109.53 1.82
2 2 3 108.28 2.43
-2 -2 -3 114.54 2.47
2 2 4 111.45 2.65
-2 -2 -4 111.36 2.02
-2 -2 -4 117.1 2.69
-2 -2 -5 4.82 0.48
2 2 5 3.78 0.56
-2 -2 -5 5.24 0.64
2 2 6 3.52 0.57
2 2 7 1.09 0.37
2 2 8 6.06 0.83
2 2 9 2.86 0.64
2 2 10 10.02 1.16
-2 -3 12 5.38 0.74
-2 -3 11 6.94 0.81
-2 -3 10 42.22 1.83
-2 -3 9 5.41 0.66
2 3 -9 4.98 0.26
2 3 -8 13.57 0.31
2 3 -8 13.74 0.31
-2 -3 8 14.41 0.97
-2 -3 7 236.53 3.63
2 3 -7 226.36 3.71
-2 -3 6 1.87 0.32
2 3 -6 2.25 0.37
-2 -3 5 89.08 1.97
-2 -3 4 97.37 1.93
2 3 -3 3.94 0.26
-2 -3 3 4.09 0.39
-2 -3 3 4.6 0.27
2 3 -2 14.04 0.6
-2 -3 2 14.7 0.59
2 3 -1 252.93 2.82
-2 -3 1 255.04 2.8
2 3 0 206.87 2.84
-2 -3 0 189.99 2.68
2 3 1 23.98 1.06
-2 -3 -1 22.14 1
2 3 2 28.25 1.24
-2 -3 -2 29.85 1.25
2 3 3 99.46 2.49
-2 -3 -3 101.09 2.46
-2 -3 -4 4.2 0.55
2 3 4 4.35 0.6
-2 -3 -4 4.62 0.46
2 3 5 131.34 3.23
-2 -3 -5 132.14 2.58
2 3 6 38.92 1.88
2 3 7 3.99 0.67
2 3 8 12.24 1.22
2 3 9 35.98 2.12
-2 -4 12 0.23 0.37
-2 -4 11 -0.08 0.28
-2 -4 10 48.75 2.06
-2 -4 9 1.92 0.4
-2 -4 8 8.59 0.78
-2 -4 7 109.55 2.57
-2 -4 6 12.66 0.85
-2 -4 5 206.07 3.19
-2 -4 4 104.27 2.18
2 4 -4 101.15 1.22
-2 -4 4 100.06 0.84
2 4 -3 270.26 2.56
-2 -4 3 276.96 2.39
-2 -4 2 28.39 0.91
2 4 -2 27.54 0.95
2 4 -1 457.9 4.29
-2 -4 1 465.99 4.12
2 4 0 9.04 0.68
-2 -4 0 9.7 0.66
-2 -4 -1 7.75 0.64
2 4 1 7.6 0.67
-2 -4 -2 17.1 1.01
2 4 2 15.86 1
-2 -4 -3 43.78 1.72
2 4 3 41.87 1.74
2 4 4 159.18 3.6
-2 -4 -4 164.76 2.9
2 4 5 2.69 0.61
2 4 6 37.93 1.97
2 4 7 2.07 0.54
2 4 8 15.3 1.4
-2 -5 11 15.71 1.28
-2 -5 10 0.4 0.32
-2 -5 9 2.53 0.5
-2 -5 8 27.55 1.46
-2 -5 7 72.42 2.2
-2 -5 6 0.7 0.3
2 5 -5 0.04 0.06
-2 -5 5 -0.28 0.24
2 5 -4 63.41 1.25
-2 -5 4 63.99 0.91
-2 -5 4 65 1.88
-2 -5 3 -0.19 0.16
2 5 -3 0.35 0.14
2 5 -2 0.2 0.14
-2 -5 2 0.03 0.13
-2 -5 1 0.06 0.14
2 5 -1 0.18 0.17
2 5 0 6.33 0.61
-2 -5 0 5.41 0.54
2 5 1 2.61 0.44
-2 -5 -1 2.98 0.43
2 5 2 183.88 3.67
2 5 3 8.52 0.87
2 5 4 2.95 0.58
2 5 5 0.23 0.37
2 5 6 102.59 3.4
2 5 7 -0.15 0.35
-2 -6 11 8.75 1.01
-2 -6 10 1.18 0.42
-2 -6 9 106.22 3.07
-2 -6 8 59.43 2.19
-2 -6 7 32.85 1.61
-2 -6 6 9.38 0.83
-2 -6 5 27.98 1.4
-2 -6 5 25.94 0.46
2 6 -5 28.02 0.82
-2 -6 4 15.27 0.55
2 6 -4 15.64 0.75
-2 -6 4 15.75 1.03
2 6 -3 0.36 0.19
-2 -6 3 0.19 0.14
-2 -6 2 110.21 2.05
2 6 -2 114.43 2.41
-2 -6 2 112.39 2.15
-2 -6 1 25.66 1.13
2 6 -1 24.48 1.22
2 6 0 190.24 3.56
-2 -6 0 191.26 3.34
2 6 1 23.59 1.35
2 6 2 43.79 1.97
2 6 3 0.87 0.36
2 6 4 126.27 3.64
2 6 5 4.37 0.74
2 6 6 0.36 0.38
-2 -7 10 4.18 0.74
-2 -7 9 51.17 2.24
-2 -7 8 60.51 2.37
-2 -7 7 24.17 1.45
2 7 -6 29.72 0.77
-2 -7 6 32.58 1.65
-2 -7 5 4.98 0.67
2 7 -5 5.03 0.43
-2 -7 5 5.35 0.3
2 7 -4 199.72 3.03
-2 -7 4 193.32 2.24
-2 -7 3 3.31 0.36
2 7 -3 4.85 0.56
-2 -7 2 138.13 2.46
2 7 -2 141.55 2.95
-2 -7 1 11.91 0.8
2 7 -1 12.89 0.97
2 7 0 22.11 1.33
2 7 1 1.57 0.42
2 7 2 19.79 1.42
2 7 3 48.53 2.29
2 7 4 1.66 0.48
2 7 5 8.92 1.12
-2 -8 9 25.42 1.69
-2 -8 8 0.87 0.49
-2 -8 7 0.52 0.33
2 8 -6 28.16 0.94
-2 -8 6 28.24 1.64
2 8 -5 4.73 0.49
-2 -8 5 4.7 0.69
-2 -8 5 5.17 0.35
2 8 -4 6.16 0.63
-2 -8 4 6.56 0.48
-2 -8 3 27.2 1.07
2 8 -3 28.48 1.38
2 8 -2 3.61 0.56
-2 -8 2 3.52 0.45
2 8 -1 22.32 1.38
2 8 0 9.97 0.98
2 8 1 -0.19 0.34
2 8 2 3.81 0.73
2 8 3 12.35 1.25
2 8 4 3.52 0.73
-2 -9 8 4.49 0.77
-2 -9 7 2.79 0.64
-2 -9 6 3.42 0.62
2 9 -5 7.87 0.69
-2 -9 5 7.37 0.91
2 9 -4 7.83 0.76
2 9 -3 3.19 0.55
2 9 -2 73.5 2.56
2 9 -1 5.65 0.77
2 9 0 0.42 0.33
2 9 1 12.03 1.24
2 9 2 13.45 1.35
-2 -10 6 6.38 0.9
-2 -10 5 7.31 0.97
2 10 -4 4.43 0.62
2 10 -3 40.75 1.97
2 10 -2 1.75 0.52
2 10 -1 5.67 0.85
2 10 0 1.62 0.54
2 10 1 18.04 1.55
2 11 -2 3.12 0.68
2 11 -1 8.96 1.11
-3 12 -1 22.23 1.63
-3 12 -2 7.09 0.92
-3 12 -3 0.16 0.27
-3 12 -4 9.01 0.97
-3 11 2 33.04 2.05
-3 11 1 1.84 0.53
-3 11 0 16.22 1.36
-3 11 -1 9.37 0.99
-3 11 -2 2.89 0.57
-3 11 -3 0.03 0.24
-3 11 -4 25.99 1.49
3 -11 4 24.87 1.68
3 -11 5 -0.05 0.31
3 -11 6 3.49 0.69
-3 10 4 5.03 0.81
-3 10 3 0.6 0.41
-3 10 2 32.86 1.89
-3 10 1 -0.02 0.31
-3 10 0 20.57 1.39
-3 10 -1 6.12 0.75
-3 10 -2 5.58 0.66
-3 10 -3 6.05 0.67
-3 10 -4 3.52 0.52
3 -10 4 4.07 0.67
-3 10 -5 0.52 0.27
3 -10 5 0.2 0.29
3 -10 6 4.11 0.68
3 -10 7 15.8 1.31
3 -10 8 1.12 0.4
-3 9 5 0.05 0.36
-3 9 4 -0.02 0.39
-3 9 3 22.64 1.5
-3 9 2 1.57 0.46
-3 9 1 0.4 0.32
-3 9 0 26.14 1.39
-3 9 0 24.74 1.39
-3 9 -1 2.68 0.48
-3 9 -2 -0.06 0.21
-3 9 -3 14.69 0.95
-3 9 -4 69.32 2
3 -9 4 66.43 2.39
-3 9 -5 13.62 0.88
3 -9 5 13.47 1.09
-3 9 -6 4.55 0.5
3 -9 6 4.78 0.68
3 -9 7 12.76 1.1
3 -9 8 2.74 0.53
3 -9 9 1.76 0.49
-3 8 7 24.49 1.77
-3 8 6 10.07 1.1
-3 8 5 2.44 0.53
-3 8 4 57.33 2.29
-3 8 3 0.25 0.27
-3 8 2 40.86 1.76
-3 8 1 188.11 3.55
-3 8 0 139.46 2.98
-3 8 -1 6.35 0.62
3 -8 2 44.98 1.59
-3 8 -2 45.03 1.58
-3 8 -3 135 2.64
3 -8 3 135.08 2.78
3 -8 4 41.68 1.55
-3 8 -4 42.32 1.45
3 -8 4 44.11 1.77
3 -8 5 22.51 1.3
-3 8 -5 23.73 1.08
-3 8 -6 13.71 0.83
3 -8 6 13.14 1.04
3 -8 7 1.02 0.38
-3 8 -7 0.7 0.25
3 -8 8 4.1 0.64
3 -8 9 7.77 0.88
3 -8 10 5.3 0.79
-3 7 8 21.36 1.63
-3 7 7 10.14 1.07
-3 7 6 41.23 2.02
-3 7 5 37.55 1.82
-3 7 4 11.49 0.96
-3 7 3 30.88 1.48
-3 7 2 128.13 2.86
-3 7 1 189.62 3.31
-3 7 0 91.68 2.19
3 -7 0 92.98 2.19
3 -7 1 36.46 1.35
-3 7 -1 36.87 1.37
3 -7 2 0.45 0.22
-3 7 -2 0.2 0.18
3 -7 3 278.53 4.01
-3 7 -3 275.25 3.52
3 -7 3 280.01 3.83
3 -7 4 1.69 0.36
3 -7 4 2.16 0.35
-3 7 -4 1.75 0.31
3 -7 5 9.61 0.79
-3 7 -5 9.14 0.65
-3 7 -6 17.11 1.09
3 -7 6 16.02 1.06
-3 7 -6 17.48 0.91
3 -7 7 5.68 0.65
-3 7 -7 6.64 0.58
-3 7 -8 15.57 0.9
3 -7 8 15.04 1.12
3 -7 9 14.74 1.16
3 -7 10 23.51 1.5
-3 6 9 13.27 1.28
-3 6 8 5.54 0.77
-3 6 7 9.31 0.95
-3 6 6 84.99 2.67
-3 6 5 160.1 3.44
-3 6 4 4.51 0.58
-3 6 3 2.43 0.42
-3 6 3 0.93 0.29
-3 6 2 929.68 7.04
3 -6 -2 911.89 6.67
-3 6 1 93.66 2.12
3 -6 -1 91.58 2.06
3 -6 0 17.14 0.88
-3 6 0 16.54 0.87
3 -6 1 69.39 1.75
-3 6 -1 68.52 1.71
-3 6 -2 9.13 0.62
3 -6 2 8.85 0.65
3 -6 3 52.81 1.59
3 -6 3 52.34 1.58
-3 6 -3 52.93 1.48
3 -6 4 0.29 0.19
-3 6 -4 0.14 0.18
3 -6 4 0.09 0.2
3 -6 5 170.88 3.04
-3 6 -5 172.36 2.75
-3 6 -5 173.86 3.26
-3 6 -6 2.7 0.38
3 -6 6 2.02 0.34
-3 6 -6 2.28 0.42
-3 6 -7 5.9 0.67
-3 6 -7 5.32 0.54
3 -6 7 4.86 0.59
-3 6 -8 62.36 1.81
3 -6 8 63.82 2.17
-3 6 -9 13.92 0.89
3 -6 9 15.16 1.12
3 -6 10 0.09 0.24
-3 5 11 0.24 0.32
-3 5 10 2.68 0.64
-3 5 9 48.82 2.29
-3 5 8 6.62 0.8
-3 5 7 26.16 1.48
-3 5 6 8.73 0.82
-3 5 5 99.34 2.51
3 -5 -4 1.64 0.32
-3 5 4 1.46 0.34
3 -5 -4 1.62 0.31
-3 5 3 0.05 0.21
3 -5 -3 0.36 0.18
3 -5 -2 122.81 2.26
-3 5 2 116.7 2.29
3 -5 -1 2.38 0.33
-3 5 1 2.33 0.33
3 -5 0 410.37 4.02
-3 5 0 416.45 3.99
3 -5 1 22.04 0.94
-3 5 -1 21.73 0.89
3 -5 2 61.1 1.61
-3 5 -2 59.26 1.48
3 -5 3 64.56 1.71
-3 5 -3 63.49 1.58
3 -5 3 62.53 1.56
-3 5 -4 123.45 2.59
-3 5 -4 118.96 2.17
3 -5 4 118.21 2.23
-3 5 -5 57.59 1.57
-3 5 -5 57.43 1.88
3 -5 5 56.79 1.62
-3 5 -6 12.48 0.79
-3 5 -6 12 0.9
3 -5 6 12.87 0.84
-3 5 -7 127.42 2.57
-3 5 -7 124.75 2.99
3 -5 7 131.8 2.82
3 -5 8 16.31 1.05
-3 5 -8 15.67 0.96
3 -5 9 0.74 0.28
-3 5 -9 1.51 0.37
3 -5 10 -0.08 0.28
3 -5 11 2.04 0.47
-3 4 11 9.44 1.09
-3 4 10 0.3 0.37
-3 4 9 42.79 1.98
-3 4 8 16.85 1.18
-3 4 7 104.29 2.7
-3 4 6 23.22 1.19
3 -4 -5 94.63 2.12
3 -4 -5 96.56 2.13
-3 4 5 98.57 2.27
3 -4 -4 249.67 3.17
-3 4 4 250.42 3.42
3 -4 -4 244.87 3.24
-3 4 3 76.41 1.79
3 -4 -3 75.68 1.73
-3 4 2 40.61 1.23
3 -4 -2 40.46 1.21
3 -4 -1 46.54 1.29
-3 4 1 47.72 1.28
3 -4 0 664.37 4.82
-3 4 0 674.79 4.73
3 -4 1 468.88 4.19
-3 4 -1 462.94 3.97
-3 4 -2 85.6 1.73
3 -4 2 83.93 1.52
3 -4 2 86.13 1.83
-3 4 -3 1.86 0.27
-3 4 -3 2.07 0.33
3 -4 3 2.29 0.28
3 -4 4 460.59 4.02
-3 4 -4 460.63 4.99
-3 4 -4 453.66 4.29
3 -4 5 193.38 2.81
-3 4 -5 198.26 3.41
-3 4 -5 198.52 2.97
3 -4 6 2.5 0.35
-3 4 -6 3.41 0.46
-3 4 -7 10.22 0.82
-3 4 -7 9.58 0.85
-3 4 -7 10.6 0.79
3 -4 7 10.92 0.78
3 -4 8 2.44 0.42
-3 4 -8 2.47 0.43
3 -4 9 0.71 0.34
-3 4 -9 1.35 0.38
-3 4 -10 13.88 1.04
3 -4 10 14.6 1.07
3 -4 11 9.66 0.94
-3 3 11 7.92 0.91
-3 3 10 28.39 1.61
-3 3 9 9.54 0.9
-3 3 8 8.46 0.79
3 -3 -7 15.26 0.9
-3 3 7 15.28 0.96
3 -3 -6 29.68 1.25
3 -3 -6 31.31 1.2
-3 3 6 31.24 1.26
3 -3 -5 29.47 1.12
3 -3 -5 29.23 1.09
-3 3 5 29.65 1.13
-3 3 4 0.17 0.16
3 -3 -4 0.3 0.15
3 -3 -4 0.28 0.15
3 -3 -3 1021.41 5.33
-3 3 3 1037.55 5.99
3 -3 -3 1038.45 5.83
3 -3 -2 378.59 3.48
-3 3 2 377.56 3.42
3 -3 -1 40.8 1.13
-3 3 1 40.9 1.12
-3 3 0 209.46 2.52
3 -3 0 212.17 2.63
-3 3 -1 169.98 2.31
3 -3 1 173.57 2.44
3 -3 1 172.12 1.71
-3 3 -2 131.55 2.13
3 -3 2 133.47 1.61
-3 3 -3 13 0.78
3 -3 3 11.71 0.54
-3 3 -3 11.58 0.67
-3 3 -4 3.29 0.46
-3 3 -4 4.16 0.39
-3 3 -4 3.55 0.43
3 -3 4 2.83 0.33
3 -3 5 334.87 3.49
-3 3 -5 339.56 4.52
-3 3 -5 334.79 3.66
-3 3 -5 337.67 4
-3 3 -6 5.54 0.57
-3 3 -6 5.4 0.52
-3 3 -6 4.8 0.57
3 -3 6 5.73 0.51
3 -3 7 93.85 2.17
-3 3 -7 94.88 2.46
-3 3 -7 91.27 2.34
3 -3 8 4.58 0.54
-3 3 -8 4.71 0.6
3 -3 9 38.06 1.6
-3 3 -9 41.31 1.84
3 -3 10 17.2 1.17
-3 3 -10 18.19 1.28
3 -3 11 10.51 0.98
-3 2 11 0.43 0.28
-3 2 10 26.19 1.43
-3 2 9 63.65 2.08
3 -2 -8 159.61 2.83
-3 2 8 159.79 3.06
3 -2 -7 6.07 0.53
-3 2 7 5.82 0.57
3 -2 -7 5.88 0.61
3 -2 -6 30.33 1.09
3 -2 -6 29.67 1.2
-3 2 6 30.6 1.12
3 -2 -5 8.18 0.54
-3 2 5 8.3 0.57
3 -2 -5 9.08 0.61
-3 2 4 895.82 5.36
3 -2 -4 898.53 5.22
3 -2 -4 896.45 5.28
3 -2 -3 70.69 1.42
-3 2 3 69.83 1.41
3 -2 -3 68.12 1.27
-3 2 2 85.37 1.52
3 -2 -2 84.47 1.52
3 -2 -2 86.78 1.2
3 -2 -1 3.71 0.2
-3 2 1 4.12 0.35
3 -2 -1 3.98 0.35
-3 2 0 24.54 0.84
3 -2 0 27.15 0.91
-3 2 -1 11.98 0.67
-3 2 -1 11.65 0.61
3 -2 1 11.64 0.32
-3 2 -2 262.94 3.33
-3 2 -2 259.61 3.05
3 -2 2 262.07 1.9
-3 2 -3 246.61 3.45
-3 2 -3 247.63 2.35
3 -2 3 247.35 2.21
-3 2 -4 20.16 0.98
-3 2 -4 19.68 1.05
-3 2 -4 20.23 0.78
3 -2 4 19.75 0.73
3 -2 5 8.48 0.54
-3 2 -5 8.27 0.57
-3 2 -5 7.92 0.72
3 -2 6 20.99 0.93
-3 2 -6 21.3 1.24
-3 2 -6 21.73 1.03
3 -2 7 3.56 0.43
-3 2 -7 3.35 0.45
3 -2 8 55.68 1.79
3 -2 9 2.44 0.45
-3 2 -11 0.25 0.33
-3 1 11 0 0.23
-3 1 10 20.85 1.24
-3 1 10 21.89 1.21
-3 1 9 93.72 2.43
-3 1 9 98.18 2.37
3 -1 -9 92.78 2.14
3 -1 -8 7.01 0.57
-3 1 8 7.79 0.66
-3 1 8 7.83 0.71
-3 1 7 73.32 1.86
3 -1 -7 75.27 1.66
-3 1 7 76.58 1.77
3 -1 -7 74.48 2.05
-3 1 6 394.28 3.92
3 -1 -6 386.48 3.53
3 -1 -6 386.1 4.28
-3 1 5 224.37 2.71
-3 1 5 231.59 2.66
3 -1 -5 228.39 2.54
3 -1 -5 228.42 2.94
-3 1 4 81.15 1.44
-3 1 4 82.05 1.46
3 -1 -4 79.82 1.54
3 -1 -4 81.69 1.46
-3 1 3 468.39 2.98
3 -1 -3 472.28 3.38
-3 1 3 476.54 3.34
3 -1 -3 468.3 3.18
-3 1 2 75.32 1.34
-3 1 2 71.32 0.93
3 -1 -2 74.92 1.37
3 -1 -2 73.18 1.03
-3 1 1 58.17 1.2
3 -1 -1 56.99 0.61
3 -1 -1 58.95 1.25
-3 1 0 60.15 1.4
-3 1 0 59.9 1.3
-3 1 -1 0.22 0.05
-3 1 -1 0.19 0.15
-3 1 -2 268.21 3.18
-3 1 -2 269.57 3.41
-3 1 -2 265.89 1.91
3 -1 3 479.79 3.06
3 -1 3 483.74 4.72
-3 1 -3 477.15 4.93
-3 1 -3 481.83 3.23
3 -1 4 118.46 1.78
3 -1 4 120.34 2.51
-3 1 -4 117.92 2.62
-3 1 -4 117.48 1.88
3 -1 5 0.11 0.16
-3 1 -5 -0.3 0.32
3 -1 5 0.07 0.23
-3 1 -5 -0.06 0.17
3 -1 6 86.54 2.44
-3 1 -6 85.66 2.04
3 -1 7 5.43 0.68
-3 1 -7 4.55 0.53
3 -1 8 6.31 0.77
3 -1 9 0.45 0.29
3 -1 10 0.46 0.41
-3 0 12 30.43 1.68
-3 0 11 38.24 1.78
-3 0 11 40 1.53
-3 0 10 15.36 1.06
-3 0 10 17.24 0.96
3 0 -10 15.92 0.86
-3 0 9 372.13 4.8
-3 0 9 372.64 4.11
3 0 -9 364.63 3.82
3 0 -8 139.95 2.19
-3 0 8 138.43 2.75
-3 0 8 143.05 2.36
3 0 -7 0.43 0.15
3 0 -7 0.15 0.21
-3 0 7 0.2 0.14
-3 0 7 0.19 0.2
3 0 -6 85.73 2
-3 0 6 90.84 1.5
3 0 -6 86.03 1.49
-3 0 6 85.62 1.85
3 0 -5 76.18 1.34
-3 0 5 78.56 1.37
3 0 -5 75.26 1.7
-3 0 5 75.93 1.58
3 0 -4 159.29 1.85
-3 0 4 161.44 2.07
-3 0 4 159.9 1.82
3 0 -4 160.78 2.17
3 0 -3 173.83 1.95
-3 0 3 178.35 1.93
-3 0 3 172.8 1.87
3 0 -2 362.98 2.9
-3 0 2 357.78 2.77
3 0 -2 355.98 2.34
-3 0 2 359.59 2.22
-3 0 1 120.14 1.74
-3 0 1 119.71 1.87
-3 0 1 116.61 0.99
-3 0 0 -0.01 0.1
-3 0 0 0.06 0.09
-3 0 -1 214.29 1.42
3 0 1 213.96 2.86
-3 0 -1 216.8 2.94
-3 0 -2 172.74 2.85
-3 0 -2 168.56 1.64
3 0 2 166.34 2.73
-3 0 -3 1.36 0.31
-3 0 -3 1.26 0.2
3 0 3 1.23 0.3
3 0 4 4.98 0.58
-3 0 -4 4.41 0.55
-3 0 -4 5.16 0.43
-3 0 -5 0.67 0.27
-3 0 -5 0.69 0.2
3 0 5 0.73 0.3
3 0 6 49.65 1.96
-3 0 -6 52.12 1.64
3 0 7 76.35 2.57
3 0 8 1.64 0.44
3 0 9 14.89 1.27
3 0 10 1.55 0.48
-3 -1 12 3.24 0.61
-3 -1 11 12.71 1.03
-3 -1 10 2.97 0.51
-3 -1 10 3.54 0.37
3 1 -10 2.9 0.33
3 1 -9 2.42 0.31
-3 -1 9 2.6 0.32
-3 -1 8 17.08 0.68
3 1 -8 16.26 0.66
-3 -1 7 83.32 1.34
3 1 -7 79.94 2.13
3 1 -7 80.34 1.35
-3 -1 7 81.46 1.99
3 1 -6 0 0.15
-3 -1 6 -0.11 0.19
-3 -1 6 0.06 0.08
3 1 -6 0.24 0.09
3 1 -5 90.78 1.92
3 1 -5 94.08 1.31
-3 -1 5 94.45 1.27
-3 -1 5 92.94 1.82
-3 -1 4 41.82 1.12
3 1 -4 41.71 1.17
-3 -1 4 42.46 0.84
-3 -1 3 150.57 1.65
-3 -1 3 150.71 1.8
-3 -1 3 151.17 1.9
3 1 -3 150.65 1.99
-3 -1 2 9.32 0.51
-3 -1 2 8.78 0.42
-3 -1 2 9.34 0.46
3 1 -1 228.98 2.63
-3 -1 1 234.16 2.71
3 1 0 298.97 3.31
-3 -1 0 304.81 3.38
3 1 1 40.46 1.33
-3 -1 -1 41.18 1.36
3 1 2 17.68 0.96
-3 -1 -2 18.01 0.98
-3 -1 -2 16.51 0.59
-3 -1 -3 42.62 1.08
3 1 3 43.41 1.58
-3 -1 -3 44.77 1.65
3 1 4 82.88 2.33
-3 -1 -4 82.68 2.38
-3 -1 -4 79.53 1.66
3 1 5 4.49 0.6
-3 -1 -5 4.81 0.47
3 1 6 39.52 1.82
-3 -1 -6 42.39 1.53
3 1 7 6.91 0.83
3 1 8 21.31 1.52
3 1 9 41.64 2.21
-3 -2 12 -0.11 0.35
-3 -2 11 4.38 0.65
-3 -2 10 9.63 0.32
-3 -2 10 11.04 0.94
-3 -2 9 28.48 1.4
3 2 -9 29.28 0.79
3 2 -8 1.94 0.19
-3 -2 8 1.66 0.38
3 2 -7 229.8 1.82
3 2 -7 224.81 3.64
-3 -2 7 225.32 3.43
3 2 -6 117.83 2.44
3 2 -6 113.39 1.19
-3 -2 6 112.15 2.29
-3 -2 5 128.97 1.23
3 2 -5 126.76 2.34
-3 -2 5 128.67 2.24
-3 -2 4 71.55 1
-3 -2 4 69.71 1.1
-3 -2 4 68.83 1.55
-3 -2 3 1055.63 5.55
-3 -2 3 1054.71 4.98
-3 -2 3 1050.22 4.51
3 2 -2 318.96 3.01
-3 -2 2 321.42 2.91
-3 -2 2 322.71 3.1
3 2 -1 297.61 3.19
-3 -2 1 303 3.31
3 2 0 31.53 1.15
-3 -2 0 32.11 1.19
3 2 1 21.85 1.04
-3 -2 -1 22.33 1.07
3 2 2 78.34 2.12
-3 -2 -2 82.01 2.19
-3 -2 -3 78.08 1.59
3 2 3 78.92 2.27
-3 -2 -3 78.82 2.32
3 2 4 113.54 2.88
-3 -2 -4 109.89 2.1
3 2 5 1.44 0.39
-3 -2 -5 1.29 0.26
3 2 6 73.5 2.61
3 2 7 7.2 0.91
3 2 8 8.49 1.03
3 2 9 1.12 0.51
-3 -3 12 7.84 0.91
-3 -3 11 4.63 0.69
-3 -3 10 20.48 1.31
-3 -3 9 40.01 1.73
-3 -3 8 71.76 2.14
3 3 -7 60.67 1.96
-3 -3 7 61.3 1.89
3 3 -6 36.05 1.42
-3 -3 6 33.4 1.31
-3 -3 5 38.77 0.59
-3 -3 5 39.39 0.54
-3 -3 5 39.07 1.34
-3 -3 4 148.65 1.47
-3 -3 4 150.82 1.72
-3 -3 4 148.48 2.43
-3 -3 3 75.8 1.46
-3 -3 3 74.53 1.67
3 3 -2 2222.68 8.63
-3 -3 2 2234.3 8.86
3 3 -1 38.31 1.26
-3 -3 1 39 1.29
3 3 0 2.08 0.35
-3 -3 0 2.02 0.35
3 3 1 211.44 3.45
-3 -3 -1 213.41 3.48
3 3 2 189.93 3.5
-3 -3 -2 191.37 3.54
-3 -3 -3 36.01 1.2
3 3 3 35.4 1.62
-3 -3 -4 59.48 1.65
3 3 4 56.01 2.16
3 3 5 3.16 0.55
3 3 6 49.17 2.26
3 3 7 1.72 0.54
3 3 8 4.27 0.82
-3 -4 11 41.41 1.97
-3 -4 10 3.83 0.61
-3 -4 9 11.71 0.96
-3 -4 8 13.24 0.98
-3 -4 7 12.66 0.9
-3 -4 6 2.67 0.43
-3 -4 5 21.95 1.08
-3 -4 5 20.75 0.37
3 4 -4 85.06 1.41
-3 -4 4 86.38 2.03
-3 -4 4 85.78 1.39
-3 -4 4 84.04 1.22
-3 -4 3 2.16 0.27
3 4 -3 1.4 0.28
3 4 -2 63.26 1.64
-3 -4 2 65.19 1.62
3 4 -1 148.76 2.72
-3 -4 1 149.34 2.69
3 4 0 21.97 1.12
-3 -4 0 21.54 1.1
3 4 1 102.33 2.6
-3 -4 -1 103.64 2.56
3 4 2 39.99 1.73
3 4 3 70.21 2.43
3 4 4 44.71 2.04
3 4 5 64.49 2.59
3 4 6 14.02 1.29
3 4 7 0.93 0.46
-3 -5 11 2.96 0.59
-3 -5 10 0.45 0.33
-3 -5 9 3.13 0.55
-3 -5 8 6.86 0.76
-3 -5 7 38.3 1.65
-3 -5 6 8.11 0.75
-3 -5 5 47.36 1.72
3 5 -5 45.71 0.95
-3 -5 5 45.67 0.68
-3 -5 5 45.56 0.7
-3 -5 4 36.07 1.46
3 5 -4 37.68 1.09
-3 -5 4 38.9 1.04
3 5 -3 87.6 1.92
-3 -5 3 86.59 1.79
3 5 -2 26.44 1.16
-3 -5 2 27.14 1.11
3 5 -1 23.29 1.17
-3 -5 1 24.04 1.14
3 5 0 18.62 1.12
-3 -5 0 19.08 1.1
3 5 1 1.98 0.46
3 5 2 -0.21 0.33
3 5 3 1.55 0.51
3 5 4 230.13 4.85
3 5 5 28.98 1.82
3 5 6 -0.15 0.36
-3 -6 11 0.13 0.35
-3 -6 10 0.39 0.33
-3 -6 9 37.2 1.85
-3 -6 8 0.8 0.4
-3 -6 7 7.13 0.79
-3 -6 6 9.93 0.88
3 6 -5 109.64 1.79
-3 -6 5 114.34 2.83
-3 -6 5 110.15 1.28
-3 -6 4 15.77 0.66
3 6 -4 16.69 0.84
-3 -6 4 15.45 1.04
3 6 -3 4.92 0.51
-3 -6 3 4.64 0.45
3 6 -2 71.02 2.05
-3 -6 2 71.68 1.93
3 6 -1 108.57 2.77
-3 -6 1 113.93 2.61
3 6 0 2.89 0.51
3 6 1 14.95 1.16
3 6 2 8.35 0.92
3 6 3 48.23 2.26
3 6 4 3.82 0.75
3 6 5 2 0.61
-3 -7 10 5.8 0.85
-3 -7 9 1.37 0.49
-3 -7 8 2.1 0.56
-3 -7 7 7.67 0.87
-3 -7 6 0.09 0.27
3 7 -6 0.27 0.11
-3 -7 5 3.46 0.6
3 7 -5 3.11 0.38
-3 -7 5 2.86 0.25
-3 -7 4 2.14 0.28
3 7 -4 3.12 0.43
-3 -7 3 6.89 0.56
3 7 -3 7.44 0.69
3 7 -2 7.92 0.76
-3 -7 2 8.25 0.71
3 7 -1 0.85 0.35
3 7 0 20.09 1.37
3 7 1 16.97 1.31
3 7 2 4.74 0.76
3 7 3 -0.06 0.37
3 7 4 11.45 1.26
-3 -8 9 16.23 1.41
-3 -8 8 1.57 0.51
-3 -8 7 1.16 0.43
-3 -8 6 0.01 0.32
3 8 -5 6 0.56
-3 -8 5 6.09 0.78
3 8 -4 1.87 0.41
-3 -8 3 43.23 1.48
3 8 -3 43.15 1.8
3 8 -2 0.79 0.32
3 8 -1 4.67 0.69
3 8 0 19.82 1.45
3 8 1 5.68 0.85
3 8 2 1.41 0.51
3 8 3 1.46 0.5
-3 -9 8 26.16 1.79
-3 -9 7 0.05 0.37
-3 -9 6 2.93 0.62
-3 -9 5 6.31 0.89
3 9 -4 16.25 1.11
3 9 -3 6.09 0.77
3 9 -2 0.78 0.35
3 9 -1 -0.22 0.33
3 9 0 13.53 1.27
3 9 1 0.47 0.35
3 10 -3 4.96 0.74
3 10 -2 12.77 1.22
3 10 -1 11.96 1.24
3 10 0 1.48 0.54
-4 12 -3 0.97 0.42
-4 11 1 10.26 1.11
-4 11 0 0.68 0.42
-4 11 -1 0.11 0.3
-4 11 -2 0.15 0.29
-4 11 -3 15.39 1.16
4 -11 3 16.75 1.35
4 -11 4 0.03 0.27
-4 11 -4 0.46 0.3
4 -11 5 14.86 1.29
4 -11 6 2.87 0.58
-4 10 3 5.49 0.83
-4 10 2 9.81 1.05
-4 10 1 8.89 0.94
-4 10 0 48.85 2.06
-4 10 -1 9.29 0.89
-4 10 -2 9.36 0.88
-4 10 -3 5 0.66
4 -10 3 5.96 0.79
-4 10 -4 12.42 0.96
4 -10 4 11.77 1.06
4 -10 5 1.27 0.4
-4 10 -5 0.9 0.28
4 -10 6 6.19 0.81
4 -10 7 1.59 0.47
-4 9 5 7.33 0.96
-4 9 4 9.98 1.06
-4 9 3 0.05 0.32
-4 9 2 46.32 2.02
-4 9 1 24.92 1.45
-4 9 0 6.88 0.76
-4 9 -1 0.43 0.22
-4 9 -2 48.41 1.82
4 -9 3 0.18 0.3
-4 9 -3 0.18 0.22
4 -9 4 -0.15 0.23
-4 9 -4 0.05 0.19
4 -9 5 7.74 0.81
-4 9 -5 8.08 0.73
-4 9 -6 3.67 0.51
4 -9 6 3.82 0.61
4 -9 7 0.39 0.24
4 -9 8 6.85 0.81
-4 8 7 4.11 0.75
-4 8 6 13.09 1.22
-4 8 5 0.27 0.3
-4 8 4 28.97 1.63
-4 8 3 20.55 1.31
-4 8 3 21.29 1.34
-4 8 2 78.09 2.44
-4 8 1 64.16 2.12
-4 8 0 7.2 0.7
-4 8 -1 34.8 1.47
-4 8 -2 54.14 1.82
4 -8 3 0.06 0.22
-4 8 -3 0.37 0.25
-4 8 -4 31.37 1.36
4 -8 4 31.36 1.46
4 -8 5 22.39 1.26
-4 8 -5 21.96 1.14
-4 8 -6 33.23 1.42
4 -8 6 33.51 1.56
-4 8 -7 10.92 0.82
4 -8 7 11.42 0.98
4 -8 8 5.81 0.71
-4 7 8 5.83 0.86
-4 7 7 3.33 0.66
-4 7 6 18.34 1.33
-4 7 5 5.84 0.73
-4 7 4 3.14 0.52
-4 7 3 117.7 2.88
-4 7 2 36.36 1.54
-4 7 1 492.13 5.43
-4 7 0 16.83 0.99
-4 7 -1 47.28 1.62
-4 7 -2 22.32 1.12
4 -7 3 132.16 2.67
-4 7 -3 137.53 2.7
4 -7 4 17.24 0.99
-4 7 -4 15.97 0.92
4 -7 5 35.58 1.45
-4 7 -5 35.9 1.42
4 -7 6 -0.09 0.25
-4 7 -6 0.1 0.21
4 -7 7 1.59 0.38
-4 7 -7 1.46 0.35
4 -7 8 -0.08 0.26
-4 7 -8 0.08 0.19
-4 6 10 0.58 0.42
-4 6 9 0.68 0.33
-4 6 8 9.51 1
-4 6 7 4.55 0.7
-4 6 6 9.33 0.89
-4 6 5 48.79 1.86
4 -6 -4 16.38 0.95
-4 6 4 17.57 1.09
-4 6 3 0.03 0.24
-4 6 2 56.48 1.81
4 -6 -1 64.96 1.85
-4 6 1 63.02 1.82
4 -6 0 0.83 0.22
-4 6 0 1.31 0.28
4 -6 1 105.1 2.39
-4 6 -1 101.73 2.24
4 -6 2 23.4 1.01
4 -6 2 24.53 1.19
-4 6 -2 23.85 1.08
4 -6 3 0.14 0.17
-4 6 -3 -0.02 0.19
4 -6 3 0.03 0.18
-4 6 -4 92.54 2.21
4 -6 4 91.75 2.07
-4 6 -5 3.69 0.47
4 -6 5 3.17 0.4
4 -6 6 1.09 0.31
-4 6 -6 0.86 0.27
4 -6 7 0.69 0.33
-4 6 -7 0.43 0.27
4 -6 8 0.32 0.24
-4 6 -8 0.07 0.24
-4 6 -9 8.16 0.77
4 -6 9 8.42 0.83
-4 5 11 2.09 0.6
-4 5 10 0.73 0.39
-4 5 9 -0.28 0.37
-4 5 8 63.26 2.39
-4 5 7 0.56 0.29
-4 5 6 21.22 1.22
4 -5 -5 6.09 0.59
-4 5 5 5.47 0.61
4 -5 -4 71.44 1.83
-4 5 4 74.03 2.06
4 -5 -3 6.26 0.58
-4 5 3 6.63 0.61
4 -5 -2 109.5 2.31
-4 5 2 112.68 2.32
4 -5 -1 42.44 1.42
-4 5 1 44.48 1.42
4 -5 0 21.39 1.03
-4 5 0 20.2 0.95
4 -5 1 79.45 2.03
-4 5 -1 78.99 1.87
4 -5 2 20.51 1.05
-4 5 -2 21.99 1.01
4 -5 2 20.83 0.83
-4 5 -3 11.53 0.76
4 -5 3 11.58 0.65
-4 5 -4 31.27 1.28
-4 5 -4 31.91 1.5
4 -5 4 32.3 1.13
-4 5 -5 3.5 0.46
4 -5 5 4.17 0.44
-4 5 -6 103.35 2.46
4 -5 6 106.13 2.29
-4 5 -7 2.7 0.5
4 -5 7 2.92 0.46
-4 5 -8 24.02 1.3
4 -5 8 23.43 1.21
4 -5 9 29.9 1.44
-4 5 -9 30.11 1.54
-4 4 11 45.26 2.24
-4 4 10 3.25 0.6
-4 4 9 22.91 1.44
-4 4 8 12.71 1
-4 4 7 93.49 2.51
-4 4 6 84.74 2.21
4 -4 -6 82.14 2.16
4 -4 -5 17.45 0.92
-4 4 5 18.22 1.01
4 -4 -5 17.12 0.94
4 -4 -4 5.75 0.5
-4 4 4 6.55 0.58
4 -4 -4 5.36 0.52
4 -4 -3 409.02 3.65
4 -4 -3 422.67 4.32
-4 4 3 418.96 4.3
4 -4 -2 8.86 0.63
-4 4 2 9.56 0.64
4 -4 -1 218.6 3.09
-4 4 1 218.09 2.97
4 -4 0 141.15 2.55
-4 4 0 136.81 2.37
-4 4 -1 155.64 2.55
4 -4 1 156.16 1.85
4 -4 1 160.19 2.73
-4 4 -2 1.87 0.31
4 -4 2 1.92 0.24
4 -4 2 1.86 0.33
-4 4 -3 10.77 0.82
-4 4 -3 11.27 0.74
4 -4 3 9.98 0.52
-4 4 -4 495.9 5.78
-4 4 -4 486.96 4.99
4 -4 4 484.92 3.96
-4 4 -5 321.06 4.27
4 -4 5 313.86 3.45
-4 4 -6 8.34 0.79
4 -4 6 7.85 0.61
4 -4 7 43.33 1.49
-4 4 -7 45.16 1.79
4 -4 8 13.47 0.92
-4 4 -8 13.17 1.03
4 -4 9 14.15 0.99
-4 4 -9 14.41 1.13
-4 4 -10 0.33 0.29
-4 3 11 43.48 2.06
-4 3 10 1.38 0.42
-4 3 9 21.76 1.29
-4 3 8 8.24 0.74
-4 3 7 122.07 2.61
4 -3 -7 120.62 2.51
4 -3 -6 2.36 0.35
-4 3 6 2.37 0.36
4 -3 -6 3.13 0.42
4 -3 -5 12.61 0.75
-4 3 5 13.3 0.8
4 -3 -5 12.86 0.76
4 -3 -4 6.17 0.52
-4 3 4 6.22 0.52
4 -3 -4 5.69 0.45
4 -3 -3 163.48 2.1
4 -3 -3 169.71 2.6
-4 3 3 169.81 2.55
4 -3 -2 9.3 0.62
4 -3 -2 9.54 0.44
-4 3 2 10.42 0.64
-4 3 1 240.71 2.98
4 -3 -1 241.93 1.86
4 -3 -1 238.82 3.16
-4 3 0 18.58 0.85
4 -3 0 18.21 0.89
4 -3 1 99.77 2.13
-4 3 -1 97.57 1.99
4 -3 1 94.81 1.04
-4 3 -2 310.19 4.17
-4 3 -2 308.17 3.7
4 -3 2 311.23 2.16
-4 3 -3 79.16 2.22
-4 3 -3 80.38 2
4 -3 3 77.54 1.26
-4 3 -4 14.71 1.03
-4 3 -4 14.37 0.9
4 -3 4 12.75 0.6
4 -3 5 54.61 1.36
-4 3 -5 55.07 1.49
-4 3 -5 53.9 1.82
4 -3 6 95.16 1.98
-4 3 -6 96.25 2.19
-4 3 -6 98.82 2.58
4 -3 7 13.52 0.82
-4 3 -7 13.1 0.9
-4 3 -7 14.44 1.07
4 -3 8 0.68 0.29
-4 3 -8 0.23 0.26
-4 3 -9 1.94 0.52
-4 3 -10 2.1 0.52
-4 2 11 6.76 0.76
-4 2 10 31.75 1.55
-4 2 9 99.12 2.53
-4 2 8 32.21 1.33
4 -2 -8 30.75 1.25
4 -2 -7 19.7 0.94
-4 2 7 21.95 1.02
4 -2 -7 21.02 1.12
4 -2 -6 0.9 0.23
4 -2 -6 1.24 0.29
-4 2 6 0.95 0.23
4 -2 -5 37.52 1.21
-4 2 5 36.55 1.21
4 -2 -5 35.84 1.21
4 -2 -4 11.96 0.68
-4 2 4 11.78 0.66
4 -2 -4 11.74 0.63
4 -2 -3 0.26 0.13
4 -2 -3 0.39 0.12
-4 2 3 0.35 0.13
4 -2 -2 51.98 1.4
4 -2 -2 53.92 0.95
-4 2 2 52.4 1.33
-4 2 1 1198.99 6.42
4 -2 -1 1215.89 6.87
4 -2 0 240.67 3.16
-4 2 0 236.11 2.95
-4 2 -1 -0.03 0.17
-4 2 -1 0.01 0.13
-4 2 -2 131.77 2.72
-4 2 -2 132.24 2.46
4 -2 3 227.58 2
-4 2 -3 225.34 3.76
-4 2 -3 228.53 2.19
-4 2 -3 233.14 3.44
4 -2 4 15.61 0.64
-4 2 -4 15.86 0.99
-4 2 -4 17.04 1.12
-4 2 -4 16.66 0.72
4 -2 5 25.07 0.91
-4 2 -5 25.04 1.29
-4 2 -5 24.3 0.98
-4 2 -6 4.26 0.6
-4 2 -6 5.29 0.53
-4 2 -7 21.1 1.37
-4 2 -7 19.66 1.09
-4 2 -8 1 0.4
-4 2 -9 14.82 1.29
-4 2 -10 8.64 1.08
-4 1 11 2.04 0.42
-4 1 11 1.84 0.44
-4 1 10 34.62 1.58
-4 1 10 37.26 1.51
-4 1 9 7.77 0.73
4 -1 -9 8.31 0.66
-4 1 9 9.22 0.72
-4 1 8 287.95 3.94
-4 1 8 299.79 3.7
4 -1 -8 290.11 3.53
-4 1 7 25.07 1.1
4 -1 -7 26.57 1.23
-4 1 7 26.52 1.01
4 -1 -7 26.05 1.01
4 -1 -6 3.08 0.34
-4 1 6 3.38 0.39
4 -1 -6 3.31 0.43
-4 1 6 3.56 0.38
-4 1 5 86.32 1.67
4 -1 -5 85.73 1.71
-4 1 5 85.9 1.69
4 -1 -5 87.13 1.84
-4 1 4 1105.42 5.26
4 -1 -4 1104.69 6.06
-4 1 4 1105.68 5.81
4 -1 -4 1108.72 5.83
-4 1 3 1.89 0.21
4 -1 -3 2.07 0.23
4 -1 -3 2.1 0.29
-4 1 3 2.04 0.28
-4 1 2 318.6 1.84
-4 1 2 321.9 3.16
4 -1 -2 316.91 2.09
4 -1 -2 313.3 3.31
4 -1 -1 0.08 0.15
-4 1 1 0.62 0.22
-4 1 1 0.33 0.17
-4 1 0 58.24 1.63
-4 1 0 57.54 1.49
-4 1 -1 78.2 2
-4 1 -1 81.47 1.86
-4 1 -2 7.83 0.67
-4 1 -2 7.68 0.68
-4 1 -2 7.71 0.33
-4 1 -3 0.05 0.17
-4 1 -3 0.06 0.1
-4 1 -3 0.09 0.2
4 -1 4 11.65 0.91
-4 1 -4 10.17 0.88
-4 1 -4 10.9 0.58
4 -1 5 260.29 4.39
-4 1 -5 263.6 3.25
-4 1 -6 -0.27 0.26
4 -1 6 1.12 0.34
4 -1 7 9.13 0.94
4 -1 8 48.34 2.21
-4 0 12 -0.39 0.39
-4 0 11 -0.34 0.32
-4 0 10 1.34 0.3
-4 0 10 0.71 0.27
-4 0 9 72.28 2.12
-4 0 9 73.03 1.76
4 0 -9 72.71 1.72
-4 0 8 0.07 0.16
4 0 -8 0.39 0.18
-4 0 7 3.03 0.41
4 0 -7 3.58 0.36
4 0 -7 3.55 0.47
-4 0 7 3.45 0.34
4 0 -6 47.42 1.21
-4 0 6 48.21 1.22
4 0 -6 46.05 1.48
-4 0 6 46.75 1.38
-4 0 5 147.84 2.03
4 0 -5 143.39 2.4
-4 0 5 143.07 2.19
-4 0 4 3.27 0.31
4 0 -4 3.51 0.34
4 0 -4 3.35 0.34
-4 0 4 3.18 0.3
4 0 -3 14.43 0.69
-4 0 3 14.17 0.64
4 0 -3 14 0.58
-4 0 3 14.62 0.56
-4 0 2 11.69 0.66
-4 0 2 10.92 0.6
-4 0 2 11.71 0.41
-4 0 1 2.88 0.37
-4 0 1 3.17 0.35
-4 0 1 2.87 0.16
-4 0 0 0.38 0.19
-4 0 0 0.44 0.07
-4 0 0 0.38 0.19
4 0 1 36.06 1.34
-4 0 -1 36.54 1.31
-4 0 -1 36.49 1.42
-4 0 -1 34.74 0.6
4 0 2 272.02 3.91
-4 0 -2 275.49 4.11
-4 0 -2 275.11 2.18
-4 0 -3 0.06 0.15
-4 0 -3 0.09 0.1
4 0 3 0.13 0.22
4 0 4 35.17 1.6
-4 0 -4 35.33 1.1
4 0 5 107.41 2.95
-4 0 -5 111.03 2.2
-4 0 -6 3.03 0.42
4 0 6 3.73 0.63
4 0 7 17.39 1.35
4 0 8 0.23 0.32
4 0 9 1.64 0.53
-4 -1 12 10.26 1.01
-4 -1 11 0.64 0.33
-4 -1 10 4.39 0.61
-4 -1 10 4.93 0.4
4 1 -9 18.19 0.77
-4 -1 9 17.58 1.09
-4 -1 9 18.75 0.74
4 1 -8 92.57 1.64
-4 -1 8 99.34 1.59
-4 -1 8 95.33 2.33
4 1 -7 2.14 0.39
-4 -1 7 2.35 0.39
4 1 -7 2.15 0.26
-4 -1 7 2.14 0.23
-4 -1 6 51.58 1.13
4 1 -6 53.02 1.2
4 1 -6 50.23 1.58
-4 -1 6 53.92 1.56
-4 -1 5 73.43 1.37
-4 -1 5 75.72 1.33
4 1 -5 74.22 1.75
-4 -1 5 73.64 1.64
4 1 -5 73.39 1.4
-4 -1 4 232.6 2.41
-4 -1 4 228.27 2.59
4 1 -4 229.84 2.83
-4 -1 4 232.14 2.7
-4 -1 3 1125.3 6.22
-4 -1 3 1128.46 5.57
-4 -1 3 1129.81 5.32
-4 -1 2 68.55 1.64
-4 -1 2 66.54 1.18
-4 -1 2 68.97 1.49
-4 -1 1 107.5 2.01
4 1 -1 108.1 2.12
-4 -1 1 111.51 2.23
-4 -1 1 106.66 1.38
4 1 0 18.75 0.97
-4 -1 0 18.45 0.98
4 1 1 334.84 4.25
-4 -1 -1 328.07 4.4
-4 -1 -2 170.28 1.96
4 1 2 174.22 3.27
-4 -1 -2 170.32 3.36
4 1 3 112.64 2.81
-4 -1 -3 111.39 1.82
4 1 4 9.09 0.87
-4 -1 -4 8.64 0.58
4 1 5 61.13 2.33
-4 -1 -5 65.02 1.8
4 1 6 27.75 1.65
-4 -1 -6 27.2 1.25
4 1 7 1.15 0.47
4 1 8 2.48 0.62
-4 -2 12 14.84 1.22
-4 -2 11 2.26 0.5
-4 -2 10 71.89 2.34
-4 -2 9 0.13 0.23
4 2 -9 0.35 0.11
4 2 -8 17.66 0.59
-4 -2 8 17.56 1.06
4 2 -7 4.25 0.29
-4 -2 7 4.07 0.24
4 2 -7 4.34 0.54
-4 -2 7 4.39 0.24
-4 -2 7 4.16 0.5
-4 -2 6 0.03 0.07
4 2 -6 -0.13 0.18
-4 -2 6 -0.19 0.22
-4 -2 6 0.42 0.12
-4 -2 5 32.06 0.88
-4 -2 5 32.61 1.16
-4 -2 5 32.56 0.82
-4 -2 4 308.86 3.07
-4 -2 4 305.7 3.3
-4 -2 3 1764.82 7.99
-4 -2 3 1780.3 7.24
-4 -2 3 1756.31 7.41
-4 -2 2 281.52 3.16
4 2 -2 280.55 3.34
-4 -2 2 274.9 3.46
-4 -2 2 277.06 2.82
4 2 -1 85.89 1.99
-4 -2 1 88.58 2.08
4 2 0 14.92 0.91
-4 -2 0 15.23 0.94
4 2 1 308.48 4.32
-4 -2 -1 305.99 4.44
-4 -2 -2 92.9 1.67
4 2 2 90.52 2.48
-4 -2 -2 95.65 2.64
-4 -2 -3 0.65 0.19
4 2 3 0.58 0.37
-4 -2 -4 36.75 1.27
4 2 4 36.37 1.77
-4 -2 -5 2.49 0.39
4 2 5 1.99 0.47
4 2 6 1.85 0.5
4 2 7 10.91 1.17
-4 -3 12 17.17 1.32
-4 -3 11 19.15 1.32
-4 -3 10 0.46 0.33
-4 -3 9 18.06 1.17
-4 -3 8 26.46 1.33
-4 -3 7 2.68 0.44
-4 -3 6 7.6 0.32
-4 -3 6 7.03 0.33
-4 -3 6 6.65 0.61
-4 -3 5 97.05 1.35
-4 -3 5 96.46 1.56
-4 -3 5 96.43 2.12
-4 -3 4 1.5 0.32
-4 -3 4 1.72 0.26
-4 -3 3 0.45 0.21
-4 -3 3 -0.11 0.2
-4 -3 3 -0.18 0.21
4 3 -3 0.16 0.23
4 3 -2 131.86 2.42
-4 -3 2 133.92 2.52
4 3 -1 30.4 1.28
-4 -3 1 33.89 1.37
4 3 0 1.04 0.31
-4 -3 0 1.76 0.37
4 3 1 2.36 0.47
-4 -3 -1 2.25 0.44
4 3 2 0.04 0.26
-4 -3 -3 37.8 1.28
4 3 3 37.01 1.78
4 3 4 0.07 0.36
-4 -3 -4 0.8 0.26
4 3 5 11.17 1.11
4 3 6 5.19 0.82
4 3 7 21.17 1.67
-4 -4 11 0.72 0.41
-4 -4 10 12.15 1.06
-4 -4 9 0.49 0.29
-4 -4 8 79.16 2.4
-4 -4 7 92.07 2.44
-4 -4 6 24.01 0.48
-4 -4 6 23.5 1.2
-4 -4 6 24.69 0.56
-4 -4 5 0.63 0.13
-4 -4 5 0.35 0.23
-4 -4 5 0.6 0.17
4 4 -4 84.88 1.71
-4 -4 4 84.89 1.78
-4 -4 4 85.34 2.09
-4 -4 4 85.45 1.54
4 4 -3 114.71 2.24
-4 -4 3 114.75 2.27
-4 -4 3 118.21 2.38
-4 -4 2 0.16 0.18
4 4 -2 -0.07 0.23
4 4 -1 23.2 1.18
-4 -4 1 23.63 1.21
4 4 0 12.53 0.95
-4 -4 0 12.01 0.92
4 4 1 16.49 1.16
4 4 2 56.2 2.2
4 4 3 36.84 1.89
4 4 4 0.56 0.36
4 4 5 -0.05 0.34
4 4 6 4.88 0.86
-4 -5 11 22.69 1.54
-4 -5 10 11.02 1.04
-4 -5 9 22.8 1.41
-4 -5 8 -0.05 0.24
-4 -5 7 0.32 0.27
-4 -5 6 0.18 0.05
-4 -5 6 -0.03 0.23
-4 -5 6 0.08 0.04
-4 -5 5 2.9 0.46
-4 -5 5 3.2 0.28
-4 -5 5 3.13 0.32
4 5 -4 63.93 1.64
-4 -5 4 62.8 1.94
-4 -5 3 1.54 0.33
4 5 -3 1.33 0.31
-4 -5 2 79.43 2.17
4 5 -2 81.43 2.2
4 5 -1 3.37 0.51
-4 -5 1 3.59 0.49
4 5 0 55.95 2.09
4 5 1 0.25 0.26
4 5 2 84.76 2.85
4 5 3 4.04 0.7
4 5 4 1.16 0.48
4 5 5 18.42 1.56
-4 -6 10 4.9 0.75
-4 -6 9 1.13 0.41
-4 -6 8 6.2 0.77
-4 -6 7 0.27 0.25
-4 -6 6 0.66 0.08
-4 -6 6 0.64 0.3
-4 -6 6 0.65 0.08
4 6 -5 9.73 0.62
-4 -6 5 10.22 0.87
-4 -6 5 9.58 0.51
4 6 -4 6.98 0.61
-4 -6 4 7.36 0.75
-4 -6 4 6.09 0.54
4 6 -3 17.65 1.04
-4 -6 3 18.57 1.01
4 6 -2 32.01 1.49
-4 -6 2 32.33 1.44
4 6 -1 1.42 0.39
4 6 0 46.51 2.05
4 6 1 0.73 0.38
4 6 2 5.75 0.82
4 6 3 0.22 0.39
4 6 4 11.36 1.24
-4 -7 10 6.62 0.9
-4 -7 9 9.34 1.04
-4 -7 8 28.72 1.69
-4 -7 7 0.33 0.28
-4 -7 6 19.73 1.34
4 7 -5 20.69 1
-4 -7 5 22.27 1.39
4 7 -4 40.94 1.56
-4 -7 4 44.34 1.93
-4 -7 4 39.83 1.4
4 7 -3 -0.14 0.27
-4 -7 3 0.27 0.23
4 7 -2 0.54 0.3
4 7 -1 10.78 1.01
4 7 0 0.55 0.35
4 7 1 9.86 1.07
4 7 2 1.78 0.57
4 7 3 65.6 2.94
-4 -8 8 0.68 0.41
-4 -8 7 0.36 0.26
-4 -8 6 27.88 1.69
4 8 -5 9.98 0.76
-4 -8 5 10.17 1.03
4 8 -4 0.23 0.26
-4 -8 4 0.06 0.29
4 8 -3 3.31 0.57
4 8 -2 15.43 1.23
4 8 -1 4.57 0.73
4 8 0 2.33 0.6
4 8 1 28.9 1.89
-4 -9 7 2.09 0.56
-4 -9 6 0.02 0.39
-4 -9 5 0.49 0.44
-4 -9 4 16.77 1.39
4 9 -3 1.73 0.45
4 9 -2 6.11 0.84
4 9 -1 1.45 0.47
4 9 0 1.68 0.54
4 10 -2 0.46 0.37
4 10 -1 2.62 0.67
-5 11 0 5.56 0.78
-5 11 -1 3.37 0.61
-5 11 -2 11.46 1.06
5 -11 3 0.73 0.41
-5 11 -3 0.73 0.35
-5 11 -4 19.06 1.3
5 -11 4 19.33 1.4
-5 10 3 25.64 1.71
-5 10 2 18.26 1.38
-5 10 2 17.54 1.38
-5 10 1 1.43 0.46
-5 10 0 0.72 0.37
-5 10 -1 3.24 0.57
-5 10 -2 18.32 1.26
-5 10 -3 8.53 0.86
5 -10 3 9.19 0.9
-5 10 -4 8.14 0.82
5 -10 4 8.33 0.88
-5 10 -5 0.29 0.28
-5 9 5 1.39 0.54
-5 9 4 21.68 1.53
-5 9 3 1.12 0.39
-5 9 2 1.91 0.46
-5 9 1 3.22 0.54
-5 9 0 0.68 0.29
-5 9 -1 17.54 1.17
-5 9 -2 28.4 1.45
-5 9 -3 14.19 1.03
5 -9 3 13.75 1.01
-5 9 -4 11.96 0.94
5 -9 4 12.08 0.94
-5 9 -5 16.04 1.08
5 -9 5 14.77 1.06
-5 9 -6 0.21 0.22
-5 8 7 0.06 0.4
-5 8 6 6.64 0.89
-5 8 5 15.79 1.26
-5 8 4 7.63 0.85
-5 8 3 3.78 0.63
-5 8 2 0.36 0.28
-5 8 1 0.45 0.23
-5 8 0 6.74 0.69
-5 8 -1 27.05 1.36
-5 8 -2 7.49 0.73
5 -8 2 7.48 0.7
5 -8 3 0.26 0.21
-5 8 -3 0.14 0.21
5 -8 4 0.14 0.18
-5 8 -4 -0.15 0.2
-5 8 -5 2.33 0.45
5 -8 5 2.79 0.48
5 -8 6 2.96 0.48
-5 8 -6 3.34 0.54
-5 8 -7 7.69 0.77
-5 7 8 1.66 0.52
-5 7 7 25.66 1.65
-5 7 6 1.91 0.5
-5 7 5 36.88 1.79
-5 7 5 38.81 1.82
-5 7 4 2.81 0.5
-5 7 3 248.14 4.24
-5 7 2 44.49 1.76
-5 7 1 94.24 2.46
-5 7 0 85.25 2.31
-5 7 -1 55.95 1.87
5 -7 2 97.79 2.17
-5 7 -2 101.67 2.5
5 -7 3 47.29 1.51
-5 7 -3 46.23 1.69
-5 7 -4 2.61 0.44
5 -7 4 2.64 0.39
-5 7 -5 12.71 0.93
5 -7 5 12.74 0.84
-5 7 -6 7.71 0.76
5 -7 6 8.93 0.73
-5 7 -7 9.15 0.83
-5 7 -8 34.47 1.64
-5 6 10 8.3 1.05
-5 6 9 4.02 0.73
-5 6 8 8.43 0.94
-5 6 7 96.75 2.93
-5 6 6 0.03 0.33
-5 6 5 51.85 1.97
5 -6 -4 2.26 0.37
-5 6 4 1.52 0.41
5 -6 -3 339.31 3.97
-5 6 3 343.38 4.69
-5 6 2 24.87 1.24
-5 6 1 8.85 0.74
-5 6 0 41.78 1.54
-5 6 -1 89.34 2.24
5 -6 2 95.64 1.88
-5 6 -2 93.5 2.34
-5 6 -3 81.55 2.22
5 -6 3 78.44 1.73
5 -6 4 0.13 0.16
-5 6 -4 0.47 0.23
-5 6 -5 38.03 1.57
5 -6 5 37.14 1.3
-5 6 -6 28.56 1.41
5 -6 6 30.77 1.25
-5 6 -7 5.4 0.67
-5 6 -8 1.32 0.41
-5 5 11 8.12 1.02
-5 5 10 27.35 1.75
-5 5 9 -0.52 0.38
-5 5 8 46.37 1.99
-5 5 7 3.4 0.58
-5 5 6 40.99 1.73
5 -5 -5 2.85 0.41
-5 5 5 2.42 0.42
5 -5 -4 221.95 3.16
-5 5 4 232.04 3.73
5 -5 -3 331.74 3.55
-5 5 3 334.41 4.32
5 -5 -2 234.28 2.75
-5 5 2 237.51 3.53
5 -5 -1 0.74 0.27
-5 5 1 -0.05 0.32
5 -5 0 114.76 2.63
-5 5 0 111.99 2.42
-5 5 -1 17.89 0.99
5 -5 1 17.81 0.69
-5 5 -2 82.42 2.14
5 -5 2 83.59 1.49
-5 5 -3 126.96 2.7
5 -5 3 127.45 1.91
5 -5 4 1.68 0.26
-5 5 -4 1.56 0.36
-5 5 -5 4.04 0.55
5 -5 5 4.34 0.43
-5 5 -6 46.97 1.84
5 -5 6 45.67 1.41
-5 5 -7 1.32 0.4
-5 5 -8 5.19 0.71
-5 5 -9 -0.05 0.31
-5 4 11 7.05 0.92
-5 4 10 3.33 0.58
-5 4 9 1.42 0.36
-5 4 8 5.29 0.67
-5 4 7 21.45 1.19
5 -4 -6 2.39 0.39
-5 4 6 1.27 0.33
-5 4 5 9.87 0.77
5 -4 -5 11.14 0.71
5 -4 -4 -0.14 0.21
5 -4 -4 0.04 0.18
-5 4 4 0.33 0.22
5 -4 -3 7.52 0.49
5 -4 -3 7.94 0.66
-5 4 3 7.71 0.64
5 -4 -2 174.15 2.06
5 -4 -2 180.43 3.12
-5 4 2 175.78 2.91
5 -4 -1 13.7 0.5
5 -4 -1 13.62 0.88
-5 4 1 14.11 0.84
-5 4 0 59.23 1.7
5 -4 0 60.93 1.85
-5 4 -1 12.84 0.82
5 -4 1 13.82 0.91
5 -4 1 12.63 0.42
-5 4 -2 69.1 1.95
5 -4 2 71.41 1.07
-5 4 -3 2.89 0.52
5 -4 3 2.48 0.24
5 -4 4 2.89 0.29
-5 4 -4 3.62 0.54
5 -4 5 1.7 0.27
-5 4 -5 1.99 0.44
5 -4 6 21.17 0.92
-5 4 -6 23.71 1.37
5 -4 7 10.83 0.72
-5 4 -7 11.25 1.02
-5 4 -8 8.48 0.95
-5 4 -9 3.03 0.62
-5 3 11 3.68 0.63
-5 3 10 1.6 0.36
-5 3 9 5.04 0.63
-5 3 8 56.66 1.9
-5 3 7 2.08 0.41
5 -3 -6 4.95 0.53
-5 3 6 5.51 0.58
5 -3 -6 5.46 0.56
5 -3 -5 258.42 3.61
-5 3 5 254.78 3.58
5 -3 -5 259.52 3.46
5 -3 -4 63.57 1.76
-5 3 4 62.87 1.7
5 -3 -4 62.35 1.48
5 -3 -3 0.1 0.12
-5 3 3 0.14 0.17
5 -3 -2 184.97 1.84
-5 3 2 189.13 2.9
5 -3 -1 0.46 0.08
5 -3 -1 0.11 0.19
-5 3 1 0 0.17
5 -3 0 8.39 0.7
-5 3 0 9 0.67
-5 3 -1 36.11 1.54
-5 3 -1 36.84 1.36
-5 3 -2 32.5 1.52
-5 3 -2 31.54 1.35
-5 3 -3 110.18 2.63
-5 3 -4 198.32 3.66
-5 3 -5 61.95 2.17
-5 3 -6 -0.22 0.32
-5 3 -7 28.27 1.63
-5 3 -8 31.64 1.81
-5 3 -9 3.76 0.73
-5 2 11 0.22 0.27
-5 2 10 23.62 1.3
-5 2 9 -0.09 0.2
5 -2 -8 7.04 0.64
-5 2 8 6.45 0.6
5 -2 -7 6.72 0.59
-5 2 7 6.86 0.62
5 -2 -7 6.15 0.63
5 -2 -6 17.86 0.94
-5 2 6 18.27 0.94
5 -2 -6 17.99 0.96
5 -2 -5 68.82 1.79
-5 2 5 71.41 1.76
5 -2 -5 66.65 1.66
5 -2 -4 8.47 0.64
-5 2 4 8.39 0.61
5 -2 -4 7.89 0.51
5 -2 -3 6.5 0.57
5 -2 -3 5.68 0.37
-5 2 3 6.12 0.52
-5 2 2 7.68 0.58
5 -2 -2 7.04 0.31
5 -2 -1 68.45 1.86
-5 2 1 66.8 1.7
-5 2 0 144.47 2.93
-5 2 0 146.48 2.66
-5 2 -1 38.07 1.58
-5 2 -1 39.43 1.43
-5 2 -2 23.49 1.31
-5 2 -2 25.7 1.24
-5 2 -3 98.82 2.56
-5 2 -4 92.67 1.59
-5 2 -4 93.7 2.59
-5 2 -5 14.23 1.1
-5 2 -5 14.46 0.76
-5 2 -6 -0.14 0.36
-5 2 -7 6.43 0.84
-5 2 -8 2.32 0.62
-5 1 11 24.45 1.44
-5 1 10 58.09 2.05
-5 1 10 62.58 1.93
-5 1 9 2.6 0.41
-5 1 9 2.13 0.39
5 -1 -9 2.14 0.36
-5 1 8 52.67 1.7
5 -1 -8 52.29 1.58
-5 1 8 53.32 1.55
-5 1 7 4.42 0.47
5 -1 -7 4.53 0.47
-5 1 7 5.16 0.51
5 -1 -7 4.22 0.5
-5 1 6 100.37 1.98
5 -1 -6 98.36 2.06
-5 1 6 101.12 2.04
5 -1 -6 99.44 2.21
-5 1 5 71.34 1.52
5 -1 -5 73.95 1.79
-5 1 5 71.67 1.68
5 -1 -5 69.73 1.66
-5 1 4 25.73 0.8
5 -1 -4 27.66 1.1
5 -1 -4 26.36 0.91
-5 1 4 26.51 1.01
-5 1 3 11.14 0.45
-5 1 3 11.25 0.67
5 -1 -3 11.64 0.5
5 -1 -3 10.95 0.71
-5 1 2 3.88 0.46
5 -1 -2 3.54 0.42
-5 1 2 3.6 0.39
-5 1 1 22.93 1.12
-5 1 1 24.04 1.04
-5 1 0 45.51 1.67
-5 1 0 45.5 1.52
-5 1 -1 343.96 4.76
-5 1 -1 348.8 4.36
-5 1 -2 2.29 0.42
-5 1 -2 1.96 0.14
-5 1 -3 9.99 0.85
-5 1 -3 10.06 0.45
-5 1 -4 44.56 1.89
-5 1 -4 43.76 1.16
-5 1 -5 5.17 0.7
-5 1 -5 5.32 0.48
-5 1 -6 7.82 0.94
-5 1 -7 5.23 0.78
-5 1 -8 1.63 0.53
-5 0 12 5.05 0.71
-5 0 11 1.53 0.41
-5 0 10 90.45 2.55
-5 0 10 92.85 2.09
-5 0 9 25.52 1.29
5 0 -9 25.66 1.06
-5 0 9 27.27 1.07
-5 0 8 17.62 1
5 0 -8 16.43 0.83
-5 0 8 17.64 0.8
-5 0 7 91.87 2.12
-5 0 7 95.78 1.92
5 0 -7 93.03 1.95
5 0 -7 95.11 2.37
-5 0 6 28.09 1
5 0 -6 27.25 1.06
5 0 -6 25.46 1.14
-5 0 6 26.59 1.05
5 0 -5 10.14 0.66
-5 0 5 11.42 0.64
5 0 -5 11.6 0.68
-5 0 5 10.52 0.61
-5 0 4 156.75 2.38
5 0 -4 158.15 2.56
-5 0 4 153.22 2.52
5 0 -4 149.79 2.19
-5 0 4 153.71 2.05
-5 0 3 74.37 1.67
-5 0 3 72.82 1.84
-5 0 3 75.36 1.25
-5 0 2 86.59 2.09
-5 0 2 86.69 1.92
-5 0 2 90.69 1.14
-5 0 1 26.46 1.23
-5 0 1 24.75 0.43
-5 0 0 68.46 2.06
-5 0 0 66.99 1.86
-5 0 -1 29.48 1.33
-5 0 -1 27.68 1.4
-5 0 -1 26.47 0.52
-5 0 -2 0.05 0.07
-5 0 -2 -0.04 0.23
5 0 2 0.17 0.23
5 0 3 16.04 1.14
-5 0 -3 16.13 0.65
-5 0 -4 0.69 0.23
5 0 4 1.11 0.47
-5 0 -5 1.69 0.28
5 0 5 1.31 0.43
5 0 6 15.51 1.3
5 0 7 0.22 0.32
-5 -1 12 14.03 1.16
-5 -1 11 41.32 1.87
-5 -1 10 30.6 1.52
5 1 -9 131.06 2.18
-5 -1 9 128.66 2.92
5 1 -8 6.61 0.5
-5 -1 8 6.49 0.43
-5 -1 8 6.52 0.65
-5 -1 7 10.87 0.59
-5 -1 7 11.57 0.62
5 1 -7 10.72 0.83
5 1 -7 10.81 0.62
-5 -1 7 10.53 0.76
5 1 -6 152.06 2.32
-5 -1 6 146.59 2.24
-5 -1 6 152.93 2.16
5 1 -6 151.29 2.79
-5 -1 6 153.1 2.65
-5 -1 5 11.89 0.68
5 1 -5 12.03 0.74
-5 -1 5 12.45 0.71
-5 -1 5 12.77 0.65
-5 -1 4 134.89 2.16
-5 -1 4 129.22 2.37
-5 -1 4 135.14 2.09
-5 -1 3 17.09 0.9
-5 -1 3 17.03 0.84
-5 -1 3 16.64 0.67
-5 -1 2 0.35 0.18
-5 -1 2 0.46 0.14
-5 -1 2 0.54 0.23
-5 -1 1 30.99 1.23
-5 -1 1 31.71 1.37
-5 -1 1 30.56 0.76
-5 -1 0 1.11 0.32
-5 -1 0 1.01 0.3
5 1 0 0.84 0.28
-5 -1 -1 40.25 0.87
5 1 1 39.91 1.65
-5 -1 -1 40.74 1.74
-5 -1 -2 1.14 0.18
5 1 2 1.17 0.36
5 1 3 5.95 0.72
-5 -1 -3 5.16 0.41
5 1 4 76.66 2.66
-5 -1 -4 79.41 1.84
5 1 5 13.85 1.24
5 1 6 44.22 2.24
5 1 7 29.2 1.92
-5 -2 12 0.3 0.29
-5 -2 11 10.25 0.97
-5 -2 10 -0.43 0.4
-5 -2 9 19.9 0.42
-5 -2 9 23.27 1.29
-5 -2 8 1.29 0.35
-5 -2 8 1.04 0.15
-5 -2 8 1.1 0.16
-5 -2 7 24.94 0.82
-5 -2 7 27.04 0.84
5 2 -7 25.27 1.3
-5 -2 7 26.62 1.22
-5 -2 6 2.36 0.36
-5 -2 6 2.22 0.28
-5 -2 6 3.28 0.31
-5 -2 5 51.79 1.25
-5 -2 5 51.1 1.4
-5 -2 5 52.17 1.5
-5 -2 4 0.53 0.22
-5 -2 4 0.29 0.16
-5 -2 4 0.24 0.17
-5 -2 3 32.03 1.29
-5 -2 3 31.9 1.13
-5 -2 3 31.7 1.04
-5 -2 2 8.06 0.63
-5 -2 2 7.56 0.68
-5 -2 2 7.87 0.49
-5 -2 1 25.99 1.19
5 2 -1 26.05 1.24
-5 -2 1 26.51 1.31
-5 -2 0 3.06 0.52
5 2 0 2.54 0.47
5 2 1 45.93 1.85
-5 -2 -2 1.91 0.27
5 2 2 1.97 0.48
-5 -2 -3 40.68 1.26
5 2 3 40.02 1.91
5 2 4 48.9 2.22
-5 -2 -4 46.21 1.47
5 2 5 2.42 0.6
5 2 6 2.33 0.6
-5 -3 11 14.28 1.15
-5 -3 10 2.68 0.55
-5 -3 9 29.15 1.52
-5 -3 8 8.95 0.8
-5 -3 7 4.25 0.3
-5 -3 7 4.57 0.31
-5 -3 7 4.41 0.54
-5 -3 6 0.64 0.15
-5 -3 6 0.56 0.17
-5 -3 6 0.57 0.24
-5 -3 5 15.92 0.7
-5 -3 5 15.76 0.81
-5 -3 5 14.59 0.85
-5 -3 4 282.82 3.68
-5 -3 4 288.85 3.25
-5 -3 4 282.75 3.58
-5 -3 3 76.22 2.06
-5 -3 3 77.32 1.8
-5 -3 3 77.13 1.82
-5 -3 2 126.52 2.55
5 3 -2 127.01 2.67
-5 -3 2 124.61 2.75
-5 -3 2 124.47 2.22
5 3 -1 20.64 1.19
-5 -3 1 21.97 1.24
5 3 0 13.36 1.01
5 3 1 97.15 2.81
-5 -3 -2 25.36 1.03
5 3 2 25.43 1.52
-5 -3 -3 7 0.59
5 3 3 6.81 0.85
5 3 4 7.6 0.96
5 3 5 8.92 1.08
-5 -4 11 0.62 0.36
-5 -4 10 -0.16 0.27
-5 -4 9 0.76 0.35
-5 -4 8 9.52 0.86
-5 -4 7 0.01 0.05
-5 -4 7 0.1 0.06
-5 -4 6 7.07 0.47
-5 -4 6 6.85 0.66
-5 -4 6 5.95 0.38
-5 -4 5 6.59 0.47
-5 -4 5 5.78 0.6
-5 -4 4 248.85 3.57
-5 -4 4 246.57 3.65
-5 -4 4 245.22 3.06
-5 -4 3 106.87 2.23
5 4 -3 106.31 2.44
-5 -4 3 107.58 2.56
-5 -4 3 106.34 2.33
5 4 -2 20.57 1.16
-5 -4 2 22.28 1.23
5 4 -1 29.18 1.46
5 4 0 5.94 0.75
5 4 1 4.9 0.73
5 4 2 7.64 0.92
5 4 3 9.34 1.03
5 4 4 3.79 0.73
-5 -5 11 1.43 0.46
-5 -5 10 0.69 0.36
-5 -5 9 9.88 0.97
-5 -5 8 -0.2 0.32
-5 -5 7 4.58 0.63
-5 -5 6 41.2 0.97
-5 -5 6 42.86 1.15
-5 -5 6 41.82 1.72
-5 -5 5 0.83 0.33
-5 -5 5 0.41 0.19
-5 -5 5 0.73 0.22
-5 -5 4 5.94 0.53
5 5 -4 6.26 0.61
-5 -5 4 5.64 0.57
-5 -5 4 6.05 0.65
5 5 -3 14.36 0.98
-5 -5 3 15.82 1.01
-5 -5 3 14.6 0.95
5 5 -2 5.83 0.68
5 5 -1 4.39 0.62
5 5 0 1.04 0.39
5 5 1 0.81 0.39
5 5 2 67 2.7
5 5 3 2.32 0.63
-5 -6 10 -0.26 0.33
-5 -6 9 16.73 1.3
-5 -6 8 2.4 0.52
-5 -6 7 5.86 0.74
-5 -6 6 -0.24 0.29
-5 -6 6 0.1 0.1
-5 -6 5 2.74 0.51
5 6 -5 2.95 0.4
-5 -6 5 2.68 0.34
-5 -6 5 2.9 0.38
-5 -6 4 0.45 0.2
-5 -6 4 0.96 0.35
-5 -6 4 0.43 0.23
5 6 -4 0.89 0.26
5 6 -3 8.22 0.78
5 6 -2 4.64 0.64
5 6 -1 -0.13 0.27
5 6 0 -0.33 0.39
5 6 1 3.75 0.7
5 6 2 24.89 1.77
-5 -7 9 0.56 0.36
-5 -7 8 -0.17 0.33
-5 -7 7 4.06 0.68
-5 -7 6 18.33 1.31
-5 -7 5 1.62 0.41
5 7 -5 1.54 0.34
5 7 -4 5.96 0.68
-5 -7 4 6.79 0.81
5 7 -3 29.84 1.58
5 7 -2 0.92 0.37
5 7 -1 1.49 0.49
5 7 0 12.38 1.22
5 7 1 6.37 0.94
-5 -8 8 1.15 0.47
-5 -8 7 -0.27 0.35
-5 -8 6 -0.13 0.36
-5 -8 5 5.11 0.76
-5 -8 4 -0.13 0.31
5 8 -4 0.22 0.26
5 8 -3 6.53 0.8
5 8 -2 5.48 0.8
5 8 -1 1.79 0.52
5 8 0 1.4 0.51
-5 -9 5 5.48 0.84
-5 -9 4 1.17 0.49
5 9 -2 0.67 0.45
5 9 -1 0.91 0.46
-6 10 2 34.02 1.9
-6 10 1 14.01 1.23
-6 10 0 2.86 0.57
-6 10 -1 10.58 1.03
-6 10 -2 0.14 0.25
-6 10 -3 14.26 1.14
-6 10 -4 0.32 0.27
-6 10 -5 -0.18 0.29
-6 9 4 23.03 1.57
-6 9 3 0.82 0.4
-6 9 2 27.62 1.62
-6 9 1 2.24 0.51
-6 9 0 0.1 0.25
-6 9 -1 0.54 0.32
6 -9 2 0.5 0.27
-6 9 -2 0.44 0.31
-6 9 -3 6.54 0.74
-6 9 -4 2.54 0.52
-6 9 -5 12.68 1.04
-6 9 -6 0.23 0.27
-6 8 6 4.55 0.75
-6 8 5 2.84 0.61
-6 8 4 10.39 1.02
-6 8 3 3.62 0.6
-6 8 2 4.87 0.67
-6 8 1 3.37 0.53
-6 8 0 25.3 1.39
-6 8 -1 9.09 0.85
-6 8 -2 12.87 1
6 -8 2 13.39 0.85
-6 8 -3 1.61 0.39
-6 8 -4 21.49 1.32
-6 8 -5 1.52 0.41
-6 8 -6 10.05 0.93
-6 8 -7 2.03 0.48
-6 7 8 4.82 0.78
-6 7 7 2.64 0.59
-6 7 6 4.47 0.66
-6 7 6 4.88 0.72
-6 7 5 4.52 0.67
-6 7 4 6.26 0.76
6 -7 -3 28.28 1.21
-6 7 3 30.96 1.55
-6 7 2 21.98 1.27
-6 7 1 47.44 1.84
-6 7 0 1.35 0.41
6 -7 1 64.12 1.63
-6 7 -1 64.51 2.14
6 -7 2 48.29 1.38
-6 7 -2 49.93 1.87
6 -7 3 7.83 0.56
-6 7 -3 7.86 0.79
-6 7 -4 0.99 0.36
-6 7 -5 3.55 0.56
-6 7 -6 0.36 0.26
-6 7 -7 0.48 0.32
-6 6 9 0.07 0.28
-6 6 8 3.66 0.64
-6 6 7 -0.11 0.26
-6 6 6 0.3 0.32
-6 6 5 27.97 1.49
6 -6 -4 64.06 1.81
-6 6 4 67.91 2.24
6 -6 -3 22.41 1
-6 6 3 23.99 1.3
6 -6 -2 132.99 2.21
-6 6 2 141.83 3.06
-6 6 1 18.59 1.1
-6 6 0 13.14 0.95
6 -6 1 9.23 0.53
-6 6 -1 10.24 0.85
-6 6 -2 11.64 0.91
6 -6 2 11.95 0.57
6 -6 3 0.24 0.14
-6 6 -3 -0.05 0.24
-6 6 -4 5.29 0.67
-6 6 -5 -0.16 0.25
-6 6 -6 0 0.26
-6 6 -7 1.47 0.45
-6 5 11 -0.09 0.32
-6 5 10 3.29 0.62
-6 5 9 4.16 0.67
-6 5 8 1.24 0.47
-6 5 7 0.43 0.27
-6 5 6 65.57 2.23
-6 5 5 3.36 0.52
6 -5 -5 3.39 0.45
-6 5 4 36.33 1.55
6 -5 -4 34.57 1.25
6 -5 -3 9.72 0.6
-6 5 3 10.84 0.84
6 -5 -2 139.31 1.97
-6 5 2 140.89 2.92
6 -5 -1 74.26 1.26
-6 5 1 72.26 2.08
6 -5 0 0.33 0.1
-6 5 0 0.19 0.21
6 -5 0 0.44 0.1
-6 5 -1 16.6 1.05
6 -5 1 15.72 0.47
-6 5 -2 20.21 1.17
6 -5 2 18.92 0.51
-6 5 -3 33.97 1.56
6 -5 3 34.49 0.75
-6 5 -4 7.79 0.79
-6 5 -5 9.37 0.9
-6 5 -6 13.06 1.09
-6 5 -7 29.26 1.68
-6 4 11 0.11 0.3
-6 4 10 1.3 0.41
-6 4 9 48.87 2.05
-6 4 8 49.59 1.94
-6 4 7 0.57 0.29
-6 4 6 25.81 1.31
6 -4 -6 26.37 1.25
-6 4 5 8.64 0.74
6 -4 -5 9.77 0.71
-6 4 4 84.95 2.22
6 -4 -4 80.07 1.77
6 -4 -3 1.34 0.22
-6 4 3 1.53 0.32
-6 4 2 25.84 1.21
6 -4 -2 24.91 0.72
6 -4 -1 0.2 0.06
-6 4 1 -0.15 0.23
-6 4 0 2.49 0.42
-6 4 -1 68.23 2.05
-6 4 -2 54.42 1.89
-6 4 -3 7.42 0.76
-6 4 -4 34.2 1.64
-6 4 -5 0.08 0.3
-6 4 -6 6.11 0.81
-6 4 -7 0.72 0.4
-6 3 10 0.78 0.32
-6 3 9 41.46 1.76
-6 3 8 1.48 0.38
-6 3 7 12 0.9
6 -3 -6 0.07 0.15
-6 3 6 0.09 0.19
-6 3 5 29.66 1.29
6 -3 -5 27.86 1.11
-6 3 4 190.38 3.17
6 -3 -4 181.85 2.49
6 -3 -3 5.87 0.38
-6 3 3 5.57 0.58
-6 3 2 129.03 2.62
6 -3 -2 117.98 1.17
-6 3 1 0.43 0.21
-6 3 0 76.37 2.1
-6 3 -1 60.76 1.94
-6 3 -2 140.23 3.1
-6 3 -3 127.38 3.09
-6 3 -4 130.35 3.3
-6 3 -5 34.46 1.8
-6 3 -6 1.68 0.5
-6 3 -7 21.39 1.57
-6 2 10 0.07 0.23
-6 2 9 2.91 0.45
-6 2 8 12.45 0.9
6 -2 -7 1.34 0.3
-6 2 7 1.47 0.33
6 -2 -6 10.91 0.8
-6 2 6 11.27 0.78
6 -2 -6 9.67 0.7
6 -2 -5 5.28 0.57
-6 2 5 5.02 0.53
6 -2 -5 4.62 0.44
6 -2 -4 68.03 2
6 -2 -4 64.82 1.42
-6 2 4 66.5 1.82
6 -2 -3 159.3 3.05
-6 2 3 156.76 2.83
6 -2 -3 154.11 1.73
-6 2 2 4.6 0.53
6 -2 -2 4.92 0.56
-6 2 2 4.67 0.57
-6 2 1 45.86 1.79
-6 2 1 45.01 1.56
-6 2 0 32.59 1.4
-6 2 -1 1.42 0.36
-6 2 -2 3.47 0.59
-6 2 -3 1.53 0.44
-6 2 -4 4.69 0.71
-6 2 -5 46.37 2.13
-6 2 -6 14.96 1.31
-6 2 -7 8.38 1.05
-6 1 11 -0.27 0.38
-6 1 10 30.33 1.51
-6 1 10 34.24 1.43
-6 1 9 20.4 1.15
-6 1 9 22.8 1.1
-6 1 8 10.51 0.79
-6 1 8 11.87 0.82
6 -1 -8 10.67 0.79
-6 1 7 10 0.7
-6 1 7 9.37 0.7
6 -1 -7 9.05 0.71
6 -1 -7 10.09 0.81
-6 1 6 123.36 2.19
-6 1 6 122.12 2.41
6 -1 -6 121.05 2.56
6 -1 -6 117.83 2.43
-6 1 5 22.9 0.85
6 -1 -5 22.15 0.95
-6 1 5 22.61 1.02
6 -1 -5 23.58 1.13
-6 1 4 27.2 0.8
6 -1 -4 26.17 1.23
6 -1 -4 24.06 0.85
-6 1 4 26.73 1.12
-6 1 3 64.27 1.76
-6 1 3 62.98 1.93
-6 1 2 34.42 1.49
-6 1 2 33.01 1.3
-6 1 1 80.78 2.37
-6 1 1 78.61 2.12
-6 1 0 0.54 0.27
-6 1 -1 1.86 0.42
-6 1 -2 116.98 2.96
-6 1 -3 161.92 3.68
-6 1 -4 -0.03 0.36
-6 1 -5 14.7 1.28
-6 1 -6 6.61 0.94
-6 0 11 21.09 1.34
-6 0 10 7.63 0.79
-6 0 9 16.62 1.06
-6 0 9 18.57 0.9
-6 0 8 1.79 0.36
-6 0 8 2.36 0.37
6 0 -8 2.29 0.36
-6 0 7 23.68 1.08
-6 0 7 23.59 1.02
6 0 -7 22.88 1.19
6 0 -7 23.14 1.08
-6 0 6 17.37 0.85
6 0 -6 17.58 0.96
-6 0 6 15.77 0.87
-6 0 6 18.07 0.89
6 0 -6 17.04 0.93
6 0 -5 83.56 2.07
-6 0 5 82.41 2.05
6 0 -5 83.22 1.87
-6 0 5 86.74 1.94
-6 0 5 88.8 1.73
-6 0 4 0.79 0.18
-6 0 4 1.2 0.27
-6 0 4 0.81 0.26
-6 0 3 40.46 1.38
-6 0 3 37.95 1.51
-6 0 3 40.04 0.86
-6 0 2 0.06 0.05
-6 0 2 0.1 0.21
-6 0 2 -0.11 0.26
-6 0 1 0.67 0.26
-6 0 1 2.69 0.42
-6 0 0 15.9 1.05
-6 0 -1 6.31 0.7
-6 0 -2 3.72 0.59
-6 0 -2 3.87 0.22
-6 0 -3 28.78 1.65
-6 0 -4 18.61 1.4
-6 0 -5 1.38 0.47
-6 0 -6 4.76 0.86
-6 -1 11 6.98 0.8
-6 -1 10 1.83 0.41
-6 -1 9 6.22 0.47
-6 -1 9 5.45 0.62
6 1 -8 6.05 0.53
-6 -1 8 5.78 0.48
-6 -1 8 6.77 0.54
-6 -1 8 5.64 0.6
-6 -1 7 2.41 0.33
-6 -1 7 3.88 0.4
6 1 -7 3.47 0.5
-6 -1 7 3.9 0.47
-6 -1 6 5.69 0.49
-6 -1 6 4.82 0.48
-6 -1 5 11.89 0.72
-6 -1 5 11.69 0.78
-6 -1 5 12.55 0.72
-6 -1 4 2.83 0.38
-6 -1 4 3.32 0.47
-6 -1 4 3.84 0.37
-6 -1 3 13.44 0.92
-6 -1 3 11.78 0.77
-6 -1 3 12.61 0.58
-6 -1 2 17.39 1.1
-6 -1 2 18.18 1.01
-6 -1 2 16.82 0.6
-6 -1 1 18.62 0.57
-6 -1 1 18.57 1.08
-6 -1 0 111.06 1.26
-6 -1 0 109.4 1.37
-6 -1 -1 0.24 0.08
-6 -1 -1 -0.23 0.34
6 1 2 6.26 0.8
-6 -1 -2 7.58 0.86
-6 -1 -2 7.32 0.43
6 1 3 9.04 0.99
6 1 4 9.17 1.03
6 1 5 -0.09 0.37
-6 -2 11 16.94 1.24
-6 -2 10 10.23 0.92
-6 -2 9 8.87 0.84
-6 -2 8 14.48 0.7
-6 -2 8 14.53 0.98
-6 -2 7 7.47 0.56
-6 -2 7 9.24 0.57
-6 -2 7 9.17 0.74
-6 -2 6 2.61 0.37
-6 -2 6 4.11 0.5
-6 -2 6 3.71 0.37
-6 -2 5 277.89 3.36
-6 -2 5 270.86 3.76
-6 -2 5 281.27 3.58
-6 -2 4 20.61 0.97
-6 -2 4 19.76 1.08
-6 -2 4 19.42 0.88
-6 -2 3 -0.01 0.19
-6 -2 3 0.05 0.14
-6 -2 3 0 0.18
-6 -2 2 0.17 0.24
-6 -2 2 0.08 0.12
-6 -2 2 -0.01 0.18
-6 -2 1 40.19 1.64
-6 -2 1 36.35 1.04
-6 -2 0 4.39 0.62
6 2 0 4.22 0.64
-6 -2 -1 8.74 0.5
6 2 1 8.4 0.9
6 2 2 33.78 1.82
6 2 3 5.91 0.86
6 2 4 16.64 1.43
-6 -3 11 11.71 1.06
-6 -3 10 9.5 0.95
-6 -3 9 5.84 0.74
-6 -3 8 3.86 0.33
-6 -3 8 3.61 0.56
-6 -3 7 21.62 0.91
-6 -3 7 21.84 0.82
-6 -3 7 21.29 1.18
-6 -3 6 3.81 0.39
-6 -3 6 3.02 0.4
-6 -3 6 3.86 0.52
-6 -3 5 175.23 2.68
-6 -3 5 174.42 3.11
-6 -3 5 179.1 3.02
-6 -3 4 81.36 2.25
-6 -3 4 82.21 1.99
-6 -3 4 82.38 1.99
-6 -3 3 11 0.88
-6 -3 3 10.2 0.68
-6 -3 3 10.91 0.81
-6 -3 2 28.4 1.37
-6 -3 2 29.36 1.1
-6 -3 1 8.46 0.8
6 3 -1 7.5 0.83
6 3 0 61.38 2.31
6 3 1 0.99 0.37
6 3 2 3.68 0.67
6 3 3 0.04 0.34
6 3 4 0.48 0.41
-6 -4 11 0.85 0.43
-6 -4 10 22.36 1.48
-6 -4 9 1.99 0.46
-6 -4 8 1.57 0.41
-6 -4 7 4.46 0.36
-6 -4 7 3.78 0.55
-6 -4 6 0.5 0.22
-6 -4 6 0.3 0.26
-6 -4 6 0.53 0.19
-6 -4 5 2.27 0.39
-6 -4 5 2.12 0.42
-6 -4 5 2.02 0.33
-6 -4 4 11.38 0.88
-6 -4 4 11.54 0.78
-6 -4 4 13.85 0.89
-6 -4 3 11.43 0.83
-6 -4 3 10 0.74
-6 -4 2 16.56 1.08
6 4 -2 17.77 1.18
-6 -4 2 17.59 0.97
6 4 -1 1.58 0.47
6 4 0 6.66 0.84
6 4 1 17.03 1.36
6 4 2 -0.35 0.39
6 4 3 6.67 0.95
-6 -5 10 4.5 0.7
-6 -5 9 0.95 0.34
-6 -5 8 5.42 0.71
-6 -5 7 4.55 0.65
-6 -5 6 0.49 0.32
-6 -5 6 0.39 0.17
-6 -5 5 16.37 0.87
-6 -5 5 16.75 1.1
-6 -5 4 57.55 1.96
-6 -5 4 57.41 1.76
-6 -5 3 17.74 1.08
6 5 -3 18.03 1.18
-6 -5 3 15.53 1.02
6 5 -2 1.24 0.44
6 5 -1 0.24 0.36
6 5 0 34.61 1.91
6 5 1 0.84 0.45
6 5 2 4.31 0.82
-6 -6 9 0.49 0.32
-6 -6 8 0.41 0.31
-6 -6 7 -0.34 0.3
-6 -6 6 13.78 1.1
-6 -6 5 -0.27 0.29
-6 -6 5 0.06 0.18
-6 -6 4 0.49 0.25
-6 -6 4 0.18 0.22
6 6 -4 0.79 0.34
-6 -6 3 1.81 0.39
-6 -6 3 3.39 0.52
6 6 -3 3.32 0.58
6 6 -2 5.31 0.73
6 6 -1 2.04 0.52
6 6 0 4.04 0.72
6 6 1 16.53 1.48
-6 -7 8 3.24 0.63
-6 -7 7 3.92 0.7
-6 -7 6 0.74 0.38
-6 -7 5 1.29 0.41
-6 -7 4 0.09 0.26
6 7 -4 0.77 0.36
-6 -7 3 2.39 0.48
6 7 -3 3.96 0.65
6 7 -2 0.01 0.29
6 7 -1 6.97 0.94
6 7 0 -0.07 0.36
-6 -8 6 -0.32 0.3
-6 -8 5 4.94 0.76
-6 -8 4 1.14 0.37
-6 -8 3 0.11 0.25
6 8 -2 0.79 0.42
-7 9 2 3.55 0.63
-7 9 1 4.67 0.7
-7 9 0 3.33 0.6
-7 9 -1 30.35 1.67
-7 9 -2 6.03 0.77
-7 9 -3 1.61 0.46
-7 8 5 9.06 1.01
-7 8 4 3.05 0.6
-7 8 3 17.95 1.3
-7 8 2 4.51 0.66
-7 8 1 14.31 1.13
-7 8 0 3.53 0.59
-7 8 -1 1.31 0.42
-7 8 -2 0.25 0.28
-7 8 -3 0.12 0.28
-7 8 -4 8.13 0.88
-7 7 7 3.43 0.65
-7 7 7 1.98 0.52
-7 7 6 42.43 2.08
-7 7 5 11.71 1.06
-7 7 4 0.37 0.34
-7 7 3 11.69 1
-7 7 2 6.55 0.75
-7 7 1 2.06 0.46
-7 7 0 8.29 0.84
-7 7 -1 0.18 0.27
-7 7 -2 0.09 0.26
-7 7 -3 2.85 0.55
-7 7 -4 11.39 1.03
-7 7 -5 -0.11 0.23
-7 6 9 2.63 0.6
-7 6 8 2.65 0.61
-7 6 7 9.84 1.01
-7 6 6 6.3 0.78
-7 6 5 90.12 2.77
-7 6 4 52.99 2.04
-7 6 3 11.22 0.94
-7 6 2 6.54 0.73
-7 6 1 1.24 0.4
-7 6 0 114.52 2.92
-7 6 -1 9.49 0.87
-7 6 -2 17.92 1.22
-7 6 -3 40.77 1.85
-7 6 -4 7.96 0.87
-7 6 -5 1.15 0.39
-7 5 10 3.61 0.69
-7 5 9 3.49 0.63
-7 5 8 26.76 1.59
-7 5 7 2.83 0.55
-7 5 6 1.49 0.4
7 -5 -5 0.4 0.23
-7 5 5 -0.17 0.33
-7 5 4 116.84 2.89
7 -5 -4 112.3 2.18
-7 5 3 70.78 2.24
7 -5 -3 72.79 1.52
-7 5 2 31.25 1.49
7 -5 -2 30.59 0.79
-7 5 1 16.56 1.09
-7 5 0 121.22 2.96
-7 5 -1 29.93 1.5
-7 5 -2 7.19 0.81
-7 5 -3 1.82 0.43
-7 5 -4 0.08 0.25
-7 5 -5 4.06 0.67
-7 4 10 1.5 0.48
-7 4 9 1.91 0.49
-7 4 8 7.26 0.81
-7 4 7 2.7 0.48
-7 4 6 32.61 1.54
7 -4 -6 31.89 1.35
-7 4 5 196.23 3.65
7 -4 -5 182.49 2.9
7 -4 -4 0.04 0.17
-7 4 4 0.33 0.29
-7 4 3 96.78 2.52
7 -4 -3 94.02 1.45
-7 4 2 12.82 0.94
-7 4 1 0.71 0.3
-7 4 0 2.09 0.45
-7 4 -1 0.25 0.28
-7 4 -2 31.23 1.59
-7 4 -3 -0.21 0.35
-7 4 -4 0.17 0.27
-7 4 -5 21.67 1.52
-7 3 10 4.15 0.63
-7 3 9 2.48 0.52
-7 3 9 2.98 0.55
-7 3 8 7.1 0.76
-7 3 7 31.96 1.5
-7 3 6 2.95 0.48
7 -3 -6 2.73 0.4
7 -3 -5 1.47 0.29
-7 3 5 1.55 0.38
7 -3 -4 36.92 1.05
-7 3 4 37.15 1.55
7 -3 -3 0.43 0.1
-7 3 3 0.47 0.29
-7 3 2 13.1 0.95
-7 3 1 4.66 0.58
-7 3 0 2.77 0.49
-7 3 -1 32.26 1.57
-7 3 -2 31.48 1.63
-7 3 -3 5.75 0.75
-7 3 -4 13.58 1.19
-7 3 -5 4.82 0.8
-7 2 10 24.42 1.34
-7 2 9 -0.03 0.24
-7 2 8 6.44 0.68
-7 2 7 15.56 0.99
7 -2 -7 15.14 0.99
7 -2 -6 1.64 0.33
-7 2 6 2.85 0.45
7 -2 -5 1.24 0.24
-7 2 5 1.22 0.34
7 -2 -4 3.6 0.31
-7 2 4 4.18 0.53
-7 2 3 32.47 1.44
-7 2 2 -0.17 0.25
-7 2 1 12.21 0.92
-7 2 0 0.25 0.29
-7 2 -1 60.61 2.2
-7 2 -2 0.13 0.3
-7 2 -3 5.55 0.82
-7 2 -4 11.48 1.14
-7 2 -5 9.26 1.09
-7 1 11 1.05 0.39
-7 1 10 5.07 0.64
-7 1 9 -0.17 0.33
-7 1 9 0.03 0.2
-7 1 8 1.18 0.32
-7 1 8 1.25 0.31
7 -1 -7 0.38 0.21
-7 1 7 0.51 0.2
-7 1 7 0.74 0.28
-7 1 6 12.05 0.7
-7 1 6 11.54 0.83
7 -1 -6 10.77 0.74
-7 1 5 1.58 0.34
-7 1 5 1.71 0.25
-7 1 4 0.74 0.27
-7 1 3 42.04 1.57
-7 1 2 2.11 0.4
-7 1 1 95.28 2.56
-7 1 0 19.96 1.26
-7 1 -1 11.93 1.04
-7 1 -2 26.79 1.6
-7 1 -3 64.75 2.62
-7 1 -4 3.57 0.7
-7 0 11 1.32 0.39
-7 0 10 5.31 0.65
-7 0 9 17.72 1.09
-7 0 9 19.2 1.06
-7 0 8 3.31 0.49
-7 0 8 3.47 0.45
-7 0 7 22.7 1.06
7 0 -7 22.73 1.18
-7 0 7 20.43 1.1
-7 0 7 23.1 1.11
7 0 -7 21.25 1.16
-7 0 6 0.8 0.27
-7 0 6 0.41 0.19
-7 0 6 0.3 0.21
-7 0 5 37.06 1.11
-7 0 5 34.12 1.49
-7 0 5 35.32 1.37
-7 0 4 19.1 0.69
-7 0 4 18.64 1.02
-7 0 3 10.97 0.39
-7 0 3 11.34 0.84
-7 0 2 11.21 0.87
-7 0 1 11.81 0.95
-7 0 0 27.19 1.49
-7 0 -1 -0.39 0.33
-7 0 -2 -0.11 0.34
-7 0 -3 16.7 1.37
-7 0 -4 10.01 1.14
-7 -1 11 27.88 1.57
-7 -1 10 14.08 1.07
-7 -1 9 27.18 1.38
-7 -1 9 28.64 1.2
-7 -1 8 0.54 0.27
-7 -1 8 0.61 0.22
-7 -1 7 14.68 0.91
-7 -1 7 16.07 0.89
-7 -1 7 16.46 0.95
-7 -1 6 47.69 1.7
-7 -1 6 49.51 1.58
-7 -1 6 52.15 1.56
-7 -1 5 0.35 0.23
-7 -1 5 0.62 0.23
-7 -1 5 1.02 0.29
-7 -1 4 0.16 0.15
-7 -1 4 -0.2 0.23
-7 -1 3 6.29 0.63
-7 -1 3 7 0.43
-7 -1 2 5.58 0.65
-7 -1 2 5.39 0.3
-7 -1 1 5.35 0.21
-7 -1 1 6.76 0.76
-7 -1 0 4.79 0.67
-7 -1 -1 24.86 1.56
-7 -1 -2 9.09 1.02
-7 -1 -3 0.53 0.45
-7 -2 11 1.89 0.48
-7 -2 10 15.88 1.15
-7 -2 9 0.01 0.29
-7 -2 8 7.14 0.56
-7 -2 8 7.86 0.76
-7 -2 7 2.97 0.39
-7 -2 7 3.61 0.5
-7 -2 6 -0.05 0.22
-7 -2 6 0.14 0.2
-7 -2 6 0.12 0.19
-7 -2 5 9 0.69
-7 -2 5 8.08 0.78
-7 -2 5 9.36 0.67
-7 -2 4 7.99 0.69
-7 -2 4 8.11 0.58
-7 -2 3 0.05 0.13
-7 -2 3 -0.15 0.23
-7 -2 2 6.08 0.69
-7 -2 2 4.89 0.39
-7 -2 1 19.56 0.74
-7 -2 1 20.49 1.3
-7 -2 0 0.91 0.33
-7 -2 -1 5.91 0.8
-7 -2 -2 20.92 1.55
-7 -2 -3 13.71 1.35
7 2 3 12.64 1.3
-7 -3 11 2.27 0.52
-7 -3 10 0.27 0.3
-7 -3 9 0.55 0.32
-7 -3 8 1.58 0.39
-7 -3 7 1.17 0.27
-7 -3 7 0.69 0.28
-7 -3 6 24.84 1.09
-7 -3 6 23.7 1.22
-7 -3 5 1.85 0.42
-7 -3 5 1.81 0.38
-7 -3 5 1.55 0.35
-7 -3 4 24.91 1.24
-7 -3 4 26.36 1.14
-7 -3 3 6.83 0.7
-7 -3 3 7.39 0.59
-7 -3 2 0.96 0.24
-7 -3 2 1.34 0.4
-7 -3 1 13.68 1.09
-7 -3 1 11.93 0.71
-7 -3 0 0.52 0.34
-7 -3 -1 0.52 0.39
7 3 1 -0.56 0.41
7 3 2 0.53 0.45
-7 -4 10 9.1 0.98
-7 -4 9 0.19 0.28
-7 -4 8 0.38 0.25
-7 -4 7 0.2 0.21
-7 -4 6 59.08 1.66
-7 -4 6 59.19 1.99
-7 -4 5 11.61 0.82
-7 -4 5 12.3 0.88
-7 -4 4 2.85 0.46
-7 -4 4 2.86 0.48
-7 -4 3 4.78 0.55
-7 -4 3 4.86 0.64
-7 -4 2 0.46 0.22
-7 -4 2 0.5 0.31
-7 -4 1 -0.08 0.18
-7 -4 1 -0.14 0.3
7 4 -1 0.13 0.33
7 4 0 9.28 1.06
-7 -4 0 9.8 1.04
7 4 1 11.84 1.24
-7 -5 10 0.23 0.33
-7 -5 9 0 0.26
-7 -5 8 0.7 0.38
-7 -5 7 1.98 0.45
-7 -5 6 8.05 0.82
-7 -5 5 28.44 1.29
-7 -5 5 22.02 1.29
-7 -5 4 3.95 0.55
-7 -5 4 3.62 0.53
-7 -5 3 13.37 0.96
-7 -5 3 14.71 1.08
-7 -5 2 0.81 0.36
-7 -5 2 0.64 0.27
7 5 -2 0.99 0.45
-7 -5 1 3.76 0.65
7 5 -1 4.18 0.74
7 5 0 2.99 0.67
-7 -6 9 1.33 0.41
-7 -6 8 1.01 0.38
-7 -6 7 2.43 0.55
-7 -6 6 2.05 0.49
-7 -6 5 0.2 0.27
-7 -6 4 5.5 0.69
-7 -6 3 -0.06 0.28
-7 -6 3 0.27 0.26
-7 -6 2 0.55 0.33
7 6 -2 0.95 0.42
7 6 -1 0.35 0.39
-7 -7 7 0.07 0.26
-7 -7 6 1.14 0.41
-7 -7 5 7.67 0.89
-7 -7 4 -0.01 0.29
-7 -7 2 0.43 0.32
7 7 -2 1.12 0.5
-8 7 5 0.01 0.31
-8 7 4 6.28 0.8
-8 7 3 3.09 0.59
-8 7 2 0.51 0.3
-8 7 1 31.95 1.7
-8 7 0 14.34 1.16
-8 7 -1 0.81 0.37
-8 7 -2 3.52 0.62
-8 6 7 0.46 0.33
-8 6 6 19.76 1.39
-8 6 5 4.61 0.71
-8 6 4 1.81 0.47
-8 6 3 2.73 0.54
-8 6 2 1.22 0.41
-8 6 1 9.59 0.95
-8 6 0 2.66 0.52
-8 6 -1 7.59 0.85
-8 6 -2 2.6 0.54
-8 5 9 1.54 0.49
-8 5 8 10.52 1.05
-8 5 7 -0.02 0.29
-8 5 6 42.31 1.93
-8 5 5 0.18 0.26
-8 5 4 2.62 0.53
-8 5 3 58.33 2.16
-8 5 2 3.47 0.59
-8 5 1 3.62 0.6
-8 5 0 4.51 0.67
-8 5 -1 0.5 0.33
-8 5 -2 2.54 0.56
-8 5 -3 -0.12 0.32
-8 4 10 3 0.62
-8 4 9 -0.19 0.3
-8 4 8 10.86 1.01
-8 4 7 0.89 0.34
-8 4 6 9.38 0.89
-8 4 5 9.2 0.87
-8 4 4 15.11 1.09
-8 4 3 16.35 1.13
-8 4 2 39.4 1.76
-8 4 1 21.63 1.35
-8 4 0 0.22 0.32
-8 4 -1 27.42 1.57
-8 4 -2 5.54 0.76
-8 4 -3 1 0.37
-8 3 9 13.75 1.12
-8 3 8 0.14 0.26
-8 3 7 1.19 0.35
-8 3 6 1.25 0.37
-8 3 5 50.57 1.93
-8 3 4 54.29 2
-8 3 3 0.46 0.31
-8 3 2 1.66 0.43
-8 3 1 31.49 1.61
-8 3 0 8.08 0.86
-8 3 -1 23.28 1.46
-8 3 -2 16.26 1.28
-8 3 -3 1.59 0.47
-8 2 10 9.26 0.91
-8 2 9 0.73 0.32
-8 2 8 2.18 0.46
-8 2 7 1.11 0.36
-8 2 6 57.25 2
-8 2 5 6.43 0.7
-8 2 4 0.45 0.29
-8 2 3 1.67 0.41
-8 2 2 3.15 0.51
-8 2 1 0.29 0.25
-8 2 0 -0.21 0.3
-8 2 -1 62.54 2.46
-8 2 -2 23.08 1.56
-8 2 -3 14.93 1.34
-8 1 9 -0.02 0.22
-8 1 8 17.01 1.08
-8 1 7 0.2 0.22
-8 1 6 11.84 0.9
-8 1 5 8.85 0.79
-8 1 4 22.69 1.26
-8 1 3 -0.09 0.28
-8 1 2 1.5 0.4
-8 1 1 3.7 0.61
-8 1 0 21.95 1.42
-8 1 -1 7.57 0.91
-8 1 -2 12.02 1.2
-8 0 11 -0.05 0.28
-8 0 10 0.54 0.27
-8 0 9 0.08 0.19
-8 0 9 0.24 0.2
-8 0 8 3.65 0.49
-8 0 8 3.78 0.52
-8 0 7 7.87 0.64
-8 0 7 7.75 0.71
-8 0 6 3.44 0.39
-8 0 6 3.41 0.51
-8 0 5 2.28 0.29
-8 0 5 2.05 0.42
-8 0 4 13.76 0.98
-8 0 3 0.18 0.24
-8 0 2 0.24 0.26
-8 0 1 0.74 0.37
-8 0 0 27.52 1.63
-8 0 -1 0.51 0.41
-8 0 -2 35.73 2.06
-8 -1 11 1.22 0.41
-8 -1 10 1.75 0.44
-8 -1 9 5.85 0.67
-8 -1 8 1.91 0.41
-8 -1 8 2.11 0.38
-8 -1 7 13.59 0.87
-8 -1 7 12.48 0.87
-8 -1 6 4.8 0.56
-8 -1 6 5.62 0.52
-8 -1 5 3.32 0.5
-8 -1 5 3.36 0.37
-8 -1 4 -0.09 0.22
-8 -1 3 0.51 0.25
-8 -1 2 25.52 1.45
-8 -1 1 1.01 0.42
-8 -1 0 0.24 0.36
-8 -1 -1 1.97 0.57
-8 -2 11 1.44 0.47
-8 -2 10 2.64 0.53
-8 -2 9 0.42 0.28
-8 -2 8 0.88 0.3
-8 -2 7 6.4 0.62
-8 -2 7 6.5 0.65
-8 -2 6 0.47 0.25
-8 -2 6 0.1 0.22
-8 -2 5 2.52 0.43
-8 -2 4 2.13 0.41
-8 -2 3 1.31 0.38
-8 -2 2 -0.16 0.29
-8 -2 1 13.35 1.15
-8 -2 0 0.32 0.31
-8 -2 -1 -0.19 0.41
-8 -3 10 0.86 0.34
-8 -3 9 0.79 0.34
-8 -3 8 1.34 0.39
-8 -3 7 38.44 1.62
-8 -3 6 23.77 1.18
-8 -3 6 22.88 1.18
-8 -3 5 0.57 0.26
-8 -3 4 -0.19 0.27
-8 -3 3 1.06 0.38
-8 -3 2 9.11 0.94
-8 -3 1 1.73 0.48
-8 -3 0 2.59 0.6
-8 -4 10 0.57 0.39
-8 -4 9 0.43 0.3
-8 -4 8 1.91 0.45
-8 -4 7 4.77 0.64
-8 -4 5 1.57 0.37
-8 -4 4 0.41 0.27
-8 -4 3 4.99 0.69
-8 -4 2 12.38 1.13
-8 -4 1 1.95 0.52
-8 -5 3 0.72 0.33
-8 -5 2 1.54 0.41
-9 5 6 42.57 2.04
-9 5 5 -0.4 0.36
-9 5 4 10.82 1.02
-9 5 3 0.01 0.28
-9 5 2 27.86 1.61
-9 5 1 4.95 0.72
-9 4 8 -0.07 0.28
-9 4 7 6.3 0.8
-9 4 6 5.52 0.74
-9 4 5 8.8 0.9
-9 4 4 2.37 0.54
-9 4 3 11.01 1.03
-9 4 2 19.78 1.37
-9 4 1 6.5 0.83
-9 4 0 22.79 1.53
-9 3 9 -0.02 0.26
-9 3 8 -0.31 0.35
-9 3 7 43.52 1.94
-9 3 6 9.58 0.94
-9 3 5 3.53 0.6
-9 3 4 40.13 1.86
-9 3 3 0.58 0.38
-9 3 2 0.99 0.42
-9 3 1 3.32 0.6
-9 3 0 3.29 0.65
-9 2 9 3.15 0.57
-9 2 8 2.49 0.5
-9 2 7 0.28 0.3
-9 2 6 2.12 0.46
-9 2 5 5.2 0.68
-9 2 4 2.35 0.54
-9 2 3 15.42 1.18
-9 2 2 -0.17 0.31
-9 2 1 15.75 1.24
-9 2 0 0.89 0.44
-9 1 8 2.24 0.46
-9 1 7 0.58 0.31
-9 1 6 3.81 0.58
-9 1 5 15.52 1.13
-9 1 4 1.88 0.46
-9 1 3 7.73 0.83
-9 1 2 0.3 0.26
-9 1 1 8.92 0.97
-9 1 0 9.59 1.06
-9 0 8 1.58 0.39
-9 0 7 0.68 0.32
-9 0 6 0.17 0.25
-9 0 5 3.66 0.57
-9 0 4 1.67 0.42
-9 0 3 5.73 0.73
-9 0 2 2.52 0.54
-9 0 1 2.32 0.58
-9 -1 7 4.6 0.6
-9 -1 6 0.32 0.27
-9 -1 5 2.69 0.49
-9 -1 4 1.25 0.38
-9 -1 3 1.98 0.45
-9 -1 2 9.33 0.97
-9 -1 1 0.15 0.33
-9 -2 6 1.57 0.4
-9 -2 5 0.36 0.27
-9 -2 4 -0.53 0.36
-9 -2 3 0.04 0.28
-9 -2 2 -0.02 0.26
-9 -3 5 0.11 0.26
-9 -3 4 0.54 0.28
-9 -3 3 3.88 0.66
-10 2 7 1.75 0.49
-10 2 6 1.98 0.5
-10 2 5 12.1 1.1
-10 1 7 6.31 0.78
-10 1 6 -0.31 0.34
-10 1 5 2.74 0.55
-10 1 4 0.13 0.27
-10 0 6 7.35 0.83
-10 0 5 0.17 0.29
-10 0 4 0.17 0.24
-10 -1 5 0.52 0.32
