#------------------------------------------------------------------------------
#$Date: 2020-10-17 07:20:03 +0300 (Sat, 17 Oct 2020) $
#$Revision: 258448 $
#$URL: file:///home/coder/svn-repositories/cod/cif/7/24/14/7241407.cif $
#------------------------------------------------------------------------------
#
# This file is available in the Crystallography Open Database (COD),
# http://www.crystallography.net/
#
# All data on this site have been placed in the public domain by the
# contributors.
#
data_7241407
loop_
_publ_author_name
'Barsukova, Marina O.'
'Cherezova, Sofia V.'
'Sapianik, Aleksandr A.'
'Lundovskaya, Olga V.'
'Samsonenko, Denis G.'
'Fedin, Vladimir P.'
_publ_section_title
;
 Lanthanide contraction effect and white-emitting luminescence in a series
 of metal--organic frameworks based on 2,5-pyrazinedicarboxylic acid
;
_journal_issue                   63
_journal_name_full               'RSC Advances'
_journal_page_first              38252
_journal_page_last               38259
_journal_paper_doi               10.1039/D0RA08485A
_journal_volume                  10
_journal_year                    2020
_chemical_formula_sum            'C23 H33 N7 O22 Y2'
_chemical_formula_weight         937.38
_chemical_name_systematic        '[Y2(H2O)4(C6H2N2O4)3]*NMP*5H2O'
_space_group_crystal_system      triclinic
_space_group_IT_number           2
_space_group_name_Hall           '-P 1'
_space_group_name_H-M_alt        'P -1'
_atom_sites_solution_hydrogens   mixed
_atom_sites_solution_primary     dual
_atom_sites_solution_secondary   difmap
_audit_creation_method           SHELXL-2018/3
_audit_update_record
;
2020-05-08 deposited with the CCDC.	2020-10-08 downloaded from the CCDC.
;
_cell_angle_alpha                62.174(4)
_cell_angle_beta                 86.835(3)
_cell_angle_gamma                87.582(3)
_cell_formula_units_Z            1
_cell_length_a                   6.0453(2)
_cell_length_b                   12.6860(5)
_cell_length_c                   13.2051(5)
_cell_measurement_reflns_used    3300
_cell_measurement_temperature    130(2)
_cell_measurement_theta_max      29.33
_cell_measurement_theta_min      3.64
_cell_volume                     894.09(7)
_computing_cell_refinement       'CrysAlisPro 1.171.39.46 (Rigaku OD, 2015)'
_computing_data_collection       'CrysAlisPro 1.171.39.46 (Rigaku OD, 2015)'
_computing_data_reduction        'CrysAlisPro 1.171.39.46 (Rigaku OD, 2015)'
_computing_molecular_graphics    'ShelXle (H\"ubschle, 2011)'
_computing_publication_material  'CIFTAB (Sheldrick, 2015)'
_computing_structure_refinement  'SHELXL-2018 (Sheldrick, 2015)'
_computing_structure_solution    'SHELXT-2018 (Sheldrick, 2015)'
_diffrn_ambient_temperature      130(2)
_diffrn_detector                 'CCD plate'
_diffrn_detector_area_resol_mean 10.6
_diffrn_detector_type            AtlasS2
_diffrn_measured_fraction_theta_full 0.996
_diffrn_measured_fraction_theta_max 0.820
_diffrn_measurement_device       'four-circle diffractometer'
_diffrn_measurement_device_type  'New Xcalibur, AtlasS2'
_diffrn_measurement_method       '\w scans'
_diffrn_radiation_monochromator  graphite
_diffrn_radiation_probe          x-ray
_diffrn_radiation_source         'fine-focus sealed tube'
_diffrn_radiation_type           MoK\a
_diffrn_radiation_wavelength     0.71073
_diffrn_reflns_av_R_equivalents  0.0296
_diffrn_reflns_av_unetI/netI     0.0699
_diffrn_reflns_Laue_measured_fraction_full 0.996
_diffrn_reflns_Laue_measured_fraction_max 0.820
_diffrn_reflns_limit_h_max       8
_diffrn_reflns_limit_h_min       -8
_diffrn_reflns_limit_k_max       17
_diffrn_reflns_limit_k_min       -16
_diffrn_reflns_limit_l_max       18
_diffrn_reflns_limit_l_min       -13
_diffrn_reflns_number            7032
_diffrn_reflns_point_group_measured_fraction_full 0.996
_diffrn_reflns_point_group_measured_fraction_max 0.820
_diffrn_reflns_theta_full        25.500
_diffrn_reflns_theta_max         29.694
_diffrn_reflns_theta_min         3.376
_diffrn_source                   'sealed X-ray tube'
_exptl_absorpt_coefficient_mu    3.326
_exptl_absorpt_correction_T_max  1.00000
_exptl_absorpt_correction_T_min  0.91891
_exptl_absorpt_correction_type   multi-scan
_exptl_absorpt_process_details
;
CrysAlisPro 1.171.39.46 (Rigaku Oxford Diffraction, 2015)
Empirical absorption correction using spherical harmonics,
implemented in SCALE3 ABSPACK scaling algorithm.
;
_exptl_crystal_colour            colorless
_exptl_crystal_density_diffrn    1.741
_exptl_crystal_description       plate
_exptl_crystal_F_000             474
_exptl_crystal_size_max          0.11
_exptl_crystal_size_mid          0.10
_exptl_crystal_size_min          0.06
_refine_diff_density_max         1.041
_refine_diff_density_min         -0.521
_refine_diff_density_rms         0.097
_refine_ls_extinction_method     none
_refine_ls_goodness_of_fit_ref   1.065
_refine_ls_hydrogen_treatment    mixed
_refine_ls_matrix_type           full
_refine_ls_number_parameters     217
_refine_ls_number_reflns         4170
_refine_ls_number_restraints     9
_refine_ls_restrained_S_all      1.064
_refine_ls_R_factor_all          0.0449
_refine_ls_R_factor_gt           0.0378
_refine_ls_shift/su_max          0.000
_refine_ls_shift/su_mean         0.000
_refine_ls_structure_factor_coef Fsqd
_refine_ls_weighting_details
'w=1/[\s^2^(Fo^2^)+(0.0337P)^2^+0.0794P] where P=(Fo^2^+2Fc^2^)/3'
_refine_ls_weighting_scheme      calc
_refine_ls_wR_factor_gt          0.0871
_refine_ls_wR_factor_ref         0.0896
_reflns_Friedel_coverage         0.000
_reflns_number_gt                3683
_reflns_number_total             4170
_reflns_threshold_expression     'I > 2\s(I)'
_cod_data_source_file            d0ra08485a2.cif
_cod_data_source_block           bmo_y_sq
_cod_original_cell_volume        894.09(6)
_cod_database_code               7241407
_shelx_shelxl_version_number     2018/3
_shelx_space_group_comment
;
The symmetry employed for this shelxl refinement is uniquely defined
by the following loop, which should always be used as a source of
symmetry information in preference to the above space-group names.
They are only intended as comments.
;
_shelx_estimated_absorpt_t_min   0.711
_shelx_estimated_absorpt_t_max   0.825
_shelx_res_file
;
TITL bmo_y in P-1; 130K; Xcalibur
    bmo_y_sq.res
    created by SHELXL-2018/3 at 17:18:04 on 17-Jan-2020
CELL  0.71073   6.0453  12.6860  13.2051   62.174   86.835   87.582
ZERR    1.000   0.0002   0.0005   0.0005    0.004    0.003    0.003
LATT  1
SFAC C  H  N O  Y
UNIT 23 33 7 22 2
 
LIST 4 ! automatically inserted. Change 6 to 4 for CHECKCIF!!
TEMP -143
 
L.S. 6 0 49
BOND $H
FMAP 2
PLAN 5
 
DFIX 0.85 0.01 O1M H11M  O1M H12M  O2M H21M  O2M H22M
DFIX 0.87 0.01 O1W H11W  O1W H12W
DFIX 1.38 0.01 H11M H12M  H21M  H22M
DFIX 1.39 0.01 H11W H12W
 
OMIT 0
 
OMIT  0   2   4
OMIT  0   2   2
 
SIZE 0.11 0.10 0.06
 
ABIN
ACTA 51
 
WGHT    0.033700    0.079400
FVAR       2.81450
Y1    5    0.218294    0.335055    0.318791    11.00000    0.00670    0.01080 =
         0.00857   -0.00391    0.00002   -0.00105
O1M   4    0.487709    0.327468    0.446030    11.00000    0.00947    0.02552 =
         0.01102   -0.00743    0.00054   -0.00238
H11M  2    0.514028    0.269161    0.511332    11.00000   -1.20000
H12M  2    0.610737    0.345737    0.406883    11.00000   -1.20000
O2M   4    0.126313    0.213032    0.237037    11.00000    0.02519    0.01152 =
         0.00967   -0.00180   -0.00080   -0.00358
H21M  2    0.105602    0.138251    0.278473    11.00000   -1.20000
H22M  2    0.149280    0.225703    0.168278    11.00000   -1.20000
C11   1    0.735609    0.384309    0.205006    11.00000    0.00768    0.01230 =
         0.01374   -0.00443    0.00081    0.00282
N11   3    1.084250    0.462091    0.107887    11.00000    0.00725    0.01349 =
         0.01159   -0.00514   -0.00133    0.00180
O11   4    0.538911    0.357890    0.200520    11.00000    0.00742    0.01700 =
         0.01298   -0.00441    0.00143   -0.00181
C12   1    0.874457    0.441603    0.094933    11.00000    0.00867    0.01175 =
         0.01117   -0.00366    0.00035   -0.00033
O12   4    0.830691    0.368196    0.293937    11.00000    0.01125    0.02152 =
         0.01064   -0.00490   -0.00067    0.00156
C13   1    1.208845    0.522285    0.012702    11.00000    0.00628    0.01696 =
         0.01306   -0.00632   -0.00152   -0.00018
AFIX  43
H13   2    1.356761    0.540792    0.018481    11.00000   -1.20000
AFIX   0
N21   3    0.062758    0.435086    0.441632    11.00000    0.01280    0.01480 =
         0.01287   -0.00608   -0.00009   -0.00369
C21   1   -0.062907    0.387933    0.538221    11.00000    0.01709    0.01520 =
         0.01819   -0.00893    0.00381   -0.00475
AFIX  43
H21   2   -0.110499    0.308159    0.567858    11.00000   -1.20000
AFIX   0
O21   4    0.312537    0.532122    0.249355    11.00000    0.02350    0.01636 =
         0.01491   -0.00933    0.00647   -0.00705
O22   4    0.336073    0.702584    0.256960    11.00000    0.10279    0.03083 =
         0.04380   -0.02678    0.04999   -0.04128
C22   1    0.126439    0.547924    0.403078    11.00000    0.01695    0.01461 =
         0.01575   -0.00839    0.00345   -0.00195
C23   1    0.271798    0.599526    0.295207    11.00000    0.03343    0.01615 =
         0.02205   -0.01011    0.01224   -0.01326
C31   1    0.089500    0.086664    0.550765    11.00000    0.01337    0.01070 =
         0.01409   -0.00677   -0.00250   -0.00203
N31   3    0.416593    0.114144    0.428650    11.00000    0.00965    0.01333 =
         0.01111   -0.00555   -0.00272   -0.00235
O31   4   -0.027180    0.020770    0.635945    11.00000    0.01562    0.01480 =
         0.01820   -0.00422    0.00361   -0.00135
C32   1    0.308358    0.039021    0.524958    11.00000    0.01122    0.01453 =
         0.01174   -0.00659   -0.00173   -0.00161
O32   4    0.040221    0.193269    0.480007    11.00000    0.01325    0.01238 =
         0.01356   -0.00323    0.00039   -0.00007
C33   1    0.610683    0.073736    0.403832    11.00000    0.01310    0.01512 =
         0.01048   -0.00335   -0.00159   -0.00057
AFIX  43
H33   2    0.693584    0.123750    0.336016    11.00000   -1.20000
AFIX   0
O1W   4   -0.427022    0.143251    0.654908    11.00000    0.02243    0.02409 =
         0.02286   -0.01453   -0.00108   -0.00001
H11W  2   -0.400276    0.181485    0.692673    11.00000   -1.20000
H12W  2   -0.306932    0.103580    0.654971    11.00000   -1.20000
HKLF 4
 
 
 
 
REM  bmo_y in P-1; 130K; Xcalibur
REM wR2 = 0.0896, GooF = S = 1.065, Restrained GooF = 1.064 for all data
REM R1 = 0.0378 for 3683 Fo > 4sig(Fo) and 0.0449 for all 4170 data
REM 217 parameters refined using 9 restraints
 
END
 
WGHT      0.0337      0.0794
 
REM Highest difference peak  1.041,  deepest hole -0.521,  1-sigma level  0.097
Q1    1   0.3896  0.3325  0.3108  11.00000  0.05    1.04
Q2    1   0.0633  0.3525  0.3332  11.00000  0.05    0.89
Q3    1   0.5269  0.3104  0.3128  11.00000  0.05    0.76
Q4    1   0.9279  0.3733  0.3301  11.00000  0.05    0.50
Q5    1   0.1105  0.4301  0.2473  11.00000  0.05    0.46
;
_shelx_res_checksum              50562
_shelx_fab_file
;
   -8   -1    3      0.22      0.00
   -8    0    4      0.32      0.00
   -7   -5    2      1.54      0.00
   -7   -4    3      0.40      0.00
   -7   -3    3      0.19      0.00
   -7   -3    4     -2.33      0.00
   -7   -3    5     -2.80      0.00
   -7   -2    4      0.01      0.00
   -7   -2    5     -1.50      0.00
   -7   -2    6     -1.28      0.00
   -7   -1    4      0.84      0.00
   -7   -1    6     -0.03      0.00
   -7   -1    7     -0.37      0.00
   -7    0    4      0.15      0.00
   -7    0    5      0.19      0.00
   -7    0    6      0.18      0.00
   -7    0    7     -0.58      0.00
   -7    0    8     -0.78      0.00
   -7    1    4     -0.21      0.00
   -7    1    5      0.39      0.00
   -7    1    6      0.99      0.00
   -7    1    7      0.57      0.00
   -7    1    8     -0.18      0.00
   -7    2    4     -0.67      0.00
   -7    2    5     -0.11      0.00
   -7    2    6      1.04      0.00
   -7    2    7      1.49      0.00
   -7    2    8      0.58      0.00
   -7    3    4      1.09      0.00
   -7    3    5      0.52      0.00
   -7    3    6      0.11      0.00
   -7    3    7      0.58      0.00
   -7    3    8      0.55      0.00
   -7    4    3      0.04      0.00
   -7    4    4      1.66      0.00
   -7    4    5      2.00      0.00
   -7    4    6      0.74      0.00
   -7    4    7      0.08      0.00
   -7    4    8      0.57      0.00
   -7    4    9      0.40      0.00
   -7    5    1      0.89      0.00
   -7    5    2      0.76      0.00
   -7    5    3      0.53      0.00
   -7    5    4      0.67      0.00
   -7    5    5      1.15      0.00
   -7    5    6      0.84      0.00
   -7    5    7     -0.06      0.00
   -6   -8    1     -1.04      0.00
   -6   -7    2      0.17      0.00
   -6   -7    3      0.23      0.00
   -6   -6    2      0.67      0.00
   -6   -6    3     -0.10      0.00
   -6   -6    4     -0.52      0.00
   -6   -5    3     -0.66      0.00
   -6   -5    4     -1.33      0.00
   -6   -5    5     -0.87      0.00
   -6   -4    3     -0.16      0.00
   -6   -4    4     -1.44      0.00
   -6   -4    5     -1.38      0.00
   -6   -4    6     -0.71      0.00
   -6   -3    4      0.34      0.00
   -6   -3    5     -1.08      0.00
   -6   -3    6     -1.22      0.00
   -6   -3    7     -0.67      0.00
   -6   -2    4      1.35      0.00
   -6   -2    5      0.66      0.00
   -6   -2    6     -0.65      0.00
   -6   -2    7     -0.46      0.00
   -6   -2    8      0.30      0.00
   -6   -1    4      0.96      0.00
   -6   -1    5      1.00      0.00
   -6   -1    6      0.24      0.00
   -6   -1    7     -0.34      0.00
   -6   -1    8      0.35      0.00
   -6   -1    9      0.84      0.00
   -6    0    4      0.55      0.00
   -6    0    5      0.27      0.00
   -6    0    6     -0.14      0.00
   -6    0    7     -0.79      0.00
   -6    0    8     -0.99      0.00
   -6    0    9     -0.21      0.00
   -6    1    5     -1.72      0.00
   -6    1    6     -1.17      0.00
   -6    1    7     -0.82      0.00
   -6    1    8     -1.42      0.00
   -6    1    9     -1.73      0.00
   -6    1   10     -0.92      0.00
   -6    1   11     -0.23      0.00
   -6    2    5     -2.17      0.00
   -6    2    6     -1.66      0.00
   -6    2    7     -0.02      0.00
   -6    2    8      0.59      0.00
   -6    2    9     -0.45      0.00
   -6    2   10     -1.04      0.00
   -6    3    4      1.35      0.00
   -6    3    5      0.92      0.00
   -6    3    6      0.28      0.00
   -6    3    7      0.65      0.00
   -6    3    8      1.74      0.00
   -6    3    9      1.66      0.00
   -6    3   10      0.59      0.00
   -6    4    3     -1.73      0.00
   -6    4    4     -0.42      0.00
   -6    4    5      0.95      0.00
   -6    4    6      1.36      0.00
   -6    4    7      0.78      0.00
   -6    4    8      0.62      0.00
   -6    4    9      0.90      0.00
   -6    4   10      0.69      0.00
   -6    5    2     -1.66      0.00
   -6    5    3     -1.70      0.00
   -6    5    4     -1.73      0.00
   -6    5    5     -1.61      0.00
   -6    5    6     -0.88      0.00
   -6    5    7     -0.41      0.00
   -6    5    8     -0.20      0.00
   -6    5    9      0.28      0.00
   -6    5   10      0.19      0.00
   -6    5   11     -0.24      0.00
    6   -6    7     -1.07      0.00
    6   -6    6     -1.28      0.00
    6   -6    2      1.68      0.00
    6   -6    1      1.43      0.00
   -6    6    0      0.44      0.00
   -6    6    1      0.20      0.00
   -6    6    2      0.08      0.00
   -6    6    3     -0.11      0.00
   -6    6    4     -0.45      0.00
   -6    6    5     -1.61      0.00
   -6    6    6     -2.27      0.00
   -6    6    7     -1.40      0.00
   -6    6    8     -0.26      0.00
   -6    6    9      0.81      0.00
   -6    6   10      1.24      0.00
   -6    6   11      0.20      0.00
    6   -7    5      0.23      0.00
    6   -7    4      0.38      0.00
    6   -7    3     -0.08      0.00
    6   -7    2     -0.06      0.00
    6   -7    1      0.13      0.00
   -6    7    0     -0.08      0.00
   -6    7    1      0.38      0.00
   -6    7    2      0.69      0.00
   -6    7    3     -0.20      0.00
   -6    7    4     -0.44      0.00
   -6    7    5      0.02      0.00
   -6    7    6     -0.28      0.00
   -6    7    7     -0.01      0.00
   -6    7    8      1.08      0.00
   -6    7    9      1.44      0.00
   -6    7   10      1.35      0.00
   -6    7   11      0.84      0.00
   -6    7   12     -0.24      0.00
    6   -8    3     -0.14      0.00
    6   -8    2     -0.69      0.00
    6   -8    1     -0.89      0.00
   -6    8    0     -1.39      0.00
   -6    8    1     -1.47      0.00
   -6    8    2     -0.43      0.00
   -6    8    3     -0.54      0.00
   -6    8    4     -1.77      0.00
   -6    8    5     -1.16      0.00
   -6    8    6      0.38      0.00
   -6    8    7      1.01      0.00
   -6    8    8      1.77      0.00
   -6    8    9      2.11      0.00
   -6    9    1     -1.49      0.00
   -6    9    2     -0.75      0.00
   -6    9    3      0.82      0.00
   -6    9    4      0.48      0.00
   -6    9    5     -0.92      0.00
   -6    9    6     -1.00      0.00
    5   12    2     -1.22      0.00
    5   11    1     -0.72      0.00
    5   10    0      0.88      0.00
   -5  -10    1      1.66      0.00
    5    9    0      0.16      0.00
   -5   -9    1      1.03      0.00
   -5   -9    2      0.73      0.00
   -5   -9    3      0.02      0.00
   -5   -8    1      0.55      0.00
   -5   -8    2      0.48      0.00
   -5   -8    3      0.27      0.00
   -5   -8    4      0.58      0.00
   -5   -7    2      0.40      0.00
   -5   -7    3      0.11      0.00
   -5   -7    4      0.03      0.00
   -5   -7    5      0.21      0.00
   -5   -6    2     -0.29      0.00
   -5   -6    3     -0.29      0.00
   -5   -6    4     -1.21      0.00
   -5   -6    5     -1.90      0.00
   -5   -6    6     -1.96      0.00
   -5   -5    3      0.27      0.00
   -5   -5    4     -0.33      0.00
   -5   -5    5     -1.27      0.00
   -5   -5    6     -1.71      0.00
   -5   -5    7     -1.73      0.00
   -5   -4    3      0.76      0.00
   -5   -4    4      1.26      0.00
   -5   -4    5      0.84      0.00
   -5   -4    6      0.67      0.00
   -5   -4    7      0.08      0.00
   -5   -4    8     -0.82      0.00
   -5   -3    4      0.84      0.00
   -5   -3    5      0.95      0.00
   -5   -3    6      0.95      0.00
   -5   -3    7      0.91      0.00
   -5   -3    8     -0.07      0.00
   -5   -3    9     -0.90      0.00
   -5   -2    4     -0.23      0.00
   -5   -2    5     -0.18      0.00
   -5   -2    6     -0.53      0.00
   -5   -2    7     -0.14      0.00
   -5   -2    8      0.43      0.00
   -5   -2    9      0.19      0.00
   -5   -2   10     -0.25      0.00
   -5   -1    4     -0.15      0.00
   -5   -1    5     -0.10      0.00
   -5   -1    6     -0.72      0.00
   -5   -1    7     -1.06      0.00
   -5   -1    8     -0.23      0.00
   -5   -1    9      1.00      0.00
   -5   -1   10      1.25      0.00
   -5   -1   11      0.47      0.00
   -5    0    4     -0.95      0.00
   -5    0    5     -0.06      0.00
   -5    0    6      0.51      0.00
   -5    0    7      0.42      0.00
   -5    0    8     -0.13      0.00
   -5    0    9     -0.23      0.00
   -5    0   10      0.43      0.00
   -5    0   11      0.87      0.00
   -5    0   12      0.51      0.00
   -5    1    5     -0.73      0.00
   -5    1    6      0.14      0.00
   -5    1    7      1.56      0.00
   -5    1    8      1.94      0.00
   -5    1    9      0.56      0.00
   -5    1   10     -1.01      0.00
   -5    1   11     -1.25      0.00
   -5    1   12     -0.76      0.00
    5   -2    1      1.20      0.00
   -5    2    1     -2.30      0.00
   -5    2    2      0.07      0.00
   -5    2    3      2.10      0.00
   -5    2    4      1.62      0.00
   -5    2    5      0.03      0.00
   -5    2    6     -1.18      0.00
   -5    2    7     -0.88      0.00
   -5    2    8      0.80      0.00
   -5    2    9      1.65      0.00
   -5    2   10      0.50      0.00
   -5    2   11     -1.08      0.00
   -5    2   12     -1.62      0.00
   -5    2   13     -1.42      0.00
    5   -3    1      0.73      0.00
   -5    3    0      1.08      0.00
   -5    3    1     -0.81      0.00
   -5    3    2     -1.81      0.00
   -5    3    3     -0.84      0.00
   -5    3    4      0.04      0.00
   -5    3    5      0.07      0.00
   -5    3    6     -0.71      0.00
   -5    3    7     -2.00      0.00
   -5    3    8     -2.14      0.00
   -5    3    9     -0.53      0.00
   -5    3   10      0.87      0.00
   -5    3   11      0.71      0.00
   -5    3   12     -0.08      0.00
    5   -4    1     -1.78      0.00
   -5    4    0      0.05      0.00
   -5    4    1      1.33      0.00
   -5    4    2      0.50      0.00
   -5    4    3     -0.41      0.00
   -5    4    4     -0.53      0.00
   -5    4    5     -0.21      0.00
   -5    4    6      0.39      0.00
   -5    4    7      0.26      0.00
   -5    4    8     -0.75      0.00
   -5    4    9     -1.09      0.00
   -5    4   10     -0.17      0.00
   -5    4   11      0.85      0.00
    5   -5    1     -1.21      0.00
   -5    5    0     -1.20      0.00
   -5    5    1      0.41      0.00
   -5    5    2      1.16      0.00
   -5    5    3      0.67      0.00
   -5    5    4      0.37      0.00
   -5    5    5      0.37      0.00
   -5    5    6      0.55      0.00
   -5    5    7      0.58      0.00
   -5    5    8     -0.05      0.00
   -5    5    9     -0.59      0.00
   -5    5   10     -0.52      0.00
   -5    5   11     -0.23      0.00
   -5    5   12      0.14      0.00
    5   -6    8      0.28      0.00
    5   -6    7     -0.00      0.00
    5   -6    6     -0.01      0.00
    5   -6    2      0.20      0.00
    5   -6    1      0.92      0.00
   -5    6    0      0.55      0.00
   -5    6    1      0.37      0.00
   -5    6    2      0.41      0.00
   -5    6    3     -0.14      0.00
   -5    6    4     -0.21      0.00
   -5    6    5      0.17      0.00
   -5    6    6     -0.12      0.00
   -5    6    7     -0.84      0.00
   -5    6    8     -1.78      0.00
   -5    6    9     -2.36      0.00
   -5    6   10     -1.48      0.00
   -5    6   11     -0.45      0.00
   -5    6   12     -0.54      0.00
    5   -7    7     -0.25      0.00
    5   -7    6     -0.54      0.00
    5   -7    5     -0.18      0.00
    5   -7    4      0.47      0.00
    5   -7    3      0.01      0.00
    5   -7    2     -0.64      0.00
    5   -7    1      0.03      0.00
   -5    7    0      0.75      0.00
   -5    7    1      0.79      0.00
   -5    7    2      0.78      0.00
   -5    7    3     -0.17      0.00
   -5    7    4     -1.42      0.00
   -5    7    5     -1.06      0.00
   -5    7    6     -0.54      0.00
   -5    7    7     -1.19      0.00
   -5    7    8     -1.73      0.00
   -5    7    9     -1.79      0.00
   -5    7   10     -1.16      0.00
   -5    7   11      0.37      0.00
   -5    7   12      0.92      0.00
   -5    7   13      0.04      0.00
    5   -8    6     -0.75      0.00
    5   -8    5     -1.05      0.00
    5   -8    4     -0.65      0.00
    5   -8    3     -0.22      0.00
    5   -8    2     -0.85      0.00
    5   -8    1     -1.27      0.00
   -5    8    0     -0.69      0.00
   -5    8    1     -0.30      0.00
   -5    8    2      0.35      0.00
   -5    8    3      1.20      0.00
   -5    8    4      0.30      0.00
   -5    8    5     -1.15      0.00
   -5    8    6     -1.19      0.00
   -5    8    7     -1.28      0.00
   -5    8    8     -1.65      0.00
   -5    8    9     -0.86      0.00
   -5    8   10      0.15      0.00
   -5    8   11      0.59      0.00
   -5    8   12      0.85      0.00
   -5    8   13      0.46      0.00
    5   -9    5     -0.01      0.00
    5   -9    4     -0.15      0.00
    5   -9    3      0.05      0.00
    5   -9    2      0.82      0.00
    5   -9    1      1.45      0.00
   -5    9    0      1.73      0.00
   -5    9    1      1.14      0.00
   -5    9    2      0.05      0.00
   -5    9    3      0.54      0.00
   -5    9    4      2.02      0.00
   -5    9    5      1.91      0.00
   -5    9    6      0.74      0.00
   -5    9    7     -0.23      0.00
   -5    9    8     -1.25      0.00
   -5    9    9     -1.26      0.00
   -5    9   10     -0.13      0.00
   -5    9   11      0.06      0.00
   -5    9   12     -0.70      0.00
   -5    9   13     -0.94      0.00
    5  -10    4      0.70      0.00
    5  -10    3      0.52      0.00
    5  -10    2      0.37      0.00
    5  -10    1      1.54      0.00
   -5   10    0      3.12      0.00
   -5   10    1      3.28      0.00
   -5   10    2      1.48      0.00
   -5   10    3     -0.50      0.00
   -5   10    4     -0.39      0.00
   -5   10    5      1.15      0.00
   -5   10    6      2.14      0.00
   -5   10    7      2.13      0.00
   -5   10    8      1.15      0.00
   -5   10    9     -0.00      0.00
   -5   10   10      0.07      0.00
   -5   10   11      0.48      0.00
    5  -11    2     -0.23      0.00
    5  -11    1     -0.93      0.00
   -5   11    0     -0.32      0.00
   -5   11    1      1.02      0.00
   -5   11    2      1.37      0.00
   -5   11    3      0.13      0.00
   -5   11    4     -1.37      0.00
   -5   11    5     -1.66      0.00
   -5   11    6     -0.66      0.00
   -5   11    7      0.80      0.00
   -5   11    8      1.58      0.00
    4   15    5      0.59      0.00
    4   14    4     -1.09      0.00
    4   13    3     -1.99      0.00
    4   13    2     -1.57      0.00
    4   13    1     -0.45      0.00
    4   12    2     -0.90      0.00
    4   12    1     -0.32      0.00
    4   12    0      0.48      0.00
   -4  -12    1      0.07      0.00
    4   11    2      0.61      0.00
    4   11    1      0.30      0.00
    4   11    0      1.20      0.00
   -4  -11    1      1.37      0.00
   -4  -11    2      0.06      0.00
    4   10    1     -0.14      0.00
    4   10    0     -0.18      0.00
   -4  -10    1      0.70      0.00
   -4  -10    2      0.37      0.00
   -4  -10    3     -0.87      0.00
    4    9    0     -1.07      0.00
   -4   -9    1     -0.63      0.00
   -4   -9    2      0.00      0.00
   -4   -9    3     -0.15      0.00
   -4   -9    4     -0.46      0.00
   -4   -9    5     -0.48      0.00
   -4   -8    1      0.42      0.00
   -4   -8    2      0.69      0.00
   -4   -8    3      0.36      0.00
   -4   -8    4      0.33      0.00
   -4   -8    5      0.68      0.00
   -4   -8    6      0.46      0.00
    4    7    0      1.40      0.00
   -4   -7    1      1.00      0.00
   -4   -7    2      0.94      0.00
   -4   -7    3      0.18      0.00
   -4   -7    4     -0.64      0.00
   -4   -7    5     -0.23      0.00
   -4   -7    6      0.38      0.00
   -4   -7    7      0.28      0.00
    4    6    0     -0.45      0.00
   -4   -6    1     -1.05      0.00
   -4   -6    2     -0.89      0.00
   -4   -6    3     -0.72      0.00
   -4   -6    4     -1.10      0.00
   -4   -6    5     -1.15      0.00
   -4   -6    6     -1.01      0.00
   -4   -6    7     -1.31      0.00
   -4   -6    8     -1.27      0.00
    4    5    1     -0.35      0.00
    4    5    0     -1.70      0.00
   -4   -5    1     -2.96      0.00
   -4   -5    2     -2.70      0.00
   -4   -5    3     -1.17      0.00
   -4   -5    4     -0.12      0.00
   -4   -5    5      0.10      0.00
   -4   -5    6     -0.28      0.00
   -4   -5    7     -1.48      0.00
   -4   -5    9     -1.84      0.00
   -4   -4    3     -1.26      0.00
   -4   -4    4      0.38      0.00
   -4   -4    5      1.27      0.00
   -4   -4    6      1.43      0.00
   -4   -4    7      0.58      0.00
   -4   -4    8     -0.69      0.00
   -4   -4    9     -0.94      0.00
   -4   -4   10     -0.41      0.00
    4    3    2     -0.47      0.00
    4    3    1     -1.05      0.00
   -4   -3    3     -0.67      0.00
   -4   -3    4      0.06      0.00
   -4   -3    5      0.37      0.00
   -4   -3    6      0.94      0.00
   -4   -3    7      1.72      0.00
   -4   -3    8      1.41      0.00
   -4   -3    9      0.71      0.00
   -4   -3   10      0.50      0.00
    4    2    3      1.49      0.00
    4    2    2      2.21      0.00
    4    2    1      2.23      0.00
    4    2    0      1.17      0.00
   -4   -2    1     -0.31      0.00
   -4   -2    4      0.51      0.00
   -4   -2    5      0.53      0.00
   -4   -2    6     -0.56      0.00
   -4   -2    7     -0.46      0.00
   -4   -2    8      0.64      0.00
   -4   -2    9      1.07      0.00
   -4   -2   10      0.97      0.00
   -4   -2   11      0.49      0.00
    4    1    4      0.36      0.00
    4    1    3     -0.10      0.00
    4    1    2      0.61      0.00
    4    1    1      2.56      0.00
    4    1    0      4.25      0.00
   -4   -1    1      3.42      0.00
   -4   -1    2      0.70      0.00
   -4   -1    3     -1.22      0.00
   -4   -1    4     -0.85      0.00
   -4   -1    5      0.48      0.00
   -4   -1    6      0.25      0.00
   -4   -1    7     -1.21      0.00
   -4   -1    8     -1.67      0.00
   -4   -1    9     -1.00      0.00
   -4   -1   10      0.10      0.00
   -4   -1   11      1.04      0.00
   -4   -1   12      0.97      0.00
    4    0    4      0.54      0.00
    4    0    3     -0.07      0.00
    4    0    2     -1.42      0.00
    4    0    1     -2.01      0.00
    4    0    0      0.25      0.00
   -4    0    1      3.53      0.00
   -4    0    2      4.09      0.00
   -4    0    3      1.78      0.00
   -4    0    4     -0.78      0.00
   -4    0    5     -1.51      0.00
   -4    0    6     -0.48      0.00
   -4    0    7      0.51      0.00
   -4    0    8      0.47      0.00
   -4    0    9     -0.42      0.00
   -4    0   10     -1.18      0.00
   -4    0   11     -0.45      0.00
   -4    0   12      0.95      0.00
   -4    0   13      1.22      0.00
    4   -1    4     -1.28      0.00
    4   -1    3     -0.04      0.00
    4   -1    2      0.47      0.00
    4   -1    1     -1.11      0.00
   -4    1    0     -3.00      0.00
   -4    1    1     -1.81      0.00
   -4    1    2      1.65      0.00
   -4    1    3      3.71      0.00
   -4    1    4      2.78      0.00
   -4    1    5      0.02      0.00
   -4    1    6     -1.70      0.00
   -4    1    7     -0.60      0.00
   -4    1    8      1.84      0.00
   -4    1    9      2.77      0.00
   -4    1   10      1.12      0.00
   -4    1   11     -0.75      0.00
   -4    1   12     -0.49      0.00
   -4    1   13      0.53      0.00
    4   -2    3     -1.80      0.00
    4   -2    2     -0.16      0.00
    4   -2    1      1.57      0.00
   -4    2    0      0.31      0.00
   -4    2    1     -2.71      0.00
   -4    2    2     -3.37      0.00
   -4    2    3     -1.11      0.00
   -4    2    4      1.32      0.00
   -4    2    5      1.59      0.00
   -4    2    6     -0.25      0.00
   -4    2    7     -1.76      0.00
   -4    2    8     -1.04      0.00
   -4    2    9      0.93      0.00
   -4    2   10      1.62      0.00
   -4    2   11      0.46      0.00
   -4    2   12     -0.25      0.00
   -4    2   13      0.34      0.00
   -4    2   14      0.53      0.00
    4   -3    3     -1.06      0.00
    4   -3    2     -2.41      0.00
    4   -3    1     -0.90      0.00
   -4    3    0      1.09      0.00
   -4    3    1      0.06      0.00
   -4    3    2     -2.84      0.00
   -4    3    3     -4.03      0.00
   -4    3    4     -2.84      0.00
   -4    3    5     -0.92      0.00
   -4    3    6      0.09      0.00
   -4    3    7     -0.33      0.00
   -4    3    8     -1.30      0.00
   -4    3    9     -1.53      0.00
   -4    3   10     -0.72      0.00
   -4    3   11     -0.12      0.00
   -4    3   12     -0.18      0.00
   -4    3   13      0.23      0.00
   -4    3   14      0.72      0.00
   -4    3   15      0.31      0.00
    4   -4    3      0.20      0.00
    4   -4    2     -1.47      0.00
    4   -4    1     -2.74      0.00
   -4    4    0     -1.77      0.00
   -4    4    1     -0.07      0.00
   -4    4    2     -0.16      0.00
   -4    4    3     -1.36      0.00
   -4    4    4     -1.75      0.00
   -4    4    5     -1.07      0.00
   -4    4    6     -0.06      0.00
   -4    4    7      0.69      0.00
   -4    4    8      0.86      0.00
   -4    4    9      0.23      0.00
   -4    4   10     -0.60      0.00
   -4    4   11     -0.67      0.00
   -4    4   12     -0.40      0.00
   -4    4   13     -0.37      0.00
   -4    4   14     -0.11      0.00
    4   -5    3     -0.09      0.00
    4   -5    2      0.52      0.00
    4   -5    1      0.04      0.00
   -4    5    0     -0.91      0.00
   -4    5    1     -0.72      0.00
   -4    5    2      0.43      0.00
   -4    5    3      1.08      0.00
   -4    5    4      1.12      0.00
   -4    5    5      1.10      0.00
   -4    5    6      1.20      0.00
   -4    5    7      1.36      0.00
   -4    5    8      1.43      0.00
   -4    5    9      1.29      0.00
   -4    5   10      0.57      0.00
   -4    5   11     -0.55      0.00
   -4    5   12     -1.05      0.00
   -4    5   13     -0.84      0.00
    4   -6    8     -0.40      0.00
    4   -6    7     -0.52      0.00
    4   -6    6     -0.15      0.00
    4   -6    5      0.96      0.00
    4   -6    4      1.68      0.00
    4   -6    3      1.35      0.00
    4   -6    2      1.13      0.00
    4   -6    1      1.61      0.00
   -4    6    0      1.48      0.00
   -4    6    1      0.61      0.00
   -4    6    2      0.45      0.00
   -4    6    3      0.97      0.00
   -4    6    4      1.34      0.00
   -4    6    5      1.37      0.00
   -4    6    6      1.14      0.00
   -4    6    7      1.11      0.00
   -4    6    8      1.27      0.00
   -4    6    9      0.90      0.00
   -4    6   10      0.20      0.00
   -4    6   11     -0.29      0.00
   -4    6   12     -0.73      0.00
   -4    6   13     -0.89      0.00
    4   -7    7      0.43      0.00
    4   -7    6     -0.06      0.00
    4   -7    5      0.40      0.00
    4   -7    4      1.53      0.00
    4   -7    3      1.61      0.00
    4   -7    2      0.50      0.00
    4   -7    1      0.05      0.00
   -4    7    0      0.30      0.00
   -4    7    1     -0.13      0.00
   -4    7    2     -0.32      0.00
   -4    7    3      0.41      0.00
   -4    7    4      0.45      0.00
   -4    7    5     -0.31      0.00
   -4    7    6     -0.68      0.00
   -4    7    7     -0.65      0.00
   -4    7    8     -0.25      0.00
   -4    7    9      0.19      0.00
   -4    7   10     -0.16      0.00
   -4    7   11     -0.40      0.00
   -4    7   12      0.25      0.00
   -4    7   13      0.63      0.00
   -4    7   14      0.34      0.00
    4   -8    6      0.19      0.00
    4   -8    5     -0.40      0.00
    4   -8    4     -0.45      0.00
    4   -8    3      0.03      0.00
    4   -8    2      0.08      0.00
    4   -8    1     -0.23      0.00
   -4    8    0     -0.01      0.00
   -4    8    1     -0.27      0.00
   -4    8    2     -1.26      0.00
   -4    8    3     -0.76      0.00
   -4    8    4      0.58      0.00
   -4    8    5     -0.04      0.00
   -4    8    6     -1.54      0.00
   -4    8    7     -1.88      0.00
   -4    8    8     -1.56      0.00
   -4    8    9     -0.93      0.00
   -4    8   10     -0.21      0.00
   -4    8   11     -0.08      0.00
   -4    8   12      0.16      0.00
   -4    8   13      0.81      0.00
   -4    8   14      0.83      0.00
    4   -9    5     -0.84      0.00
    4   -9    4     -0.82      0.00
    4   -9    3     -1.01      0.00
    4   -9    2     -0.67      0.00
    4   -9    1      0.09      0.00
   -4    9    0      0.94      0.00
   -4    9    1      1.57      0.00
   -4    9    2      0.71      0.00
   -4    9    3     -0.85      0.00
   -4    9    4     -0.54      0.00
   -4    9    5      0.66      0.00
   -4    9    6      0.42      0.00
   -4    9    7     -0.37      0.00
   -4    9    8     -0.70      0.00
   -4    9    9     -0.75      0.00
   -4    9   10      0.06      0.00
   -4    9   11      1.05      0.00
   -4    9   12      0.79      0.00
   -4    9   13      0.07      0.00
   -4    9   14     -0.11      0.00
   -4    9   15     -0.04      0.00
    4  -10    4     -0.69      0.00
    4  -10    3     -0.45      0.00
    4  -10    2     -1.37      0.00
    4  -10    1     -1.90      0.00
   -4   10    0     -0.99      0.00
   -4   10    1      0.72      0.00
   -4   10    2      1.68      0.00
   -4   10    3      0.79      0.00
   -4   10    4     -0.53      0.00
   -4   10    5     -0.27      0.00
   -4   10    6      0.88      0.00
   -4   10    7      1.56      0.00
   -4   10    8      1.55      0.00
   -4   10    9      0.65      0.00
   -4   10   10     -0.05      0.00
   -4   10   11      0.71      0.00
   -4   10   12      1.33      0.00
   -4   10   13      0.33      0.00
   -4   10   14     -0.65      0.00
    4  -11    3      0.29      0.00
    4  -11    2      0.31      0.00
    4  -11    1     -0.99      0.00
   -4   11    0     -1.86      0.00
   -4   11    1     -0.98      0.00
   -4   11    2      0.63      0.00
   -4   11    3      1.18      0.00
   -4   11    4      0.50      0.00
   -4   11    5      0.05      0.00
   -4   11    6      0.41      0.00
   -4   11    7      0.92      0.00
   -4   11    8      1.38      0.00
   -4   11    9      1.32      0.00
   -4   11   10      0.28      0.00
   -4   11   11     -0.52      0.00
   -4   11   12     -0.17      0.00
   -4   11   13      0.01      0.00
    4  -12    2      1.04      0.00
    4  -12    1      1.45      0.00
   -4   12    0      1.01      0.00
   -4   12    1      0.38      0.00
   -4   12    2      0.39      0.00
   -4   12    3      0.72      0.00
   -4   12    4      0.43      0.00
   -4   12    5     -0.03      0.00
   -4   12    6      0.10      0.00
   -4   12    7      0.16      0.00
   -4   12    8     -0.29      0.00
   -4   12    9     -0.47      0.00
   -4   12   10     -0.21      0.00
   -4   12   11     -0.15      0.00
    4  -13    1      1.05      0.00
   -4   13    0      1.48      0.00
   -4   13    1      1.40      0.00
   -4   13    2      0.63      0.00
   -4   13    3      0.18      0.00
   -4   13    4      0.15      0.00
   -4   13    5     -0.18      0.00
   -4   13    6     -0.30      0.00
   -4   13    7     -0.04      0.00
   -4   13    8     -0.33      0.00
    3   16    7      0.02      0.00
    3   16    6     -1.13      0.00
    3   16    4     -2.05      0.00
    3   15    6     -0.85      0.00
    3   15    5     -1.68      0.00
    3   15    4     -1.51      0.00
    3   15    3     -0.71      0.00
    3   15    2      0.22      0.00
    3   14    5     -0.04      0.00
    3   14    4     -0.11      0.00
    3   14    3      0.06      0.00
    3   14    2      0.33      0.00
    3   14    1      0.54      0.00
    3   14    0      0.53      0.00
    3   13    4      0.51      0.00
    3   13    3      0.23      0.00
    3   13    2     -0.27      0.00
    3   13    1     -0.18      0.00
    3   13    0      0.29      0.00
   -3  -13    1      0.34      0.00
    3   12    3      0.65      0.00
    3   12    2     -0.03      0.00
    3   12    1     -0.38      0.00
    3   12    0      0.29      0.00
   -3  -12    1      0.58      0.00
   -3  -12    2     -0.30      0.00
    3   11    2      1.03      0.00
    3   11    1     -0.08      0.00
    3   11    0      0.07      0.00
   -3  -11    1      0.88      0.00
   -3  -11    2      0.23      0.00
   -3  -11    3     -1.39      0.00
   -3  -11    4     -1.76      0.00
    3   10    1      0.65      0.00
    3   10    0      0.18      0.00
   -3  -10    1      0.69      0.00
   -3  -10    2      0.93      0.00
   -3  -10    3      0.09      0.00
   -3  -10    4     -0.85      0.00
   -3  -10    5     -0.76      0.00
    3    9    1      0.93      0.00
    3    9    0      1.10      0.00
   -3   -9    1      1.09      0.00
   -3   -9    2      0.73      0.00
   -3   -9    3      0.32      0.00
   -3   -9    4      0.49      0.00
   -3   -9    5      0.55      0.00
   -3   -9    6      0.08      0.00
    3    8    2     -1.81      0.00
    3    8    1      0.24      0.00
    3    8    0      1.18      0.00
   -3   -8    1      0.90      0.00
   -3   -8    2      0.23      0.00
   -3   -8    3     -0.76      0.00
   -3   -8    4     -0.85      0.00
   -3   -8    5      0.13      0.00
   -3   -8    6      0.40      0.00
   -3   -8    7     -0.14      0.00
    3    7    4     -0.56      0.00
    3    7    3     -0.43      0.00
    3    7    2     -1.44      0.00
    3    7    1     -0.96      0.00
    3    7    0      0.27      0.00
   -3   -7    1      0.32      0.00
   -3   -7    2     -0.15      0.00
   -3   -7    3     -0.69      0.00
   -3   -7    4     -1.40      0.00
   -3   -7    5     -1.36      0.00
   -3   -7    6     -0.91      0.00
   -3   -7    7     -0.88      0.00
   -3   -7    8     -0.57      0.00
    3    6    6     -2.08      0.00
    3    6    5     -2.65      0.00
    3    6    4     -0.96      0.00
    3    6    3      1.33      0.00
    3    6    2      1.99      0.00
    3    6    1      1.29      0.00
    3    6    0      0.85      0.00
   -3   -6    1      0.83      0.00
   -3   -6    2      1.00      0.00
   -3   -6    3      1.09      0.00
   -3   -6    4      0.36      0.00
   -3   -6    5     -0.50      0.00
   -3   -6    6     -0.55      0.00
   -3   -6    7     -0.58      0.00
   -3   -6    8     -0.85      0.00
   -3   -6    9     -0.66      0.00
    3    5    6      0.98      0.00
    3    5    5     -0.88      0.00
    3    5    4     -1.74      0.00
    3    5    3     -0.51      0.00
    3    5    2      1.77      0.00
    3    5    1      3.37      0.00
    3    5    0      3.41      0.00
   -3   -5    1      2.35      0.00
   -3   -5    2      1.58      0.00
   -3   -5    3      1.71      0.00
   -3   -5    4      1.62      0.00
   -3   -5    5      0.96      0.00
   -3   -5    6      1.03      0.00
   -3   -5    7      1.72      0.00
   -3   -5    8      1.75      0.00
   -3   -5    9      0.96      0.00
   -3   -5   10      0.05      0.00
    3    4    6     -0.23      0.00
    3    4    5     -0.43      0.00
    3    4    4     -1.68      0.00
    3    4    3     -2.56      0.00
    3    4    2     -2.20      0.00
    3    4    1     -0.90      0.00
    3    4    0      0.39      0.00
   -3   -4    1      0.73      0.00
   -3   -4    2      0.16      0.00
   -3   -4    3     -0.22      0.00
   -3   -4    4     -0.18      0.00
   -3   -4    5     -0.08      0.00
   -3   -4    6      0.79      0.00
   -3   -4    7      2.18      0.00
   -3   -4    8      2.70      0.00
   -3   -4    9      2.35      0.00
   -3   -4   10      1.39      0.00
    3    3    7     -0.49      0.00
    3    3    6     -1.78      0.00
    3    3    5     -1.65      0.00
    3    3    4     -0.96      0.00
    3    3    3     -0.74      0.00
    3    3    2     -0.75      0.00
    3    3    1     -0.95      0.00
    3    3    0     -1.66      0.00
   -3   -3    1     -2.36      0.00
   -3   -3    2     -2.42      0.00
   -3   -3    3     -1.67      0.00
   -3   -3    4     -0.71      0.00
   -3   -3    5     -0.84      0.00
   -3   -3    6     -1.11      0.00
   -3   -3    7      0.13      0.00
   -3   -3    8      1.15      0.00
   -3   -3    9      0.81      0.00
   -3   -3   10      0.60      0.00
   -3   -3   11      0.34      0.00
    3    2    8      0.32      0.00
    3    2    6      1.52      0.00
    3    2    5      0.48      0.00
    3    2    4      0.05      0.00
    3    2    3      0.15      0.00
    3    2    2      0.78      0.00
    3    2    1      2.35      0.00
    3    2    0      3.08      0.00
   -3   -2    1      1.43      0.00
   -3   -2    2     -1.03      0.00
   -3   -2    3     -2.07      0.00
   -3   -2    4     -0.82      0.00
   -3   -2    5      0.89      0.00
   -3   -2    6      0.36      0.00
   -3   -2    7     -0.87      0.00
   -3   -2    8     -0.59      0.00
   -3   -2    9     -0.27      0.00
   -3   -2   10     -0.18      0.00
   -3   -2   11      0.43      0.00
   -3   -2   12      0.29      0.00
    3    1    6      1.03      0.00
    3    1    5      1.75      0.00
    3    1    4      1.23      0.00
    3    1    3     -0.23      0.00
    3    1    2     -2.42      0.00
    3    1    1     -2.73      0.00
    3    1    0      0.55      0.00
   -3   -1    1      3.67      0.00
   -3   -1    2      3.21      0.00
   -3   -1    3      0.48      0.00
   -3   -1    4     -1.62      0.00
   -3   -1    5     -0.82      0.00
   -3   -1    6      1.39      0.00
   -3   -1    7      1.62      0.00
   -3   -1    8      0.60      0.00
   -3   -1    9      0.13      0.00
   -3   -1   10      0.10      0.00
   -3   -1   11      0.90      0.00
   -3   -1   12      1.46      0.00
   -3   -1   13      0.46      0.00
    3    0    6     -3.64      0.00
    3    0    5     -2.59      0.00
    3    0    4     -0.60      0.00
    3    0    3      0.74      0.00
    3    0    2     -0.54      0.00
    3    0    1     -4.62      0.00
    3    0    0     -6.42      0.00
   -3    0    1     -2.87      0.00
   -3    0    2      1.79      0.00
   -3    0    3      3.44      0.00
   -3    0    4      1.73      0.00
   -3    0    5     -1.10      0.00
   -3    0    6     -1.38      0.00
   -3    0    7      0.70      0.00
   -3    0    8      2.00      0.00
   -3    0    9      1.89      0.00
   -3    0   10      1.14      0.00
   -3    0   11      0.84      0.00
   -3    0   12      1.57      0.00
    3   -1    5     -2.97      0.00
    3   -1    4     -2.08      0.00
    3   -1    3      0.79      0.00
    3   -1    2      3.53      0.00
    3   -1    1      2.97      0.00
   -3    1    0     -1.55      0.00
   -3    1    1     -4.97      0.00
   -3    1    2     -3.62      0.00
   -3    1    3      0.48      0.00
   -3    1    4      3.57      0.00
   -3    1    5      2.66      0.00
   -3    1    6     -0.97      0.00
   -3    1    7     -2.69      0.00
   -3    1    8     -1.65      0.00
   -3    1    9     -0.20      0.00
   -3    1   10      0.41      0.00
   -3    1   11      0.18      0.00
   -3    1   12      0.23      0.00
   -3    1   13      0.71      0.00
   -3    1   14      0.58      0.00
    3   -2    5      2.86      0.00
    3   -2    4      1.28      0.00
    3   -2    3      0.32      0.00
    3   -2    2      1.32      0.00
    3   -2    1      3.78      0.00
   -3    2    0      4.41      0.00
   -3    2    1      1.09      0.00
   -3    2    2     -3.13      0.00
   -3    2    3     -4.29      0.00
   -3    2    4     -1.78      0.00
   -3    2    5      1.16      0.00
   -3    2    6      0.64      0.00
   -3    2    7     -2.26      0.00
   -3    2    8     -4.09      0.00
   -3    2    9     -4.23      0.00
   -3    2   10     -3.39      0.00
   -3    2   11     -2.38      0.00
   -3    2   12     -1.73      0.00
   -3    2   13     -1.01      0.00
   -3    2   14     -0.67      0.00
   -3    2   15     -0.83      0.00
    3   -3    4      2.15      0.00
    3   -3    3     -0.00      0.00
    3   -3    2     -2.71      0.00
    3   -3    1     -3.18      0.00
   -3    3    0     -0.91      0.00
   -3    3    1      1.05      0.00
   -3    3    2      0.08      0.00
   -3    3    3     -2.72      0.00
   -3    3    4     -4.22      0.00
   -3    3    5     -2.80      0.00
   -3    3    6     -0.44      0.00
   -3    3    7      0.25      0.00
   -3    3    8     -0.60      0.00
   -3    3    9     -2.15      0.00
   -3    3   10     -3.26      0.00
   -3    3   11     -2.82      0.00
   -3    3   12     -1.96      0.00
   -3    3   13     -1.44      0.00
   -3    3   14     -0.71      0.00
   -3    3   15     -0.49      0.00
    3   -4    4     -1.42      0.00
    3   -4    3     -0.89      0.00
    3   -4    2     -1.85      0.00
    3   -4    1     -3.59      0.00
   -3    4    0     -4.39      0.00
   -3    4    1     -3.25      0.00
   -3    4    2     -1.11      0.00
   -3    4    3      0.06      0.00
   -3    4    4     -0.43      0.00
   -3    4    5     -0.72      0.00
   -3    4    6      0.63      0.00
   -3    4    7      2.28      0.00
   -3    4    8      2.97      0.00
   -3    4    9      2.69      0.00
   -3    4   10      1.54      0.00
   -3    4   11      0.86      0.00
   -3    4   12      1.09      0.00
   -3    4   13      0.65      0.00
   -3    4   14     -0.10      0.00
   -3    4   15      0.04      0.00
   -3    4   16      0.11      0.00
    3   -5    8     -0.61      0.00
    3   -5    4      0.89      0.00
    3   -5    3      1.06      0.00
    3   -5    2      1.81      0.00
    3   -5    1      1.81      0.00
   -3    5    0      0.60      0.00
   -3    5    1     -1.04      0.00
   -3    5    2     -1.65      0.00
   -3    5    3     -0.65      0.00
   -3    5    4      0.61      0.00
   -3    5    5      1.12      0.00
   -3    5    6      1.85      0.00
   -3    5    7      2.84      0.00
   -3    5    8      2.77      0.00
   -3    5    9      2.26      0.00
   -3    5   10      2.34      0.00
   -3    5   11      2.53      0.00
   -3    5   12      2.50      0.00
   -3    5   13      1.98      0.00
   -3    5   14      0.69      0.00
   -3    5   15     -0.31      0.00
    3   -6    7      1.64      0.00
    3   -6    6      2.41      0.00
    3   -6    5      3.43      0.00
    3   -6    4      3.50      0.00
    3   -6    3      3.06      0.00
    3   -6    2      3.14      0.00
    3   -6    1      3.16      0.00
   -3    6    0      2.38      0.00
   -3    6    1      1.01      0.00
   -3    6    2     -0.43      0.00
   -3    6    3     -1.45      0.00
   -3    6    4     -1.70      0.00
   -3    6    5     -1.37      0.00
   -3    6    6     -0.74      0.00
   -3    6    7      0.12      0.00
   -3    6    8      0.46      0.00
   -3    6    9     -0.16      0.00
   -3    6   10     -0.71      0.00
   -3    6   11     -0.44      0.00
   -3    6   12     -0.00      0.00
   -3    6   13      0.08      0.00
   -3    6   14     -0.02      0.00
    3   -7    7      1.08      0.00
    3   -7    6      0.70      0.00
    3   -7    5      0.33      0.00
    3   -7    4      0.35      0.00
    3   -7    3      0.26      0.00
    3   -7    2      0.26      0.00
    3   -7    1      0.60      0.00
   -3    7    0      0.49      0.00
   -3    7    1     -0.67      0.00
   -3    7    2     -1.84      0.00
   -3    7    3     -1.93      0.00
   -3    7    4     -1.61      0.00
   -3    7    5     -1.88      0.00
   -3    7    6     -2.23      0.00
   -3    7    7     -1.93      0.00
   -3    7    8     -1.11      0.00
   -3    7    9     -0.35      0.00
   -3    7   10     -0.51      0.00
   -3    7   11     -1.62      0.00
   -3    7   12     -2.30      0.00
   -3    7   13     -1.79      0.00
   -3    7   14     -0.79      0.00
   -3    7   15      0.03      0.00
    3   -8    6      0.28      0.00
    3   -8    5     -0.65      0.00
    3   -8    4     -1.55      0.00
    3   -8    3     -1.61      0.00
    3   -8    2     -1.18      0.00
    3   -8    1     -0.52      0.00
   -3    8    0      0.40      0.00
   -3    8    1      0.71      0.00
   -3    8    2     -0.48      0.00
   -3    8    3     -1.43      0.00
   -3    8    4     -0.20      0.00
   -3    8    5      1.32      0.00
   -3    8    6      0.77      0.00
   -3    8    7     -0.60      0.00
   -3    8    8     -0.87      0.00
   -3    8    9      0.05      0.00
   -3    8   10      1.05      0.00
   -3    8   11      0.51      0.00
   -3    8   12     -1.18      0.00
   -3    8   13     -1.52      0.00
   -3    8   14     -0.28      0.00
   -3    8   15      0.53      0.00
    3   -9    5      1.12      0.00
    3   -9    4      0.36      0.00
    3   -9    3     -0.27      0.00
    3   -9    2     -0.22      0.00
    3   -9    1      0.38      0.00
   -3    9    0      0.94      0.00
   -3    9    1      1.52      0.00
   -3    9    2      1.86      0.00
   -3    9    3      1.28      0.00
   -3    9    4      1.02      0.00
   -3    9    5      2.23      0.00
   -3    9    6      2.95      0.00
   -3    9    7      1.87      0.00
   -3    9    8      0.48      0.00
   -3    9    9     -0.09      0.00
   -3    9   10      0.24      0.00
   -3    9   11      0.95      0.00
   -3    9   12      0.73      0.00
   -3    9   13      0.03      0.00
   -3    9   14      0.46      0.00
   -3    9   15      1.04      0.00
   -3    9   16      0.40      0.00
    3  -10    4      0.55      0.00
    3  -10    3      0.64      0.00
    3  -10    2      0.44      0.00
    3  -10    1     -0.17      0.00
   -3   10    0     -0.64      0.00
   -3   10    1     -0.84      0.00
   -3   10    2     -0.42      0.00
   -3   10    3      0.37      0.00
   -3   10    4      0.66      0.00
   -3   10    5      0.69      0.00
   -3   10    6      0.83      0.00
   -3   10    7      0.75      0.00
   -3   10    8      0.79      0.00
   -3   10    9      0.82      0.00
   -3   10   10      0.01      0.00
   -3   10   11     -0.57      0.00
   -3   10   12      0.05      0.00
   -3   10   13      0.50      0.00
   -3   10   14      0.38      0.00
   -3   10   15      0.58      0.00
   -3   10   16      0.59      0.00
    3  -11    3     -0.71      0.00
    3  -11    2      0.08      0.00
    3  -11    1     -0.26      0.00
   -3   11    0     -1.57      0.00
   -3   11    1     -2.49      0.00
   -3   11    2     -2.35      0.00
   -3   11    3     -1.46      0.00
   -3   11    4     -0.83      0.00
   -3   11    5     -0.77      0.00
   -3   11    6     -0.94      0.00
   -3   11    7     -1.38      0.00
   -3   11    8     -1.43      0.00
   -3   11    9     -0.18      0.00
   -3   11   10      0.87      0.00
   -3   11   11      0.12      0.00
   -3   11   12     -0.87      0.00
   -3   11   13     -0.76      0.00
   -3   11   14     -0.66      0.00
   -3   11   15     -0.84      0.00
    3  -12    2     -0.27      0.00
    3  -12    1     -0.00      0.00
   -3   12    0     -0.25      0.00
   -3   12    1     -0.59      0.00
   -3   12    2     -0.69      0.00
   -3   12    3     -0.25      0.00
   -3   12    4      0.32      0.00
   -3   12    5      0.33      0.00
   -3   12    6      0.07      0.00
   -3   12    7     -0.32      0.00
   -3   12    8     -1.13      0.00
   -3   12    9     -1.42      0.00
   -3   12   10     -0.40      0.00
   -3   12   11      0.60      0.00
   -3   12   12      0.36      0.00
   -3   12   13     -0.36      0.00
   -3   12   14     -0.78      0.00
    3  -13    1     -0.16      0.00
   -3   13    0     -0.20      0.00
   -3   13    1      0.31      0.00
   -3   13    2      0.79      0.00
   -3   13    3      0.83      0.00
   -3   13    4      1.10      0.00
   -3   13    5      1.43      0.00
   -3   13    6      1.32      0.00
   -3   13    7      1.03      0.00
   -3   13    8      0.55      0.00
   -3   13    9     -0.12      0.00
   -3   13   10     -0.41      0.00
   -3   13   11     -0.10      0.00
   -3   13   12      0.43      0.00
   -3   14    0     -0.74      0.00
   -3   14    1     -0.86      0.00
   -3   14    2     -0.54      0.00
   -3   14    3     -0.37      0.00
   -3   14    4      0.04      0.00
   -3   14    5      0.78      0.00
   -3   14    6      0.82      0.00
   -3   14    7      0.35      0.00
   -3   14    8      0.11      0.00
   -3   14    9     -0.01      0.00
   -3   15    2     -1.06      0.00
   -3   15    3     -1.02      0.00
    2   15    7     -1.10      0.00
    2   15    6     -0.59      0.00
    2   15    5     -0.80      0.00
    2   15    4     -0.81      0.00
    2   15    3     -0.81      0.00
    2   15    2     -1.52      0.00
    2   15    1     -2.11      0.00
    2   14    6     -2.25      0.00
    2   14    5     -0.80      0.00
    2   14    4     -0.32      0.00
    2   14    3     -0.56      0.00
    2   14    2     -1.06      0.00
    2   14    1     -1.61      0.00
    2   14    0     -1.85      0.00
   -2  -14    1     -1.60      0.00
    2   13    5     -1.27      0.00
    2   13    4      0.77      0.00
    2   13    3      1.65      0.00
    2   13    2      1.94      0.00
    2   13    1      1.89      0.00
    2   13    0      1.56      0.00
   -2  -13    1      0.99      0.00
   -2  -13    2      0.34      0.00
    2   12    4      2.95      0.00
    2   12    3      3.10      0.00
    2   12    2      2.49      0.00
    2   12    1      1.98      0.00
    2   12    0      1.44      0.00
   -2  -12    1      1.10      0.00
   -2  -12    2      0.91      0.00
   -2  -12    3      0.55      0.00
   -2  -12    4      0.21      0.00
    2   11    3      2.64      0.00
    2   11    2      0.97      0.00
    2   11    1     -0.71      0.00
    2   11    0     -1.99      0.00
   -2  -11    1     -2.35      0.00
   -2  -11    2     -1.24      0.00
   -2  -11    3      0.17      0.00
   -2  -11    4      0.47      0.00
   -2  -11    5      0.09      0.00
    2   10    9     -0.94      0.00
    2   10    8     -1.16      0.00
    2   10    7     -1.65      0.00
    2   10    6     -0.14      0.00
    2   10    5      1.35      0.00
    2   10    2     -0.53      0.00
    2   10    1     -1.19      0.00
    2   10    0     -2.10      0.00
   -2  -10    1     -2.71      0.00
   -2  -10    2     -2.25      0.00
   -2  -10    3     -0.52      0.00
   -2  -10    4      0.75      0.00
   -2  -10    5      0.38      0.00
   -2  -10    6     -0.33      0.00
    2    9    8      0.07      0.00
    2    9    7      0.60      0.00
    2    9    6      1.08      0.00
    2    9    5      2.16      0.00
    2    9    4      1.45      0.00
    2    9    3     -0.72      0.00
    2    9    2     -1.15      0.00
    2    9    1     -0.12      0.00
    2    9    0      0.32      0.00
   -2   -9    1      0.42      0.00
   -2   -9    2      0.38      0.00
   -2   -9    3      0.05      0.00
   -2   -9    4      0.22      0.00
   -2   -9    5      0.49      0.00
   -2   -9    6      0.23      0.00
   -2   -9    7      0.25      0.00
    2    8    8      0.07      0.00
    2    8    7      0.55      0.00
    2    8    6      0.91      0.00
    2    8    5      2.35      0.00
    2    8    4      3.75      0.00
    2    8    3      2.12      0.00
    2    8    2     -0.42      0.00
    2    8    1      0.03      0.00
    2    8    0      1.91      0.00
   -2   -8    1      2.72      0.00
   -2   -8    2      2.99      0.00
   -2   -8    3      2.40      0.00
   -2   -8    4      0.91      0.00
   -2   -8    5      0.22      0.00
   -2   -8    6      0.28      0.00
   -2   -8    7      0.28      0.00
   -2   -8    8      0.53      0.00
    2    7    8      2.06      0.00
    2    7    7      1.96      0.00
    2    7    6      0.44      0.00
    2    7    5     -0.10      0.00
    2    7    4      2.18      0.00
    2    7    3      4.17      0.00
    2    7    2      2.65      0.00
    2    7    1      0.79      0.00
    2    7    0      1.88      0.00
   -2   -7    1      3.53      0.00
   -2   -7    2      3.74      0.00
   -2   -7    3      3.11      0.00
   -2   -7    4      1.66      0.00
   -2   -7    5      0.39      0.00
   -2   -7    6      0.32      0.00
   -2   -7    7      0.11      0.00
   -2   -7    8     -0.67      0.00
   -2   -7    9     -0.79      0.00
    2    6    8      2.34      0.00
    2    6    7      4.18      0.00
    2    6    6      2.58      0.00
    2    6    5     -1.21      0.00
    2    6    4     -3.10      0.00
    2    6    3     -1.56      0.00
    2    6    2      0.49      0.00
    2    6    1      0.80      0.00
    2    6    0      0.87      0.00
   -2   -6    1      1.58      0.00
   -2   -6    2      1.80      0.00
   -2   -6    3      1.35      0.00
   -2   -6    4      0.16      0.00
   -2   -6    5     -1.33      0.00
   -2   -6    6     -1.19      0.00
   -2   -6    7      0.14      0.00
   -2   -6    8      0.02      0.00
   -2   -6    9     -1.20      0.00
   -2   -6   10     -1.39      0.00
    2    5    9      2.01      0.00
    2    5    8      0.04      0.00
    2    5    7      0.41      0.00
    2    5    6      1.28      0.00
    2    5    5     -0.82      0.00
    2    5    4     -4.92      0.00
    2    5    3     -7.50      0.00
    2    5    2     -7.23      0.00
    2    5    1     -5.46      0.00
    2    5    0     -3.52      0.00
   -2   -5    1     -2.00      0.00
   -2   -5    2     -1.41      0.00
   -2   -5    3     -1.24      0.00
   -2   -5    4     -1.16      0.00
   -2   -5    5     -1.84      0.00
   -2   -5    6     -2.22      0.00
   -2   -5    7     -0.91      0.00
   -2   -5    8      0.42      0.00
   -2   -5    9     -0.05      0.00
   -2   -5   10     -1.13      0.00
    2    4   10     -0.52      0.00
    2    4    9      1.37      0.00
    2    4    8     -0.32      0.00
    2    4    7     -2.96      0.00
    2    4    6     -2.47      0.00
    2    4    5     -0.45      0.00
    2    4    4     -0.53      0.00
    2    4    3     -2.39      0.00
    2    4    2     -3.62      0.00
    2    4    1     -3.75      0.00
    2    4    0     -3.29      0.00
   -2   -4    1     -1.84      0.00
   -2   -4    2      0.04      0.00
   -2   -4    3      1.23      0.00
   -2   -4    4      1.66      0.00
   -2   -4    5      1.24      0.00
   -2   -4    6      0.60      0.00
   -2   -4    7      0.90      0.00
   -2   -4    8      1.27      0.00
   -2   -4    9      0.77      0.00
   -2   -4   10      0.01      0.00
   -2   -4   11     -0.55      0.00
    2    3   10     -4.18      0.00
    2    3    9     -2.22      0.00
    2    3    8      0.43      0.00
    2    3    7      1.55      0.00
    2    3    6      2.02      0.00
    2    3    5      3.54      0.00
    2    3    4      5.24      0.00
    2    3    3      5.44      0.00
    2    3    2      5.21      0.00
    2    3    1      5.95      0.00
    2    3    0      5.98      0.00
   -2   -3    1      4.73      0.00
   -2   -3    2      4.28      0.00
   -2   -3    3      4.98      0.00
   -2   -3    4      5.78      0.00
   -2   -3    5      5.44      0.00
   -2   -3    6      3.45      0.00
   -2   -3    7      2.02      0.00
   -2   -3    8      2.13      0.00
   -2   -3    9      1.82      0.00
   -2   -3   10      1.25      0.00
   -2   -3   11      1.00      0.00
   -2   -3   12      0.09      0.00
    2    2   11      0.94      0.00
    2    2   10     -0.88      0.00
    2    2    9     -2.21      0.00
    2    2    8     -1.58      0.00
    2    2    7      1.46      0.00
    2    2    6      5.02      0.00
    2    2    5      6.40      0.00
    2    2    4      5.38      0.00
    2    2    3      2.52      0.00
    2    2    2     -1.41      0.00
    2    2    1     -2.39      0.00
    2    2    0      0.88      0.00
   -2   -2    1      3.31      0.00
   -2   -2    2      2.63      0.00
   -2   -2    3      1.33      0.00
   -2   -2    4      1.04      0.00
   -2   -2    5      2.17      0.00
   -2   -2    6      2.67      0.00
   -2   -2    7      0.82      0.00
   -2   -2    8     -0.60      0.00
   -2   -2    9     -0.18      0.00
   -2   -2   10      0.40      0.00
   -2   -2   11      0.97      0.00
   -2   -2   12      0.80      0.00
   -2   -2   13     -0.43      0.00
    2    1   11      0.31      0.00
    2    1   10     -0.51      0.00
    2    1    9     -1.99      0.00
    2    1    8     -4.11      0.00
    2    1    7     -5.52      0.00
    2    1    6     -4.04      0.00
    2    1    5     -1.35      0.00
    2    1    4     -1.07      0.00
    2    1    3     -3.66      0.00
    2    1    2     -9.88      0.00
    2    1    1    -17.89      0.00
    2    1    0    -18.95      0.00
   -2   -1    1    -11.16      0.00
   -2   -1    2     -3.70      0.00
   -2   -1    3     -1.58      0.00
   -2   -1    4     -2.78      0.00
   -2   -1    5     -3.86      0.00
   -2   -1    6     -2.28      0.00
   -2   -1    7     -0.46      0.00
   -2   -1    8     -1.04      0.00
   -2   -1    9     -1.80      0.00
   -2   -1   10     -1.53      0.00
   -2   -1   11     -0.91      0.00
   -2   -1   12      0.00      0.00
   -2   -1   13      0.17      0.00
    2    0   11     -2.17      0.00
    2    0   10     -2.83      0.00
    2    0    9     -3.40      0.00
    2    0    8     -3.29      0.00
    2    0    7     -3.83      0.00
    2    0    6     -5.18      0.00
    2    0    5     -4.79      0.00
    2    0    4     -3.03      0.00
    2    0    3     -1.14      0.00
    2    0    2      0.14      0.00
    2    0    1     -4.24      0.00
    2    0    0    -12.95      0.00
   -2    0    1    -13.90      0.00
   -2    0    2     -4.76      0.00
   -2    0    3      4.10      0.00
   -2    0    4      6.58      0.00
   -2    0    5      3.62      0.00
   -2    0    6     -0.20      0.00
   -2    0    7     -0.84      0.00
   -2    0    8     -0.03      0.00
   -2    0    9     -0.12      0.00
   -2    0   10     -0.56      0.00
   -2    0   11     -1.19      0.00
   -2    0   12     -1.44      0.00
   -2    0   13     -0.92      0.00
   -2    0   14     -0.59      0.00
    2   -1   10      1.47      0.00
    2   -1    9      0.73      0.00
    2   -1    6      5.58      0.00
    2   -1    5      5.39      0.00
    2   -1    4      4.85      0.00
    2   -1    3      5.50      0.00
    2   -1    2      9.08      0.00
    2   -1    1     14.37      0.00
   -2    1    0     13.33      0.00
   -2    1    1      5.81      0.00
   -2    1    2      2.23      0.00
   -2    1    3      5.58      0.00
   -2    1    4     10.21      0.00
   -2    1    5     11.39      0.00
   -2    1    6      7.51      0.00
   -2    1    7      1.97      0.00
   -2    1    8     -0.90      0.00
   -2    1    9     -1.36      0.00
   -2    1   10     -1.00      0.00
   -2    1   11     -0.94      0.00
   -2    1   12     -1.58      0.00
   -2    1   13     -1.97      0.00
   -2    1   14     -2.09      0.00
   -2    1   15     -2.05      0.00
    2   -2    9      4.72      0.00
    2   -2    6      4.32      0.00
    2   -2    5      6.31      0.00
    2   -2    4      5.48      0.00
    2   -2    3      3.01      0.00
    2   -2    2      0.61      0.00
    2   -2    1      2.03      0.00
   -2    2    0      7.46      0.00
   -2    2    1      9.68      0.00
   -2    2    2      5.78      0.00
   -2    2    3      0.65      0.00
   -2    2    4     -1.19      0.00
   -2    2    5      1.15      0.00
   -2    2    6      3.86      0.00
   -2    2    7      2.69      0.00
   -2    2    8     -0.71      0.00
   -2    2    9     -2.99      0.00
   -2    2   10     -3.44      0.00
   -2    2   11     -2.76      0.00
   -2    2   12     -2.02      0.00
   -2    2   13     -1.10      0.00
   -2    2   14     -0.11      0.00
   -2    2   15     -0.33      0.00
    2   -3    9      0.07      0.00
    2   -3    5     -4.87      0.00
    2   -3    4     -4.62      0.00
    2   -3    3     -5.54      0.00
    2   -3    2     -8.67      0.00
    2   -3    1    -12.66      0.00
   -2    3    0    -12.84      0.00
   -2    3    1     -7.99      0.00
   -2    3    2     -3.09      0.00
   -2    3    3     -2.32      0.00
   -2    3    4     -4.74      0.00
   -2    3    5     -5.75      0.00
   -2    3    6     -2.94      0.00
   -2    3    7      0.49      0.00
   -2    3    8      1.67      0.00
   -2    3    9      1.16      0.00
   -2    3   10     -0.16      0.00
   -2    3   11     -1.12      0.00
   -2    3   12     -1.10      0.00
   -2    3   13     -0.54      0.00
   -2    3   14      1.00      0.00
   -2    3   15      2.40      0.00
   -2    3   16      1.93      0.00
    2   -4    9     -1.66      0.00
    2   -4    5     -4.07      0.00
    2   -4    4     -5.06      0.00
    2   -4    3     -4.67      0.00
    2   -4    2     -4.38      0.00
    2   -4    1     -5.31      0.00
   -2    4    0     -6.43      0.00
   -2    4    1     -6.00      0.00
   -2    4    2     -3.76      0.00
   -2    4    3     -0.75      0.00
   -2    4    4      1.15      0.00
   -2    4    5      1.20      0.00
   -2    4    6      1.33      0.00
   -2    4    7      2.33      0.00
   -2    4    8      3.29      0.00
   -2    4    9      4.40      0.00
   -2    4   10      4.81      0.00
   -2    4   11      3.61      0.00
   -2    4   12      2.38      0.00
   -2    4   13      1.40      0.00
   -2    4   14      0.01      0.00
   -2    4   15     -0.43      0.00
   -2    4   16      0.06      0.00
    2   -5    8      1.21      0.00
    2   -5    7      1.62      0.00
    2   -5    6      2.84      0.00
    2   -5    5      3.68      0.00
    2   -5    4      3.06      0.00
    2   -5    3      2.56      0.00
    2   -5    2      3.15      0.00
    2   -5    1      3.94      0.00
   -2    5    0      5.02      0.00
   -2    5    1      6.26      0.00
   -2    5    2      5.81      0.00
   -2    5    3      3.94      0.00
   -2    5    4      3.01      0.00
   -2    5    5      2.83      0.00
   -2    5    6      2.42      0.00
   -2    5    7      2.35      0.00
   -2    5    8      2.18      0.00
   -2    5    9      1.67      0.00
   -2    5   10      1.81      0.00
   -2    5   11      2.05      0.00
   -2    5   12      1.90      0.00
   -2    5   13      1.72      0.00
   -2    5   14      0.39      0.00
   -2    5   15     -1.92      0.00
   -2    5   16     -2.81      0.00
   -2    5   17     -1.99      0.00
    2   -6    7      1.92      0.00
    2   -6    6      1.95      0.00
    2   -6    5      2.68      0.00
    2   -6    4      2.78      0.00
    2   -6    3      1.77      0.00
    2   -6    2      1.49      0.00
    2   -6    1      1.82      0.00
   -2    6    0      1.53      0.00
   -2    6    1      1.98      0.00
   -2    6    2      3.39      0.00
   -2    6    3      3.22      0.00
   -2    6    4      1.18      0.00
   -2    6    5     -0.96      0.00
   -2    6    6     -2.60      0.00
   -2    6    7     -2.83      0.00
   -2    6    8     -1.27      0.00
   -2    6    9     -0.25      0.00
   -2    6   10     -1.01      0.00
   -2    6   11     -1.85      0.00
   -2    6   12     -1.44      0.00
   -2    6   13     -0.30      0.00
   -2    6   14      0.21      0.00
   -2    6   15     -0.45      0.00
   -2    6   16     -1.06      0.00
    2   -7    6     -0.51      0.00
    2   -7    5     -1.36      0.00
    2   -7    4     -1.67      0.00
    2   -7    3     -2.39      0.00
    2   -7    2     -3.25      0.00
    2   -7    1     -2.92      0.00
   -2    7    0     -2.50      0.00
   -2    7    1     -3.18      0.00
   -2    7    2     -3.31      0.00
   -2    7    3     -1.93      0.00
   -2    7    4     -0.52      0.00
   -2    7    5     -0.43      0.00
   -2    7    6     -1.70      0.00
   -2    7    7     -2.93      0.00
   -2    7    8     -2.01      0.00
   -2    7    9      0.64      0.00
   -2    7   10      2.08      0.00
   -2    7   11      1.30      0.00
   -2    7   12      0.37      0.00
   -2    7   13      0.67      0.00
   -2    7   14      1.00      0.00
   -2    7   15      0.46      0.00
   -2    7   16      0.08      0.00
    2   -8    5     -0.16      0.00
    2   -8    4     -1.06      0.00
    2   -8    3     -1.68      0.00
    2   -8    2     -2.12      0.00
    2   -8    1     -2.12      0.00
   -2    8    0     -1.13      0.00
   -2    8    1      0.09      0.00
   -2    8    2      0.09      0.00
   -2    8    3     -1.02      0.00
   -2    8    4     -1.39      0.00
   -2    8    5     -0.03      0.00
   -2    8    6      1.34      0.00
   -2    8    7      1.02      0.00
   -2    8    8      0.15      0.00
   -2    8    9      0.76      0.00
   -2    8   10      2.76      0.00
   -2    8   11      4.17      0.00
   -2    8   12      3.78      0.00
   -2    8   13      2.66      0.00
   -2    8   14      1.78      0.00
   -2    8   15      0.53      0.00
   -2    8   16     -0.70      0.00
    2   -9    5      1.36      0.00
    2   -9    4      1.09      0.00
    2   -9    3      0.44      0.00
    2   -9    2     -0.24      0.00
    2   -9    1     -0.33      0.00
   -2    9    0      0.14      0.00
   -2    9    1      1.01      0.00
   -2    9    2      1.86      0.00
   -2    9    3      1.24      0.00
   -2    9    4     -1.16      0.00
   -2    9    5     -2.76      0.00
   -2    9    6     -1.96      0.00
   -2    9    7     -0.57      0.00
   -2    9    8     -0.31      0.00
   -2    9    9     -0.84      0.00
   -2    9   10     -1.00      0.00
   -2    9   11      0.10      0.00
   -2    9   12      1.36      0.00
   -2    9   13      0.99      0.00
   -2    9   14     -0.14      0.00
   -2    9   15     -0.57      0.00
   -2    9   16     -0.64      0.00
    2  -10    4     -0.10      0.00
    2  -10    3     -0.25      0.00
    2  -10    2     -0.41      0.00
    2  -10    1     -0.83      0.00
   -2   10    0     -0.89      0.00
   -2   10    1     -0.94      0.00
   -2   10    2     -1.09      0.00
   -2   10    3     -1.08      0.00
   -2   10    4     -1.81      0.00
   -2   10    5     -3.51      0.00
   -2   10    6     -4.67      0.00
   -2   10    7     -4.60      0.00
   -2   10    8     -3.76      0.00
   -2   10    9     -2.67      0.00
   -2   10   10     -2.47      0.00
   -2   10   11     -3.05      0.00
   -2   10   12     -2.57      0.00
   -2   10   13     -1.50      0.00
   -2   10   14     -1.49      0.00
   -2   10   15     -1.35      0.00
   -2   10   16      0.10      0.00
   -2   10   17      1.42      0.00
    2  -11    3     -1.02      0.00
    2  -11    2     -0.32      0.00
    2  -11    1      0.19      0.00
   -2   11    0      0.12      0.00
   -2   11    1     -0.28      0.00
   -2   11    2     -0.91      0.00
   -2   11    3     -0.86      0.00
   -2   11    4     -0.15      0.00
   -2   11    5     -0.22      0.00
   -2   11    6     -1.04      0.00
   -2   11    7     -1.72      0.00
   -2   11    8     -2.30      0.00
   -2   11    9     -2.28      0.00
   -2   11   10     -1.24      0.00
   -2   11   11     -0.56      0.00
   -2   11   12     -0.66      0.00
   -2   11   13     -0.25      0.00
   -2   11   14      0.33      0.00
   -2   11   15      0.25      0.00
   -2   11   16      0.50      0.00
   -2   11   17      1.35      0.00
    2  -12    2      0.49      0.00
    2  -12    1      1.55      0.00
   -2   12    0      1.86      0.00
   -2   12    1      1.80      0.00
   -2   12    2      1.52      0.00
   -2   12    3      1.27      0.00
   -2   12    4      1.82      0.00
   -2   12    5      2.44      0.00
   -2   12    6      2.30      0.00
   -2   12    7      2.08      0.00
   -2   12    8      1.73      0.00
   -2   12    9      0.63      0.00
   -2   12   10      0.03      0.00
   -2   12   11      0.97      0.00
   -2   12   12      2.15      0.00
   -2   12   13      2.29      0.00
   -2   12   14      1.87      0.00
   -2   12   15      1.45      0.00
    2  -13    1      0.89      0.00
   -2   13    0      0.94      0.00
   -2   13    1      0.74      0.00
   -2   13    2      0.95      0.00
   -2   13    3      1.06      0.00
   -2   13    4      0.89      0.00
   -2   13    5      0.72      0.00
   -2   13    6      0.47      0.00
   -2   13    7      0.41      0.00
   -2   13    8      0.46      0.00
   -2   13    9      0.09      0.00
   -2   13   10     -0.09      0.00
   -2   13   11      0.66      0.00
   -2   13   12      1.70      0.00
   -2   13   13      1.86      0.00
   -2   13   14      1.01      0.00
   -2   14    0     -0.31      0.00
   -2   14    1     -0.71      0.00
   -2   14    2     -0.66      0.00
   -2   14    3     -0.62      0.00
   -2   14    4     -0.76      0.00
   -2   14    5     -0.67      0.00
   -2   14    6     -0.74      0.00
   -2   14    7     -1.12      0.00
   -2   14    8     -1.37      0.00
   -2   14    9     -1.69      0.00
   -2   14   10     -1.42      0.00
   -2   14   11      0.16      0.00
   -2   14   12      1.37      0.00
   -2   15    2     -0.02      0.00
   -2   15    3      0.06      0.00
   -2   15    4     -0.70      0.00
   -2   15    5     -0.97      0.00
   -2   15    6     -0.21      0.00
   -2   15    7      0.06      0.00
   -2   15    8     -0.30      0.00
   -2   15    9     -0.66      0.00
   -2   16    3      1.01      0.00
   -2   16    4      0.92      0.00
    1   15    2      0.83      0.00
    1   15    1      0.57      0.00
    1   14    7     -1.21      0.00
    1   14    6     -2.33      0.00
    1   14    5     -1.66      0.00
    1   14    4     -0.82      0.00
    1   14    3      0.13      0.00
    1   14    2      1.29      0.00
    1   14    1      1.68      0.00
    1   14    0      1.21      0.00
   -1  -14    1      0.77      0.00
   -1  -14    2      0.66      0.00
    1   13    6     -0.96      0.00
    1   13    5     -1.10      0.00
    1   13    4     -0.45      0.00
    1   13    3     -0.15      0.00
    1   13    2     -0.18      0.00
    1   13    1     -0.73      0.00
    1   13    0     -1.54      0.00
   -1  -13    1     -1.52      0.00
   -1  -13    2     -0.89      0.00
   -1  -13    3     -0.54      0.00
    1   12    9      2.07      0.00
    1   12    8      2.57      0.00
    1   12    7      3.16      0.00
    1   12    6      2.86      0.00
    1   12    5      2.19      0.00
    1   12    4      2.30      0.00
    1   12    3      2.11      0.00
    1   12    2      0.81      0.00
    1   12    1     -0.93      0.00
    1   12    0     -2.55      0.00
   -1  -12    1     -3.00      0.00
   -1  -12    2     -1.79      0.00
   -1  -12    3     -0.73      0.00
   -1  -12    4     -0.79      0.00
   -1  -12    5     -0.71      0.00
    1   11   10      0.82      0.00
    1   11    9      3.08      0.00
    1   11    8      3.56      0.00
    1   11    7      3.45      0.00
    1   11    6      3.92      0.00
    1   11    5      3.52      0.00
    1   11    4      2.86      0.00
    1   11    3      3.25      0.00
    1   11    2      3.47      0.00
    1   11    1      2.78      0.00
    1   11    0      1.85      0.00
   -1  -11    1      0.81      0.00
   -1  -11    2      0.29      0.00
   -1  -11    3      0.65      0.00
   -1  -11    4      0.56      0.00
   -1  -11    5     -0.16      0.00
   -1  -11    6     -0.26      0.00
    1   10   11      1.00      0.00
    1   10   10     -0.83      0.00
    1   10    9      0.18      0.00
    1   10    8      1.93      0.00
    1   10    7      1.34      0.00
    1   10    6      0.83      0.00
    1   10    5      1.41      0.00
    1   10    4      1.01      0.00
    1   10    3      0.68      0.00
    1   10    2      1.98      0.00
    1   10    1      3.18      0.00
    1   10    0      3.33      0.00
   -1  -10    1      2.96      0.00
   -1  -10    2      1.68      0.00
   -1  -10    3      0.17      0.00
   -1  -10    4     -0.35      0.00
   -1  -10    5     -0.60      0.00
   -1  -10    6     -0.86      0.00
   -1  -10    7     -0.52      0.00
    1    9   10      0.91      0.00
    1    9    9     -0.61      0.00
    1    9    8     -0.83      0.00
    1    9    7     -1.10      0.00
    1    9    6     -1.86      0.00
    1    9    5     -0.66      0.00
    1    9    4      0.78      0.00
    1    9    3     -0.27      0.00
    1    9    2     -1.17      0.00
    1    9    1     -0.08      0.00
    1    9    0      0.57      0.00
   -1   -9    1      0.39      0.00
   -1   -9    2      0.42      0.00
   -1   -9    3     -0.51      0.00
   -1   -9    4     -2.04      0.00
   -1   -9    5     -2.49      0.00
   -1   -9    6     -2.37      0.00
   -1   -9    7     -1.99      0.00
    1    8   10     -1.40      0.00
    1    8    9      0.47      0.00
    1    8    8      0.61      0.00
    1    8    7      0.33      0.00
    1    8    6     -0.51      0.00
    1    8    5      0.31      0.00
    1    8    4      3.90      0.00
    1    8    3      5.66      0.00
    1    8    2      3.18      0.00
    1    8    1      0.98      0.00
    1    8    0      1.36      0.00
   -1   -8    1      1.74      0.00
   -1   -8    2      1.80      0.00
   -1   -8    3      1.83      0.00
   -1   -8    4      0.49      0.00
   -1   -8    5     -1.02      0.00
   -1   -8    6     -1.17      0.00
   -1   -8    7     -1.17      0.00
   -1   -8    8     -1.10      0.00
    1    7   10     -2.64      0.00
    1    7    9     -0.55      0.00
    1    7    8      2.91      0.00
    1    7    7      6.61      0.00
    1    7    6      7.50      0.00
    1    7    5      5.86      0.00
    1    7    4      6.08      0.00
    1    7    3      8.89      0.00
    1    7    2      9.41      0.00
    1    7    1      6.42      0.00
    1    7    0      4.65      0.00
   -1   -7    1      5.39      0.00
   -1   -7    2      5.85      0.00
   -1   -7    3      5.20      0.00
   -1   -7    4      3.49      0.00
   -1   -7    5      1.29      0.00
   -1   -7    6      0.72      0.00
   -1   -7    7      1.21      0.00
   -1   -7    8      0.59      0.00
   -1   -7    9     -0.08      0.00
    1    6   10      1.74      0.00
    1    6    9     -0.44      0.00
    1    6    8     -0.00      0.00
    1    6    7      5.17      0.00
    1    6    6      9.61      0.00
    1    6    5      8.25      0.00
    1    6    4      3.64      0.00
    1    6    3      0.94      0.00
    1    6    2      0.77      0.00
    1    6    1      0.48      0.00
    1    6    0      0.12      0.00
   -1   -6    1      1.27      0.00
   -1   -6    2      2.78      0.00
   -1   -6    3      3.33      0.00
   -1   -6    4      3.00      0.00
   -1   -6    5      1.44      0.00
   -1   -6    6     -0.16      0.00
   -1   -6    7      0.00      0.00
   -1   -6    8      0.45      0.00
   -1   -6    9     -0.28      0.00
   -1   -6   10     -0.53      0.00
    1    5   11     -2.53      0.00
    1    5   10     -1.34      0.00
    1    5    9     -1.81      0.00
    1    5    8     -4.48      0.00
    1    5    7     -4.75      0.00
    1    5    6     -1.94      0.00
    1    5    5     -1.42      0.00
    1    5    4     -5.08      0.00
    1    5    3     -9.36      0.00
    1    5    2    -11.32      0.00
    1    5    1    -11.00      0.00
    1    5    0     -8.88      0.00
   -1   -5    1     -5.32      0.00
   -1   -5    2     -2.24      0.00
   -1   -5    3     -0.87      0.00
   -1   -5    4      0.18      0.00
   -1   -5    5      0.96      0.00
   -1   -5    6      0.14      0.00
   -1   -5    7     -0.88      0.00
   -1   -5    8     -0.44      0.00
   -1   -5    9      0.08      0.00
   -1   -5   10     -0.46      0.00
   -1   -5   11     -0.75      0.00
    1    4   12     -6.53      0.00
    1    4   11     -7.49      0.00
    1    4   10     -7.11      0.00
    1    4    9     -4.14      0.00
    1    4    8     -1.85      0.00
    1    4    7     -2.47      0.00
    1    4    6     -3.85      0.00
    1    4    5     -4.78      0.00
    1    4    4     -6.00      0.00
    1    4    3     -6.99      0.00
    1    4    2     -6.34      0.00
    1    4    1     -4.28      0.00
    1    4    0     -2.37      0.00
   -1   -4    1     -0.64      0.00
   -1   -4    2      1.13      0.00
   -1   -4    3      1.63      0.00
   -1   -4    4      1.20      0.00
   -1   -4    5      0.91      0.00
   -1   -4    6     -0.04      0.00
   -1   -4    7     -1.17      0.00
   -1   -4    8     -0.75      0.00
   -1   -4    9      0.53      0.00
   -1   -4   10      0.85      0.00
   -1   -4   11     -0.06      0.00
   -1   -4   12     -0.66      0.00
    1    3   12      0.16      0.00
    1    3   11      0.02      0.00
    1    3   10     -0.91      0.00
    1    3    9     -0.37      0.00
    1    3    8      3.14      0.00
    1    3    7      7.49      0.00
    1    3    6      9.27      0.00
    1    3    5      7.47      0.00
    1    3    4      4.81      0.00
    1    3    3      3.78      0.00
    1    3    2      4.48      0.00
    1    3    1      7.08      0.00
    1    3    0      9.63      0.00
   -1   -3    1      8.37      0.00
   -1   -3    2      4.33      0.00
   -1   -3    3      1.05      0.00
   -1   -3    4     -0.32      0.00
   -1   -3    5     -0.05      0.00
   -1   -3    6     -0.45      0.00
   -1   -3    7     -2.64      0.00
   -1   -3    8     -3.53      0.00
   -1   -3    9     -2.14      0.00
   -1   -3   10     -0.88      0.00
   -1   -3   11     -0.40      0.00
   -1   -3   12     -0.34      0.00
    1    2   12      3.56      0.00
    1    2   11      4.57      0.00
    1    2   10      4.38      0.00
    1    2    9      3.02      0.00
    1    2    8      1.23      0.00
    1    2    7      1.25      0.00
    1    2    6      4.14      0.00
    1    2    5      6.27      0.00
    1    2    4      5.36      0.00
    1    2    3      3.69      0.00
    1    2    2      0.24      0.00
    1    2    1     -4.97      0.00
    1    2    0     -5.25      0.00
   -1   -2    1     -1.33      0.00
   -1   -2    2     -1.36      0.00
   -1   -2    3     -5.18      0.00
   -1   -2    4     -7.32      0.00
   -1   -2    5     -5.68      0.00
   -1   -2    6     -1.82      0.00
   -1   -2    7     -0.19      0.00
   -1   -2    8     -1.64      0.00
   -1   -2    9     -2.26      0.00
   -1   -2   10     -1.36      0.00
   -1   -2   11     -0.33      0.00
   -1   -2   12      0.75      0.00
   -1   -2   13      0.95      0.00
    1    1   11     -1.74      0.00
    1    1   10     -2.31      0.00
    1    1    9     -2.63      0.00
    1    1    8     -3.75      0.00
    1    1    7     -7.54      0.00
    1    1    6    -10.83      0.00
    1    1    5     -9.62      0.00
    1    1    4     -5.75      0.00
    1    1    3     -0.41      0.00
    1    1    2      2.87      0.00
    1    1    1     -5.62      0.00
    1    1    0    -20.18      0.00
   -1   -1    1    -21.65      0.00
   -1   -1    2    -10.90      0.00
   -1   -1    3     -3.13      0.00
   -1   -1    4     -1.56      0.00
   -1   -1    5     -1.81      0.00
   -1   -1    6     -1.07      0.00
   -1   -1    7      1.34      0.00
   -1   -1    8      2.94      0.00
   -1   -1    9      2.84      0.00
   -1   -1   10      2.68      0.00
   -1   -1   11      2.59      0.00
   -1   -1   12      2.72      0.00
   -1   -1   13      2.78      0.00
   -1   -1   14      1.70      0.00
    1    0   11     -3.22      0.00
    1    0   10     -3.94      0.00
    1    0    9     -4.55      0.00
    1    0    8     -3.19      0.00
    1    0    7     -1.45      0.00
    1    0    6     -2.71      0.00
    1    0    5     -3.69      0.00
    1    0    4     -0.93      0.00
    1    0    3      4.94      0.00
    1    0    2     15.49      0.00
    1    0    1     22.77      0.00
    1    0    0     11.84      0.00
   -1    0    1     -7.20      0.00
   -1    0    2    -11.08      0.00
   -1    0    3     -1.52      0.00
   -1    0    4      6.74      0.00
   -1    0    5      8.98      0.00
   -1    0    6      5.97      0.00
   -1    0    7      1.38      0.00
   -1    0    8     -0.15      0.00
   -1    0    9      0.89      0.00
   -1    0   10      1.88      0.00
   -1    0   11      1.69      0.00
   -1    0   12      0.88      0.00
   -1    0   13      0.66      0.00
   -1    0   14      0.57      0.00
    1   -1   10      2.48      0.00
    1   -1    9      3.35      0.00
    1   -1    8      2.85      0.00
    1   -1    7      4.21      0.00
    1   -1    6      7.25      0.00
    1   -1    5      9.16      0.00
    1   -1    4     10.45      0.00
    1   -1    3      9.85      0.00
    1   -1    2      9.05      0.00
    1   -1    1     16.52      0.00
   -1    1    0     25.63      0.00
   -1    1    1     19.20      0.00
   -1    1    2      2.83      0.00
   -1    1    3     -5.80      0.00
   -1    1    4     -4.65      0.00
   -1    1    5     -0.10      0.00
   -1    1    6      2.55      0.00
   -1    1    7     -0.01      0.00
   -1    1    8     -4.44      0.00
   -1    1    9     -5.94      0.00
   -1    1   10     -5.07      0.00
   -1    1   11     -4.24      0.00
   -1    1   12     -3.86      0.00
   -1    1   13     -2.90      0.00
   -1    1   14     -1.69      0.00
   -1    1   15     -1.32      0.00
    1   -2    9      3.77      0.00
    1   -2    8      4.34      0.00
    1   -2    7      1.52      0.00
    1   -2    6     -0.80      0.00
    1   -2    5     -0.54      0.00
    1   -2    4      0.60      0.00
    1   -2    3     -0.15      0.00
    1   -2    2     -6.29      0.00
    1   -2    1    -12.39      0.00
   -1    2    0     -7.41      0.00
   -1    2    1      3.00      0.00
   -1    2    2      4.50      0.00
   -1    2    3     -1.99      0.00
   -1    2    4     -7.86      0.00
   -1    2    5     -9.45      0.00
   -1    2    6     -6.56      0.00
   -1    2    7     -2.75      0.00
   -1    2    8     -1.72      0.00
   -1    2    9     -2.54      0.00
   -1    2   10     -3.23      0.00
   -1    2   11     -3.41      0.00
   -1    2   12     -3.28      0.00
   -1    2   13     -2.28      0.00
   -1    2   14     -0.15      0.00
   -1    2   15      0.92      0.00
    1   -3    9     -2.29      0.00
    1   -3    8     -0.87      0.00
    1   -3    6     -5.04      0.00
    1   -3    5     -8.88      0.00
    1   -3    4     -9.92      0.00
    1   -3    3     -8.73      0.00
    1   -3    2     -8.14      0.00
    1   -3    1    -10.45      0.00
   -1    3    0    -11.58      0.00
   -1    3    1     -6.50      0.00
   -1    3    2      1.35      0.00
   -1    3    3      6.62      0.00
   -1    3    4      8.17      0.00
   -1    3    5      6.04      0.00
   -1    3    6      2.87      0.00
   -1    3    7      2.38      0.00
   -1    3    8      4.38      0.00
   -1    3    9      6.45      0.00
   -1    3   10      6.82      0.00
   -1    3   11      5.69      0.00
   -1    3   12      4.33      0.00
   -1    3   13      2.79      0.00
   -1    3   14      1.89      0.00
   -1    3   15      2.53      0.00
   -1    3   16      2.52      0.00
    1   -4    8     -1.05      0.00
    1   -4    7      0.09      0.00
    1   -4    6      0.21      0.00
    1   -4    5     -1.34      0.00
    1   -4    4     -2.74      0.00
    1   -4    3     -2.32      0.00
    1   -4    2     -0.35      0.00
    1   -4    1      2.12      0.00
   -1    4    0      4.76      0.00
   -1    4    1      7.63      0.00
   -1    4    2      9.72      0.00
   -1    4    3     10.81      0.00
   -1    4    4     11.91      0.00
   -1    4    5     11.70      0.00
   -1    4    6      9.16      0.00
   -1    4    7      6.42      0.00
   -1    4    8      4.96      0.00
   -1    4    9      4.91      0.00
   -1    4   10      5.90      0.00
   -1    4   11      6.16      0.00
   -1    4   12      5.39      0.00
   -1    4   13      4.15      0.00
   -1    4   14      1.81      0.00
   -1    4   15     -0.22      0.00
   -1    4   16     -0.25      0.00
    1   -5    8      1.84      0.00
    1   -5    7      2.39      0.00
    1   -5    6      2.71      0.00
    1   -5    5      2.60      0.00
    1   -5    4      2.03      0.00
    1   -5    3      1.46      0.00
    1   -5    2      1.02      0.00
    1   -5    1      0.07      0.00
   -1    5    0     -0.52      0.00
   -1    5    1      1.12      0.00
   -1    5    2      3.28      0.00
   -1    5    3      2.51      0.00
   -1    5    4     -0.40      0.00
   -1    5    5     -3.03      0.00
   -1    5    6     -4.62      0.00
   -1    5    7     -3.95      0.00
   -1    5    8     -2.03      0.00
   -1    5    9     -2.03      0.00
   -1    5   10     -3.08      0.00
   -1    5   11     -2.84      0.00
   -1    5   12     -2.08      0.00
   -1    5   13     -1.54      0.00
   -1    5   14     -1.42      0.00
   -1    5   15     -2.38      0.00
   -1    5   16     -3.19      0.00
   -1    5   17     -2.62      0.00
    1   -6    7      1.01      0.00
    1   -6    6      0.36      0.00
    1   -6    5     -0.74      0.00
    1   -6    4     -1.86      0.00
    1   -6    3     -3.17      0.00
    1   -6    2     -4.28      0.00
    1   -6    1     -5.32      0.00
   -1    6    0     -7.72      0.00
   -1    6    1    -10.24      0.00
   -1    6    2     -9.73      0.00
   -1    6    3     -7.29      0.00
   -1    6    4     -6.29      0.00
   -1    6    5     -7.18      0.00
   -1    6    6     -8.85      0.00
   -1    6    7     -9.17      0.00
   -1    6    8     -6.16      0.00
   -1    6    9     -2.46      0.00
   -1    6   10     -1.60      0.00
   -1    6   11     -2.20      0.00
   -1    6   12     -2.12      0.00
   -1    6   13     -1.78      0.00
   -1    6   14     -1.49      0.00
   -1    6   15     -1.35      0.00
   -1    6   16     -1.60      0.00
   -1    6   17     -1.61      0.00
    1   -7    6     -0.50      0.00
    1   -7    5     -1.50      0.00
    1   -7    4     -2.36      0.00
    1   -7    3     -2.96      0.00
    1   -7    2     -3.55      0.00
    1   -7    1     -3.28      0.00
   -1    7    0     -2.29      0.00
   -1    7    1     -2.71      0.00
   -1    7    2     -4.17      0.00
   -1    7    3     -3.75      0.00
   -1    7    4     -1.21      0.00
   -1    7    5      1.17      0.00
   -1    7    6      1.49      0.00
   -1    7    7     -0.35      0.00
   -1    7    8     -1.50      0.00
   -1    7    9      0.53      0.00
   -1    7   10      3.85      0.00
   -1    7   11      5.38      0.00
   -1    7   12      4.84      0.00
   -1    7   13      3.52      0.00
   -1    7   14      2.23      0.00
   -1    7   15      1.18      0.00
   -1    7   16      0.46      0.00
   -1    7   17      0.10      0.00
    1   -8    5      1.37      0.00
    1   -8    4      1.39      0.00
    1   -8    3      1.30      0.00
    1   -8    2      1.28      0.00
    1   -8    1      1.49      0.00
   -1    8    0      2.36      0.00
   -1    8    1      4.17      0.00
   -1    8    2      5.50      0.00
   -1    8    3      4.86      0.00
   -1    8    4      3.10      0.00
   -1    8    5      2.30      0.00
   -1    8    6      2.82      0.00
   -1    8    7      2.65      0.00
   -1    8    8      0.94      0.00
   -1    8    9     -0.31      0.00
   -1    8   10      0.77      0.00
   -1    8   11      3.07      0.00
   -1    8   12      3.91      0.00
   -1    8   13      2.62      0.00
   -1    8   14      1.02      0.00
   -1    8   15      0.10      0.00
   -1    8   16     -0.52      0.00
   -1    8   17     -0.71      0.00
    1   -9    4      1.97      0.00
    1   -9    3      2.10      0.00
    1   -9    2      1.44      0.00
    1   -9    1      0.89      0.00
   -1    9    0      0.44      0.00
   -1    9    1      0.28      0.00
   -1    9    2      1.88      0.00
   -1    9    3      3.95      0.00
   -1    9    4      2.93      0.00
   -1    9    5     -0.64      0.00
   -1    9    6     -2.80      0.00
   -1    9    7     -2.68      0.00
   -1    9    8     -2.37      0.00
   -1    9    9     -2.80      0.00
   -1    9   10     -3.51      0.00
   -1    9   11     -3.53      0.00
   -1    9   12     -2.43      0.00
   -1    9   13     -1.62      0.00
   -1    9   14     -1.75      0.00
   -1    9   15     -1.67      0.00
   -1    9   16     -1.30      0.00
   -1    9   17     -1.11      0.00
    1  -10    3     -0.21      0.00
    1  -10    2     -0.35      0.00
    1  -10    1     -1.12      0.00
   -1   10    0     -1.80      0.00
   -1   10    1     -2.66      0.00
   -1   10    2     -3.02      0.00
   -1   10    3     -1.24      0.00
   -1   10    4      0.77      0.00
   -1   10    5      0.35      0.00
   -1   10    6     -0.83      0.00
   -1   10    7     -0.93      0.00
   -1   10    8     -1.06      0.00
   -1   10    9     -1.12      0.00
   -1   10   10     -0.63      0.00
   -1   10   11     -1.11      0.00
   -1   10   12     -2.07      0.00
   -1   10   13     -1.32      0.00
   -1   10   14      0.20      0.00
   -1   10   15      0.68      0.00
   -1   10   16      0.52      0.00
   -1   10   17      0.36      0.00
    1  -11    2     -0.22      0.00
    1  -11    1      0.24      0.00
   -1   11    0      0.33      0.00
   -1   11    1      0.30      0.00
   -1   11    2     -0.41      0.00
   -1   11    3     -0.80      0.00
   -1   11    4      0.63      0.00
   -1   11    5      2.35      0.00
   -1   11    6      3.11      0.00
   -1   11    7      3.84      0.00
   -1   11    8      3.88      0.00
   -1   11    9      2.77      0.00
   -1   11   10      2.63      0.00
   -1   11   11      3.18      0.00
   -1   11   12      1.95      0.00
   -1   11   13      0.43      0.00
   -1   11   14      1.08      0.00
   -1   11   15      2.09      0.00
   -1   11   16      1.49      0.00
   -1   11   17      0.46      0.00
    1  -12    1      0.95      0.00
   -1   12    0      1.95      0.00
   -1   12    1      2.82      0.00
   -1   12    2      2.95      0.00
   -1   12    3      1.66      0.00
   -1   12    4      0.63      0.00
   -1   12    5      1.30      0.00
   -1   12    6      2.28      0.00
   -1   12    7      2.69      0.00
   -1   12    8      2.95      0.00
   -1   12    9      2.58      0.00
   -1   12   10      1.83      0.00
   -1   12   11      1.67      0.00
   -1   12   12      1.32      0.00
   -1   12   13      0.14      0.00
   -1   12   14     -0.47      0.00
   -1   12   15     -0.04      0.00
   -1   12   16      0.07      0.00
   -1   13    0     -0.14      0.00
   -1   13    1      0.81      0.00
   -1   13    2      1.28      0.00
   -1   13    3      0.55      0.00
   -1   13    4     -0.75      0.00
   -1   13    5     -1.05      0.00
   -1   13    6     -0.40      0.00
   -1   13    7      0.15      0.00
   -1   13    8      0.45      0.00
   -1   13    9      0.40      0.00
   -1   13   10      0.07      0.00
   -1   13   11      0.12      0.00
   -1   13   12      0.49      0.00
   -1   13   13      0.69      0.00
   -1   13   14      0.62      0.00
   -1   13   15      0.21      0.00
   -1   14    1     -0.99      0.00
   -1   14    2     -0.91      0.00
   -1   14    3     -1.54      0.00
   -1   14    4     -2.48      0.00
   -1   14    5     -2.25      0.00
   -1   14    6     -0.93      0.00
   -1   14    7      0.14      0.00
   -1   14    8      0.73      0.00
   -1   14    9      0.46      0.00
   -1   14   10     -0.82      0.00
   -1   14   11     -1.09      0.00
   -1   14   12      0.47      0.00
   -1   14   13      1.77      0.00
   -1   15    2      0.09      0.00
   -1   15    3     -0.15      0.00
   -1   15    4     -1.08      0.00
   -1   15    5     -1.85      0.00
   -1   15    6     -1.18      0.00
   -1   15    7      0.03      0.00
   -1   15    8      0.78      0.00
   -1   15    9      0.93      0.00
   -1   15   10     -0.48      0.00
   -1   15   11     -2.30      0.00
   -1   16    3      0.96      0.00
   -1   16    4      0.90      0.00
   -1   16    5     -0.11      0.00
   -1   16    6     -0.97      0.00
   -1   16    7     -0.93      0.00
   -1   16    8     -0.69      0.00
    0   14    3      0.18      0.00
    0   14    2      0.03      0.00
    0   14    1      0.22      0.00
    0   14    0      0.71      0.00
    0  -14    1      0.73      0.00
    0  -14    2     -0.18      0.00
    0   13    8     -0.81      0.00
    0   13    7     -0.71      0.00
    0   13    6     -1.39      0.00
    0   13    5     -1.87      0.00
    0   13    4     -1.55      0.00
    0   13    3     -1.32      0.00
    0   13    2     -1.48      0.00
    0   13    1     -1.35      0.00
    0   13    0     -0.85      0.00
    0  -13    1     -0.16      0.00
    0  -13    2      0.02      0.00
    0  -13    3     -0.92      0.00
    0  -13    4     -1.60      0.00
    0   12    8      1.22      0.00
    0   12    7      0.64      0.00
    0   12    6      0.10      0.00
    0   12    5     -0.90      0.00
    0   12    4     -1.35      0.00
    0   12    3     -0.82      0.00
    0   12    2     -0.52      0.00
    0   12    1     -0.47      0.00
    0   12    0     -0.41      0.00
    0  -12    1     -0.62      0.00
    0  -12    2     -0.41      0.00
    0  -12    3      0.23      0.00
    0  -12    4      0.13      0.00
    0  -12    5     -0.18      0.00
    0   11   10      2.59      0.00
    0   11    9      4.00      0.00
    0   11    8      4.51      0.00
    0   11    7      3.32      0.00
    0   11    6      3.06      0.00
    0   11    5      2.85      0.00
    0   11    4      1.09      0.00
    0   11    3     -0.04      0.00
    0   11    2      0.22      0.00
    0   11    1      0.27      0.00
    0   11    0      0.14      0.00
    0  -11    1      0.00      0.00
    0  -11    2     -0.60      0.00
    0  -11    3     -0.64      0.00
    0  -11    4      0.01      0.00
    0  -11    5      0.06      0.00
    0  -11    6     -0.12      0.00
    0   10   12      0.94      0.00
    0   10   11      2.76      0.00
    0   10   10      2.20      0.00
    0   10    9      1.63      0.00
    0   10    8      2.50      0.00
    0   10    7      2.47      0.00
    0   10    6      2.14      0.00
    0   10    5      2.71      0.00
    0   10    4      1.60      0.00
    0   10    3     -1.15      0.00
    0   10    2     -1.87      0.00
    0   10    1     -0.75      0.00
    0   10    0     -0.15      0.00
    0  -10    1      0.23      0.00
    0  -10    2      0.26      0.00
    0  -10    3     -0.78      0.00
    0  -10    4     -1.38      0.00
    0  -10    5     -1.09      0.00
    0  -10    6     -1.18      0.00
    0  -10    7     -1.19      0.00
    0    9   12     -5.26      0.00
    0    9   11     -4.34      0.00
    0    9   10     -2.63      0.00
    0    9    9     -2.08      0.00
    0    9    8     -1.70      0.00
    0    9    7     -1.64      0.00
    0    9    6     -2.37      0.00
    0    9    5     -1.76      0.00
    0    9    4     -0.19      0.00
    0    9    3     -0.81      0.00
    0    9    2     -2.32      0.00
    0    9    1     -1.15      0.00
    0    9    0      1.14      0.00
    0   -9    1      1.89      0.00
    0   -9    2      1.96      0.00
    0   -9    3      1.66      0.00
    0   -9    4      0.67      0.00
    0   -9    5      0.38      0.00
    0   -9    6      0.59      0.00
    0   -9    7     -0.08      0.00
    0   -9    8     -0.58      0.00
    0    8   12     -2.27      0.00
    0    8   11     -4.15      0.00
    0    8   10     -4.15      0.00
    0    8    9     -2.08      0.00
    0    8    8      0.49      0.00
    0    8    7      1.31      0.00
    0    8    6     -0.83      0.00
    0    8    5     -3.02      0.00
    0    8    4     -1.47      0.00
    0    8    3      2.00      0.00
    0    8    2      2.94      0.00
    0    8    1      2.16      0.00
    0    8    0      2.70      0.00
    0   -8    1      3.31      0.00
    0   -8    2      2.61      0.00
    0   -8    3      2.19      0.00
    0   -8    4      2.10      0.00
    0   -8    5      1.57      0.00
    0   -8    6      1.55      0.00
    0   -8    7      1.72      0.00
    0   -8    8      1.17      0.00
    0   -8    9      0.83      0.00
    0    7   11      4.16      0.00
    0    7   10      2.06      0.00
    0    7    9      0.76      0.00
    0    7    8      2.09      0.00
    0    7    7      4.71      0.00
    0    7    6      4.65      0.00
    0    7    5      1.30      0.00
    0    7    4     -1.53      0.00
    0    7    3     -0.95      0.00
    0    7    2      1.26      0.00
    0    7    1      1.66      0.00
    0    7    0      0.31      0.00
    0   -7    1     -0.78      0.00
    0   -7    2     -1.48      0.00
    0   -7    3     -1.74      0.00
    0   -7    4     -1.40      0.00
    0   -7    5     -1.81      0.00
    0   -7    6     -2.52      0.00
    0   -7    7     -1.67      0.00
    0   -7    8     -0.40      0.00
    0   -7    9     -0.14      0.00
    0   -7   10      0.06      0.00
    0    6   11      3.52      0.00
    0    6   10      3.39      0.00
    0    6    9      1.11      0.00
    0    6    8     -2.34      0.00
    0    6    7     -2.89      0.00
    0    6    6     -1.07      0.00
    0    6    5     -0.69      0.00
    0    6    4     -2.60      0.00
    0    6    3     -5.34      0.00
    0    6    2     -6.94      0.00
    0    6    1     -6.40      0.00
    0    6    0     -5.22      0.00
    0   -6    1     -5.08      0.00
    0   -6    2     -5.62      0.00
    0   -6    3     -5.54      0.00
    0   -6    4     -4.27      0.00
    0   -6    5     -3.29      0.00
    0   -6    6     -3.57      0.00
    0   -6    7     -3.14      0.00
    0   -6    8     -1.44      0.00
    0   -6    9     -1.13      0.00
    0   -6   10     -2.24      0.00
    0    5   12     -2.67      0.00
    0    5   11     -3.60      0.00
    0    5   10     -2.92      0.00
    0    5    9     -1.34      0.00
    0    5    8     -2.75      0.00
    0    5    7     -5.81      0.00
    0    5    6     -5.79      0.00
    0    5    5     -2.65      0.00
    0    5    4      0.87      0.00
    0    5    3      2.55      0.00
    0    5    2      1.62      0.00
    0    5    1      0.21      0.00
    0    5    0      0.51      0.00
    0   -5    1      1.42      0.00
    0   -5    2      1.08      0.00
    0   -5    3     -0.14      0.00
    0   -5    4     -0.41      0.00
    0   -5    5      0.55      0.00
    0   -5    6      1.21      0.00
    0   -5    7      1.39      0.00
    0   -5    8      1.91      0.00
    0   -5    9      1.70      0.00
    0   -5   10     -0.32      0.00
    0   -5   11     -2.15      0.00
    0    4   13     -0.51      0.00
    0    4   12     -0.96      0.00
    0    4   11     -1.62      0.00
    0    4   10     -2.43      0.00
    0    4    9     -1.21      0.00
    0    4    8      1.51      0.00
    0    4    7      2.88      0.00
    0    4    6      3.38      0.00
    0    4    5      5.10      0.00
    0    4    4      8.51      0.00
    0    4    3     12.33      0.00
    0    4    2     14.41      0.00
    0    4    1     14.53      0.00
    0    4    0     13.50      0.00
    0   -4    1     10.96      0.00
    0   -4    2      7.39      0.00
    0   -4    3      4.35      0.00
    0   -4    4      2.71      0.00
    0   -4    5      2.41      0.00
    0   -4    6      2.07      0.00
    0   -4    7      1.01      0.00
    0   -4    8      0.46      0.00
    0   -4    9      0.55      0.00
    0   -4   10      0.27      0.00
    0   -4   11     -0.36      0.00
    0   -4   12     -0.67      0.00
    0    3   12      2.14      0.00
    0    3   11      3.18      0.00
    0    3   10      3.14      0.00
    0    3    9      1.90      0.00
    0    3    8      0.61      0.00
    0    3    7      0.63      0.00
    0    3    6      2.30      0.00
    0    3    5      3.14      0.00
    0    3    4      0.83      0.00
    0    3    3     -3.21      0.00
    0    3    2     -7.03      0.00
    0    3    1     -8.25      0.00
    0    3    0     -4.97      0.00
    0   -3    1     -2.16      0.00
    0   -3    2     -4.75      0.00
    0   -3    3     -8.90      0.00
    0   -3    4     -9.95      0.00
    0   -3    5     -7.93      0.00
    0   -3    6     -5.07      0.00
    0   -3    7     -4.24      0.00
    0   -3    8     -5.16      0.00
    0   -3    9     -4.88      0.00
    0   -3   10     -3.10      0.00
    0   -3   11     -1.15      0.00
    0   -3   12      0.16      0.00
    0    2   12     -1.39      0.00
    0    2   11     -0.35      0.00
    0    2   10      0.37      0.00
    0    2    9      0.59      0.00
    0    2    8     -1.76      0.00
    0    2    7     -7.44      0.00
    0    2    6    -11.89      0.00
    0    2    5    -12.56      0.00
    0    2    4    -13.50      0.00
    0    2    3    -15.71      0.00
    0    2    2    -18.22      0.00
    0    2    0    -27.57      0.00
    0   -2    1    -23.12      0.00
    0   -2    2    -17.38      0.00
    0   -2    3    -17.15      0.00
    0   -2    4    -17.90      0.00
    0   -2    5    -15.98      0.00
    0   -2    6    -11.41      0.00
    0   -2    7     -5.54      0.00
    0   -2    8     -2.28      0.00
    0   -2    9     -2.15      0.00
    0   -2   10     -1.85      0.00
    0   -2   11     -0.40      0.00
    0   -2   12      1.11      0.00
    0   -2   13      1.59      0.00
    0    1   11     -2.36      0.00
    0    1   10     -2.36      0.00
    0    1    9     -1.50      0.00
    0    1    8      0.51      0.00
    0    1    7     -0.02      0.00
    0    1    6     -4.46      0.00
    0    1    5     -7.59      0.00
    0    1    4     -6.09      0.00
    0    1    3      3.05      0.00
    0   -1    2      3.58      0.00
    0   -1    3      1.92      0.00
    0   -1    4      1.00      0.00
    0   -1    5      0.17      0.00
    0   -1    6     -0.48      0.00
    0   -1    7      0.54      0.00
    0   -1    8      3.92      0.00
    0   -1    9      5.68      0.00
    0   -1   10      4.39      0.00
    0   -1   11      2.64      0.00
    0   -1   12      1.77      0.00
    0   -1   13      1.38      0.00
    0   -1   14      0.78      0.00
    0    0   11      2.03      0.00
    0    0   10      3.39      0.00
    0    0    9      3.62      0.00
    0    0    8      4.25      0.00
    0    0    7      7.16      0.00
    0    0    6      9.76      0.00
    0    0    5     10.20      0.00
    0    0    4     11.42      0.00
    0    0    3     17.73      0.00
    0    0    2     39.39      0.00
    0    0   12      0.40      0.00
    0    0   13     -0.61      0.00
    0    0   14     -1.02      0.00
    0    1   12     -2.63      0.00
    0    1   13     -2.35      0.00
    0    1   14     -1.15      0.00
    0    1   15     -0.41      0.00
    0    2   13     -2.14      0.00
    0    2   14     -0.85      0.00
    0    2   15      1.37      0.00
    0    3   13      0.70      0.00
    0    3   14     -0.36      0.00
    0    3   15      0.25      0.00
    0    3   16      1.29      0.00
    0    4   14     -0.21      0.00
    0    4   15     -0.63      0.00
    0    4   16     -0.63      0.00
    0    5   13     -1.75      0.00
    0    5   14     -0.51      0.00
    0    5   15      0.52      0.00
    0    5   16      0.42      0.00
    0    5   17      0.27      0.00
    0    6   12      3.48      0.00
    0    6   13      3.03      0.00
    0    6   14      2.11      0.00
    0    6   15      1.98      0.00
    0    6   16      2.05      0.00
    0    6   17      1.33      0.00
    0    6   18      0.59      0.00
    0    7   12      5.35      0.00
    0    7   13      4.73      0.00
    0    7   14      2.62      0.00
    0    7   15      0.83      0.00
    0    7   16      0.31      0.00
    0    7   17      0.05      0.00
    0    7   18     -0.54      0.00
    0    8   13     -0.89      0.00
    0    8   14     -1.12      0.00
    0    8   15     -1.56      0.00
    0    8   16     -1.45      0.00
    0    9   13     -3.84      0.00
    0    9   14     -2.11      0.00
    0    9   15     -0.90      0.00
    0    9   16      0.38      0.00
    0    9   17      0.91      0.00
    0   10   13     -0.40      0.00
    0   10   14      0.58      0.00
    0   10   15      1.58      0.00
    0   10   16      1.83      0.00
    0   10   17      1.94      0.00
    0   10   18      1.44      0.00
    0   11   11      3.08      0.00
    0   11   12      3.32      0.00
    0   11   13      1.53      0.00
    0   11   14      0.50      0.00
    0   11   15      0.95      0.00
    0   11   16      0.81      0.00
    0   11   17      0.14      0.00
    0   12    9      1.30      0.00
    0   12   10      0.14      0.00
    0   12   11     -0.40      0.00
    0   12   12      0.23      0.00
    0   12   13     -0.18      0.00
    0   12   14     -1.42      0.00
    0   12   15     -1.48      0.00
    0   12   16     -0.79      0.00
    0   13    9     -1.69      0.00
    0   13   10     -2.60      0.00
    0   13   11     -2.36      0.00
    0   13   12     -1.09      0.00
    0   13   13     -0.57      0.00
    0   13   14     -1.07      0.00
    0   13   15     -1.16      0.00
    0   14    4      0.08      0.00
    0   14    5     -0.32      0.00
    0   14    6     -0.20      0.00
    0   14    7      0.33      0.00
    0   14    8      0.33      0.00
    0   14    9     -0.52      0.00
    0   14   10     -1.79      0.00
    0   14   11     -2.23      0.00
    0   14   12     -1.06      0.00
    0   14   13      0.15      0.00
    0   15    2      0.87      0.00
    0   15    3      0.59      0.00
    0   15    4      0.30      0.00
    0   15    5     -0.05      0.00
    0   15    6     -0.36      0.00
    0   15    7     -0.38      0.00
    0   15    8     -0.12      0.00
    0   15    9      0.48      0.00
    0   15   10      0.86      0.00
    0   15   11      0.28      0.00
    0   15   12     -0.17      0.00
    0   16    3     -1.01      0.00
    0   16    4     -1.61      0.00
    0   16    5     -1.55      0.00
    0   16    6     -1.19      0.00
    0   16    7     -1.39      0.00
    0   16    8     -2.00      0.00
    0   16    9     -1.73      0.00
    0   17    5     -1.34      0.00
    1  -13    1     -0.39      0.00
    1  -13    2      0.75      0.00
    1  -13    3      1.75      0.00
    1  -12    2      0.47      0.00
    1  -12    3      1.21      0.00
    1  -12    4      1.71      0.00
    1  -12    5      0.96      0.00
    1  -11    3     -0.57      0.00
    1  -11    4     -0.04      0.00
    1  -11    5      0.16      0.00
    1  -11    6     -0.42      0.00
    1  -10    4     -0.22      0.00
    1  -10    5      0.56      0.00
    1  -10    6      0.95      0.00
    1  -10    7      0.34      0.00
    1   -9    5      1.88      0.00
    1   -9    6      2.82      0.00
    1   -9    7      3.09      0.00
    1   -9    8      1.80      0.00
    1   -8    6      1.65      0.00
    1   -8    7      1.96      0.00
    1   -8    8      1.09      0.00
    1   -8    9     -0.24      0.00
    1   -7    7     -0.07      0.00
    1   -7    8     -0.61      0.00
    1   -7    9     -1.64      0.00
    1   -7   10     -1.59      0.00
    1   -6    8      0.99      0.00
    1   -6    9      0.65      0.00
    1   -6   10      0.10      0.00
    1   -5    9      1.44      0.00
    1   -5   10      1.18      0.00
    1   -5   11      0.37      0.00
    1   -4    9     -1.67      0.00
    1   -4   10     -1.51      0.00
    1   -4   11     -1.11      0.00
    1   -4   12     -1.06      0.00
    1   -3    7     -1.25      0.00
    1   -3   10     -2.29      0.00
    1   -3   11     -0.90      0.00
    1   -3   12      0.26      0.00
    1   -2   10      1.53      0.00
    1   -2   11      1.11      0.00
    1   -2   12      1.96      0.00
    1   -2   13      2.08      0.00
    1   -1   11      0.88      0.00
    1   -1   12      0.54      0.00
    1   -1   13      0.70      0.00
    1   -1   14      0.39      0.00
    1    0   12     -2.41      0.00
    1    0   13     -1.15      0.00
    1    0   14     -0.54      0.00
    1    1   12     -1.34      0.00
    1    1   13     -0.58      0.00
    1    1   14      0.50      0.00
    1    1   15      0.55      0.00
    1    2   13      1.89      0.00
    1    2   14      0.86      0.00
    1    2   15      0.96      0.00
    1    3   13     -0.51      0.00
    1    3   14     -1.40      0.00
    1    3   15     -1.66      0.00
    1    3   16     -0.68      0.00
    1    4   13     -5.62      0.00
    1    4   14     -4.27      0.00
    1    4   15     -3.24      0.00
    1    4   16     -2.55      0.00
    1    5   12     -2.93      0.00
    1    5   13     -2.74      0.00
    1    5   14     -1.86      0.00
    1    5   15     -0.56      0.00
    1    5   16     -0.49      0.00
    1    5   17     -0.91      0.00
    1    6   11      2.51      0.00
    1    6   12      2.28      0.00
    1    6   13      2.22      0.00
    1    6   14      2.06      0.00
    1    6   15      1.96      0.00
    1    6   16      1.70      0.00
    1    6   17      0.73      0.00
    1    7   11     -3.65      0.00
    1    7   12     -3.03      0.00
    1    7   13     -1.03      0.00
    1    7   14      0.57      0.00
    1    7   15      0.87      0.00
    1    7   16      0.55      0.00
    1    7   17      0.35      0.00
    1    7   18      0.15      0.00
    1    8   11     -5.33      0.00
    1    8   12     -7.31      0.00
    1    8   13     -5.50      0.00
    1    8   14     -2.86      0.00
    1    8   15     -1.11      0.00
    1    8   16      0.00      0.00
    1    8   17      0.37      0.00
    1    8   18      0.28      0.00
    1    9   11      0.73      0.00
    1    9   12     -1.62      0.00
    1    9   13     -2.17      0.00
    1    9   14     -1.12      0.00
    1    9   15     -0.80      0.00
    1    9   16     -0.04      0.00
    1    9   17      1.13      0.00
    1   10   12      1.89      0.00
    1   10   13      1.04      0.00
    1   10   14      1.06      0.00
    1   10   15      1.03      0.00
    1   10   16      0.21      0.00
    1   11   11     -0.37      0.00
    1   11   12      0.14      0.00
    1   11   13     -0.37      0.00
    1   11   14     -1.13      0.00
    1   11   15     -0.46      0.00
    1   11   16      0.08      0.00
    1   12   10      1.28      0.00
    1   12   11      0.06      0.00
    1   12   12     -0.38      0.00
    1   12   13     -0.70      0.00
    1   12   14     -1.73      0.00
    1   12   15     -1.99      0.00
    1   12   16     -1.03      0.00
    1   13    7      0.57      0.00
    1   13    8      1.76      0.00
    1   13    9      1.37      0.00
    1   13   10      0.04      0.00
    1   13   11     -1.15      0.00
    1   13   12     -1.25      0.00
    1   13   13     -0.48      0.00
    1   13   14     -0.17      0.00
    1   13   15     -0.43      0.00
    1   14    8      1.37      0.00
    1   14    9      2.42      0.00
    1   14   10      0.92      0.00
    1   14   11     -1.09      0.00
    1   14   12     -1.65      0.00
    1   14   13     -0.82      0.00
    1   15    3      0.26      0.00
    1   15    4     -0.12      0.00
    1   15    5      0.47      0.00
    1   15    6      0.57      0.00
    1   15    7     -0.09      0.00
    1   15    8      0.24      0.00
    1   15    9      1.05      0.00
    1   15   10      0.28      0.00
    1   15   11     -1.30      0.00
    1   15   12     -1.53      0.00
    1   16    4      0.11      0.00
    1   16    5      0.53      0.00
    1   16    6      1.74      0.00
    1   16    7      1.87      0.00
    1   16    8      0.52      0.00
    1   16    9     -0.54      0.00
    1   17    5      0.28      0.00
    1   17    6      0.28      0.00
    2  -11    4     -0.49      0.00
    2  -11    5      0.52      0.00
    2  -11    6      0.36      0.00
    2  -10    5      0.84      0.00
    2  -10    6      1.56      0.00
    2  -10    7      1.05      0.00
    2   -9    7      1.19      0.00
    2   -9    8      0.63      0.00
    2   -8    6      0.37      0.00
    2   -8    7      0.16      0.00
    2   -8    8     -0.29      0.00
    2   -8    9     -0.54      0.00
    2   -7    7      0.29      0.00
    2   -7    8      0.30      0.00
    2   -7    9     -0.05      0.00
    2   -6    8      1.86      0.00
    2   -6    9      1.46      0.00
    2   -6   10      1.23      0.00
    2   -5    9      0.98      0.00
    2   -5   10      1.00      0.00
    2   -5   11      1.16      0.00
    2   -4    6     -2.44      0.00
    2   -4    7     -1.90      0.00
    2   -4    8     -2.04      0.00
    2   -4   10     -0.99      0.00
    2   -4   11     -0.36      0.00
    2   -4   12     -0.10      0.00
    2   -3    6     -4.37      0.00
    2   -3    7     -2.05      0.00
    2   -3    8     -0.03      0.00
    2   -3   10     -0.57      0.00
    2   -3   11     -0.77      0.00
    2   -3   12     -0.52      0.00
    2   -2    7      2.10      0.00
    2   -2    8      3.15      0.00
    2   -2   10      3.48      0.00
    2   -2   11      1.38      0.00
    2   -2   12      0.77      0.00
    2   -2   13      0.97      0.00
    2   -1    7      3.11      0.00
    2   -1    8      0.43      0.00
    2   -1   11      0.83      0.00
    2   -1   12      0.87      0.00
    2   -1   13      1.79      0.00
    2    0   12     -1.10      0.00
    2    0   13      0.69      0.00
    2    0   14      1.51      0.00
    2    1   12      0.63      0.00
    2    1   13      0.89      0.00
    2    1   14      1.08      0.00
    2    2   12      2.02      0.00
    2    2   13      1.82      0.00
    2    2   14      0.74      0.00
    2    2   15      0.02      0.00
    2    3   11     -3.64      0.00
    2    3   12     -1.79      0.00
    2    3   13     -0.44      0.00
    2    3   14     -0.43      0.00
    2    3   15     -1.21      0.00
    2    4   11     -2.70      0.00
    2    4   12     -2.55      0.00
    2    4   13     -1.21      0.00
    2    4   14     -0.07      0.00
    2    4   15      0.09      0.00
    2    4   16     -0.48      0.00
    2    5   10      3.34      0.00
    2    5   11      2.49      0.00
    2    5   12      1.45      0.00
    2    5   13      1.12      0.00
    2    5   14      1.09      0.00
    2    5   15      1.37      0.00
    2    5   16      1.24      0.00
    2    6    9     -0.02      0.00
    2    6   10     -0.43      0.00
    2    6   11      0.50      0.00
    2    6   12      1.33      0.00
    2    6   13      1.40      0.00
    2    6   14      0.68      0.00
    2    6   15     -0.16      0.00
    2    6   16     -0.52      0.00
    2    6   17     -0.61      0.00
    2    7    9      0.68      0.00
    2    7   10     -1.27      0.00
    2    7   11     -2.56      0.00
    2    7   12     -2.38      0.00
    2    7   13     -1.53      0.00
    2    7   14     -0.87      0.00
    2    7   15     -0.46      0.00
    2    7   16     -0.73      0.00
    2    7   17     -1.43      0.00
    2    8    9      0.31      0.00
    2    8   10      1.17      0.00
    2    8   11      0.23      0.00
    2    8   12     -1.74      0.00
    2    8   13     -2.17      0.00
    2    8   14     -1.43      0.00
    2    8   15     -0.29      0.00
    2    8   16      1.01      0.00
    2    8   17      1.03      0.00
    2    9    9     -1.24      0.00
    2    9   10     -1.04      0.00
    2    9   11      0.06      0.00
    2    9   12     -0.65      0.00
    2    9   13     -1.41      0.00
    2    9   14     -0.43      0.00
    2    9   15      0.35      0.00
    2    9   16      0.62      0.00
    2    9   17      1.20      0.00
    2   10    3     -0.04      0.00
    2   10    4      0.91      0.00
    2   10   10     -2.22      0.00
    2   10   11     -2.54      0.00
    2   10   12     -1.98      0.00
    2   10   13     -2.01      0.00
    2   10   14     -1.17      0.00
    2   10   15      0.47      0.00
    2   10   16      0.74      0.00
    2   10   17      0.22      0.00
    2   11    4      3.04      0.00
    2   11    5      1.73      0.00
    2   11    6     -0.51      0.00
    2   11    7     -2.59      0.00
    2   11    8     -2.95      0.00
    2   11    9     -1.57      0.00
    2   11   10     -1.01      0.00
    2   11   11     -1.68      0.00
    2   11   12     -1.67      0.00
    2   11   13     -1.45      0.00
    2   11   14     -1.65      0.00
    2   11   15     -0.87      0.00
    2   11   16      0.40      0.00
    2   12    5      0.85      0.00
    2   12    6     -1.58      0.00
    2   12    7     -2.06      0.00
    2   12    8     -1.28      0.00
    2   12    9     -0.52      0.00
    2   12   10     -0.01      0.00
    2   12   11     -0.14      0.00
    2   12   12     -0.46      0.00
    2   12   13     -0.42      0.00
    2   12   14     -0.69      0.00
    2   13    6     -3.27      0.00
    2   13    7     -2.52      0.00
    2   13    8      0.17      0.00
    2   13    9      1.24      0.00
    2   13   10      0.49      0.00
    2   13   11     -0.09      0.00
    2   13   12     -0.31      0.00
    2   13   13     -0.49      0.00
    2   13   14     -0.49      0.00
    2   14    7     -2.63      0.00
    2   14    8     -0.51      0.00
    2   14    9      1.00      0.00
    2   14   10     -0.50      0.00
    2   14   11     -2.18      0.00
    2   14   12     -1.87      0.00
    2   14   13     -1.02      0.00
    2   15    8     -1.24      0.00
    2   15    9     -0.13      0.00
    2   15   10     -0.12      0.00
    2   15   11     -1.80      0.00
    2   16    4      0.16      0.00
    2   16    5     -1.24      0.00
    2   16    6     -1.57      0.00
    2   16    7     -0.68      0.00
    2   16    8     -0.56      0.00
    2   16    9     -0.75      0.00
    3  -10    5      1.19      0.00
    3  -10    6      2.01      0.00
    3  -10    7      1.67      0.00
    3   -9    6      1.42      0.00
    3   -9    7      1.02      0.00
    3   -9    8      0.30      0.00
    3   -8    7      0.20      0.00
    3   -8    8     -0.36      0.00
    3   -7    8      0.83      0.00
    3   -7    9      0.56      0.00
    3   -6    8      1.26      0.00
    3   -6    9      0.75      0.00
    3   -6   10      0.52      0.00
    3   -5    5      1.58      0.00
    3   -5    6      1.47      0.00
    3   -5    7      0.25      0.00
    3   -5    9     -1.17      0.00
    3   -5   10     -1.75      0.00
    3   -4    5     -2.07      0.00
    3   -4    6     -1.33      0.00
    3   -4    7     -0.23      0.00
    3   -4    8     -0.15      0.00
    3   -4    9     -0.83      0.00
    3   -4   10     -1.93      0.00
    3   -4   11     -2.46      0.00
    3   -3    5      1.71      0.00
    3   -3    6      0.12      0.00
    3   -3    7      0.51      0.00
    3   -3    8      2.46      0.00
    3   -3    9      3.19      0.00
    3   -3   10      2.08      0.00
    3   -3   11      0.47      0.00
    3   -3   12     -0.22      0.00
    3   -2    6      2.83      0.00
    3   -2    7      1.29      0.00
    3   -2    8      1.16      0.00
    3   -2    9      2.67      0.00
    3   -2   10      3.34      0.00
    3   -2   11      2.50      0.00
    3   -2   12      1.34      0.00
    3   -1    6     -1.61      0.00
    3   -1    7     -0.46      0.00
    3   -1    8     -0.72      0.00
    3   -1    9     -0.63      0.00
    3   -1   10      0.15      0.00
    3   -1   11      0.40      0.00
    3   -1   12      0.15      0.00
    3   -1   13      0.09      0.00
    3    0    7     -2.93      0.00
    3    0    8     -1.63      0.00
    3    0    9     -0.69      0.00
    3    0   10      0.02      0.00
    3    0   11      0.22      0.00
    3    0   12     -0.03      0.00
    3    0   13      0.04      0.00
    3    1    7     -0.53      0.00
    3    1    8     -1.47      0.00
    3    1    9     -1.21      0.00
    3    1   10     -0.21      0.00
    3    1   11      0.78      0.00
    3    1   12      1.24      0.00
    3    1   13      1.23      0.00
    3    1   14      1.10      0.00
    3    2    7      1.73      0.00
    3    2    9     -1.52      0.00
    3    2   10     -2.32      0.00
    3    2   11     -1.84      0.00
    3    2   12     -0.65      0.00
    3    2   13      0.41      0.00
    3    2   14      0.56      0.00
    3    3    8      0.99      0.00
    3    3    9      0.87      0.00
    3    3   10     -0.51      0.00
    3    3   11     -1.53      0.00
    3    3   12     -1.45      0.00
    3    3   13     -0.44      0.00
    3    3   14      0.53      0.00
    3    3   15      0.35      0.00
    3    4    7     -0.90      0.00
    3    4    8     -0.48      0.00
    3    4    9      1.56      0.00
    3    4   10      3.13      0.00
    3    4   11      2.82      0.00
    3    4   12      1.47      0.00
    3    4   13      0.70      0.00
    3    4   14      1.25      0.00
    3    4   15      1.87      0.00
    3    5    7      1.25      0.00
    3    5    8     -0.46      0.00
    3    5    9     -0.93      0.00
    3    5   10      1.40      0.00
    3    5   11      3.68      0.00
    3    5   12      3.31      0.00
    3    5   13      1.43      0.00
    3    5   14      0.45      0.00
    3    5   15      0.70      0.00
    3    6    7     -0.36      0.00
    3    6    8      0.12      0.00
    3    6    9     -0.87      0.00
    3    6   10     -0.94      0.00
    3    6   11      0.74      0.00
    3    6   12      1.88      0.00
    3    6   13      1.23      0.00
    3    6   14      0.41      0.00
    3    6   15      0.26      0.00
    3    6   16     -0.13      0.00
    3    7    5     -2.46      0.00
    3    7    6     -3.57      0.00
    3    7    7     -2.79      0.00
    3    7    8     -1.23      0.00
    3    7    9     -0.14      0.00
    3    7   10      0.13      0.00
    3    7   11      0.25      0.00
    3    7   12      0.79      0.00
    3    7   13      0.98      0.00
    3    7   14      0.70      0.00
    3    7   15      1.02      0.00
    3    7   16      1.24      0.00
    3    8    3     -2.44      0.00
    3    8    4     -1.44      0.00
    3    8    5     -1.30      0.00
    3    8    6     -2.04      0.00
    3    8    7     -2.05      0.00
    3    8    8     -1.63      0.00
    3    8    9     -1.31      0.00
    3    8   10     -0.67      0.00
    3    8   11     -0.10      0.00
    3    8   12      0.19      0.00
    3    8   13      0.74      0.00
    3    8   14      0.85      0.00
    3    8   15      0.30      0.00
    3    8   16      0.30      0.00
    3    9    2     -0.14      0.00
    3    9    3     -1.73      0.00
    3    9    4     -1.97      0.00
    3    9    5     -0.98      0.00
    3    9    6     -0.42      0.00
    3    9    7     -0.31      0.00
    3    9    8     -0.15      0.00
    3    9    9     -0.66      0.00
    3    9   10     -1.49      0.00
    3    9   11     -1.38      0.00
    3    9   12     -0.77      0.00
    3    9   13     -0.14      0.00
    3    9   14      0.69      0.00
    3    9   15      0.68      0.00
    3    9   16     -0.28      0.00
    3    9   17     -0.70      0.00
    3   10    2      1.41      0.00
    3   10    3      1.05      0.00
    3   10    4      0.06      0.00
    3   10    5      0.02      0.00
    3   10    6      0.73      0.00
    3   10    7      0.85      0.00
    3   10    8      0.58      0.00
    3   10    9      0.59      0.00
    3   10   10      0.12      0.00
    3   10   11     -0.66      0.00
    3   10   12     -0.59      0.00
    3   10   13     -0.06      0.00
    3   10   14      0.31      0.00
    3   10   15      0.61      0.00
    3   10   16      0.45      0.00
    3   10   17     -0.08      0.00
    3   11    3      1.87      0.00
    3   11    4      1.83      0.00
    3   11    5      1.62      0.00
    3   11    6      1.70      0.00
    3   11    7      1.58      0.00
    3   11    8      0.78      0.00
    3   11    9      0.32      0.00
    3   11   10      0.59      0.00
    3   11   11      0.36      0.00
    3   11   12     -0.23      0.00
    3   11   13     -0.05      0.00
    3   11   14      0.30      0.00
    3   11   15      0.14      0.00
    3   12    4      0.97      0.00
    3   12    5      1.35      0.00
    3   12    6      1.67      0.00
    3   12    7      1.55      0.00
    3   12    8      0.78      0.00
    3   12    9     -0.32      0.00
    3   12   10     -0.60      0.00
    3   12   11     -0.15      0.00
    3   12   12     -0.20      0.00
    3   12   13     -0.40      0.00
    3   12   14     -0.15      0.00
    3   12   15     -0.04      0.00
    3   13    5      0.56      0.00
    3   13    6      0.64      0.00
    3   13    7      0.85      0.00
    3   13    8      1.17      0.00
    3   13    9      0.56      0.00
    3   13   10     -1.00      0.00
    3   13   11     -1.55      0.00
    3   13   12     -0.79      0.00
    3   13   13     -0.20      0.00
    3   13   14     -0.04      0.00
    3   14    7     -0.04      0.00
    3   14    8      0.66      0.00
    3   14    9      2.18      0.00
    3   14   10      1.88      0.00
    3   14   11     -0.17      0.00
    3   14   12     -1.00      0.00
    3   15    8     -0.20      0.00
    3   15    9      0.50      0.00
    3   15   10      2.06      0.00
    4  -10    5     -1.44      0.00
    4   -9    6     -1.00      0.00
    4   -9    7     -0.58      0.00
    4   -8    7      0.84      0.00
    4   -8    8      1.29      0.00
    4   -7    8      0.86      0.00
    4   -7    9      0.86      0.00
    4   -6    9     -0.50      0.00
    4   -5    4     -0.88      0.00
    4   -5    5     -1.01      0.00
    4   -5    6     -0.57      0.00
    4   -5    7     -0.26      0.00
    4   -5    8     -0.22      0.00
    4   -5    9     -0.32      0.00
    4   -5   10     -0.51      0.00
    4   -4    4      0.26      0.00
    4   -4    5     -0.76      0.00
    4   -4    6     -0.83      0.00
    4   -4    7      0.07      0.00
    4   -4    8      0.51      0.00
    4   -4    9      0.61      0.00
    4   -4   10      0.64      0.00
    4   -3    4      1.34      0.00
    4   -3    5      2.10      0.00
    4   -3    6      1.08      0.00
    4   -3    7      0.18      0.00
    4   -3    8      0.09      0.00
    4   -3    9      0.59      0.00
    4   -3   10      1.62      0.00
    4   -3   11      1.87      0.00
    4   -2    4     -1.43      0.00
    4   -2    5      0.02      0.00
    4   -2    6      0.84      0.00
    4   -2    7      0.48      0.00
    4   -2    8     -0.12      0.00
    4   -2    9     -0.07      0.00
    4   -2   10      1.01      0.00
    4   -2   11      2.29      0.00
    4   -1    5     -1.89      0.00
    4   -1    6     -1.44      0.00
    4   -1    7     -0.50      0.00
    4   -1    8      0.13      0.00
    4   -1    9      0.35      0.00
    4   -1   10      0.44      0.00
    4   -1   11      0.76      0.00
    4   -1   12      0.98      0.00
    4    0    5      0.56      0.00
    4    0    6      0.28      0.00
    4    0    7      0.03      0.00
    4    0    8     -0.05      0.00
    4    0    9      0.05      0.00
    4    0   10      0.18      0.00
    4    0   11      0.16      0.00
    4    0   12      0.09      0.00
    4    1    5      1.66      0.00
    4    1    6      2.67      0.00
    4    1    7      2.25      0.00
    4    1    8      0.90      0.00
    4    1    9     -0.13      0.00
    4    1   10     -0.49      0.00
    4    1   11     -0.48      0.00
    4    1   12     -0.15      0.00
    4    1   13      0.24      0.00
   -4   -2    3     -0.65      0.00
   -4   -2    2     -1.11      0.00
    4    2    4      0.79      0.00
    4    2    5      0.78      0.00
    4    2    6      1.44      0.00
    4    2    7      1.83      0.00
    4    2    8      1.42      0.00
    4    2    9      0.90      0.00
    4    2   10      0.58      0.00
    4    2   11     -0.07      0.00
    4    2   12     -0.71      0.00
    4    2   13     -0.40      0.00
   -4   -3    2     -1.11      0.00
   -4   -3    1     -1.09      0.00
    4    3    0     -1.18      0.00
    4    3    3      0.11      0.00
    4    3    4      0.49      0.00
    4    3    5      0.55      0.00
    4    3    6      0.10      0.00
    4    3    7     -0.36      0.00
    4    3    8     -0.02      0.00
    4    3    9      1.04      0.00
    4    3   10      1.83      0.00
    4    3   11      1.44      0.00
    4    3   12      0.12      0.00
    4    3   13     -0.59      0.00
    4    3   14     -0.05      0.00
   -4   -4    2     -2.38      0.00
   -4   -4    1     -1.88      0.00
    4    4    0     -1.03      0.00
    4    4    1     -0.93      0.00
    4    4    2     -1.14      0.00
    4    4    3     -1.37      0.00
    4    4    4     -1.54      0.00
    4    4    5     -1.14      0.00
    4    4    6     -0.49      0.00
    4    4    7     -0.70      0.00
    4    4    8     -1.28      0.00
    4    4    9     -0.71      0.00
    4    4   10      0.85      0.00
    4    4   11      1.74      0.00
    4    4   12      1.13      0.00
    4    4   13     -0.00      0.00
    4    4   14     -0.25      0.00
    4    5    2      0.28      0.00
    4    5    3      0.04      0.00
    4    5    4     -1.06      0.00
    4    5    5     -1.98      0.00
    4    5    6     -1.41      0.00
    4    5    7     -0.11      0.00
    4    5    8     -0.13      0.00
    4    5    9     -1.21      0.00
    4    5   10     -1.08      0.00
    4    5   11      0.64      0.00
    4    5   12      1.71      0.00
    4    5   13      0.94      0.00
    4    5   14     -0.26      0.00
    4    6    1      0.35      0.00
    4    6    2      1.19      0.00
    4    6    3      1.88      0.00
    4    6    4      1.32      0.00
    4    6    5     -0.35      0.00
    4    6    6     -1.15      0.00
    4    6    7     -0.09      0.00
    4    6    8      1.11      0.00
    4    6    9      0.55      0.00
    4    6   10     -0.72      0.00
    4    6   11     -0.34      0.00
    4    6   12      1.10      0.00
    4    6   13      1.03      0.00
    4    6   14     -0.33      0.00
    4    7    1      1.58      0.00
    4    7    2      0.89      0.00
    4    7    3      0.80      0.00
    4    7    4      1.33      0.00
    4    7    5      0.59      0.00
    4    7    6     -1.11      0.00
    4    7    7     -1.50      0.00
    4    7    8     -0.40      0.00
    4    7    9      0.34      0.00
    4    7   10     -0.12      0.00
    4    7   11     -0.63      0.00
    4    7   12     -0.20      0.00
    4    7   13      0.02      0.00
    4    7   14     -0.95      0.00
    4    7   15     -1.42      0.00
    4    8    0      0.43      0.00
    4    8    1      1.04      0.00
    4    8    2      0.31      0.00
    4    8    3     -1.49      0.00
    4    8    4     -1.85      0.00
    4    8    5     -1.07      0.00
    4    8    6     -1.28      0.00
    4    8    7     -2.02      0.00
    4    8    8     -1.65      0.00
    4    8    9     -0.64      0.00
    4    8   10     -0.32      0.00
    4    8   11     -0.67      0.00
    4    8   12     -0.83      0.00
    4    8   13     -0.46      0.00
    4    8   14     -0.26      0.00
    4    8   15     -0.61      0.00
    4    9    1     -0.21      0.00
    4    9    2      0.42      0.00
    4    9    3     -0.77      0.00
    4    9    4     -2.25      0.00
    4    9    5     -2.16      0.00
    4    9    6     -1.25      0.00
    4    9    7     -0.79      0.00
    4    9    8     -0.25      0.00
    4    9    9      0.85      0.00
    4    9   10      1.39      0.00
    4    9   11      0.84      0.00
    4    9   12      0.05      0.00
    4    9   13     -0.19      0.00
    4    9   14      0.14      0.00
    4    9   15      0.44      0.00
    4   10    2      0.90      0.00
    4   10    3      1.04      0.00
    4   10    4      0.33      0.00
    4   10    5      0.01      0.00
    4   10    6      0.25      0.00
    4   10    7      0.56      0.00
    4   10    8      0.82      0.00
    4   10    9      1.48      0.00
    4   10   10      2.25      0.00
    4   10   11      2.02      0.00
    4   10   12      0.95      0.00
    4   10   13      0.24      0.00
    4   10   14      0.11      0.00
    4   10   15      0.07      0.00
    4   11    3      1.07      0.00
    4   11    4      0.82      0.00
    4   11    5      1.01      0.00
    4   11    6      1.67      0.00
    4   11    7      1.86      0.00
    4   11    8      1.42      0.00
    4   11    9      0.81      0.00
    4   11   10      0.75      0.00
    4   11   11      1.02      0.00
    4   11   12      0.61      0.00
    4   11   13     -0.09      0.00
    4   11   14     -0.11      0.00
    4   11   15      0.22      0.00
    4   12    3     -0.59      0.00
    4   12    4     -0.71      0.00
    4   12    5     -0.77      0.00
    4   12    6      0.28      0.00
    4   12    7      1.43      0.00
    4   12    8      1.56      0.00
    4   12    9      0.66      0.00
    4   12   10     -0.29      0.00
    4   12   11     -0.11      0.00
    4   12   12      0.63      0.00
    4   12   13      0.60      0.00
    4   12   14      0.10      0.00
    4   12   15      0.04      0.00
    4   13    4     -1.83      0.00
    4   13    5     -1.79      0.00
    4   13    6     -1.27      0.00
    4   13    7     -0.37      0.00
    4   13    8      0.30      0.00
    4   13    9      0.60      0.00
    4   13   10      0.25      0.00
    4   13   11     -0.05      0.00
    4   13   12      0.76      0.00
    4   13   13      1.71      0.00
    4   13   14      1.54      0.00
    4   14    6     -0.55      0.00
    4   14    7     -0.44      0.00
    4   14    8     -0.81      0.00
    4   14    9     -0.49      0.00
    4   14   10      0.78      0.00
    4   14   11      1.30      0.00
    4   14   12      1.09      0.00
    4   14   13      1.22      0.00
    4   15    7      0.54      0.00
    4   15    8      0.15      0.00
    4   15    9     -0.71      0.00
    4   15   10     -0.24      0.00
    4   15   11      1.07      0.00
    5   -6    3     -0.42      0.00
    5   -6    4      0.10      0.00
    5   -6    5      0.36      0.00
    5   -5    2     -0.26      0.00
    5   -5    3     -0.31      0.00
    5   -5    4     -0.67      0.00
    5   -5    5     -0.52      0.00
    5   -5    6     -0.45      0.00
    5   -5    7     -0.56      0.00
    5   -5    8     -0.30      0.00
    5   -4    2     -1.12      0.00
    5   -4    3      0.83      0.00
    5   -4    4      1.42      0.00
    5   -4    5      0.63      0.00
    5   -4    6     -0.09      0.00
    5   -4    8     -0.30      0.00
    5   -4    9     -0.13      0.00
    5   -3    2     -0.65      0.00
    5   -3    3     -0.20      0.00
    5   -3    4      1.39      0.00
    5   -3    5      1.90      0.00
    5   -3    6      1.19      0.00
    5   -3    7      0.74      0.00
    5   -3    8      0.66      0.00
    5   -3    9      0.13      0.00
   -5    2    0     -1.31      0.00
    5   -2    2      1.25      0.00
    5   -2    3     -0.28      0.00
    5   -2    4     -0.74      0.00
    5   -2    5     -0.15      0.00
    5   -2    6      0.17      0.00
    5   -2    7      0.15      0.00
    5   -2    8      0.47      0.00
    5   -2    9      0.41      0.00
    5   -2   10     -0.32      0.00
   -5    1    4     -0.25      0.00
   -5    1    3      1.64      0.00
   -5    1    2      3.02      0.00
   -5    1    1      1.57      0.00
   -5    1    0     -0.65      0.00
    5   -1    1     -0.36      0.00
    5   -1    2      1.04      0.00
    5   -1    3      1.14      0.00
    5   -1    4      0.43      0.00
    5   -1    5     -0.19      0.00
    5   -1    6     -0.76      0.00
    5   -1    7     -1.21      0.00
    5   -1    8     -0.94      0.00
    5   -1    9      0.07      0.00
    5   -1   10      0.56      0.00
    5   -1   11      0.35      0.00
   -5    0    3     -1.18      0.00
   -5    0    2      0.46      0.00
   -5    0    1      2.74      0.00
    5    0    0      2.93      0.00
    5    0    1      1.50      0.00
    5    0    2      0.69      0.00
    5    0    3      0.88      0.00
    5    0    4      1.45      0.00
    5    0    5      1.72      0.00
    5    0    6      1.18      0.00
    5    0    7      0.28      0.00
    5    0    8     -0.19      0.00
    5    0    9      0.08      0.00
    5    0   10      0.63      0.00
    5    0   11      0.78      0.00
   -5   -1    3     -0.89      0.00
   -5   -1    2     -1.40      0.00
   -5   -1    1     -0.34      0.00
    5    1    0      1.66      0.00
    5    1    1      2.35      0.00
    5    1    2      1.36      0.00
    5    1    3      0.32      0.00
    5    1    4      0.17      0.00
    5    1    5      0.62      0.00
    5    1    6      1.01      0.00
    5    1    7      1.18      0.00
    5    1    8      1.23      0.00
    5    1    9      1.00      0.00
    5    1   10      0.36      0.00
    5    1   11     -0.48      0.00
   -5   -2    3     -0.87      0.00
   -5   -2    2     -1.29      0.00
   -5   -2    1     -1.24      0.00
    5    2    0     -0.51      0.00
    5    2    1      0.47      0.00
    5    2    2      0.55      0.00
    5    2    3     -0.12      0.00
    5    2    4     -0.39      0.00
    5    2    5     -0.35      0.00
    5    2    6     -0.57      0.00
    5    2    7     -0.65      0.00
    5    2    8     -0.29      0.00
    5    2    9     -0.11      0.00
    5    2   10     -0.33      0.00
    5    2   11     -0.78      0.00
    5    2   12     -1.29      0.00
   -5   -3    3     -0.31      0.00
   -5   -3    2     -1.24      0.00
   -5   -3    1     -0.89      0.00
    5    3    0     -0.29      0.00
    5    3    1      0.03      0.00
    5    3    2      0.12      0.00
    5    3    3     -0.30      0.00
    5    3    4     -0.63      0.00
    5    3    5     -0.21      0.00
    5    3    6     -0.08      0.00
    5    3    7     -0.84      0.00
    5    3    8     -1.27      0.00
    5    3    9     -0.95      0.00
    5    3   10     -0.62      0.00
    5    3   11     -0.32      0.00
    5    3   12     -0.11      0.00
   -5   -4    2     -0.79      0.00
   -5   -4    1     -1.16      0.00
    5    4    0     -0.27      0.00
    5    4    1      0.10      0.00
    5    4    2      0.02      0.00
    5    4    3     -0.07      0.00
    5    4    4     -0.57      0.00
    5    4    5     -0.83      0.00
    5    4    6     -0.28      0.00
    5    4    7     -0.04      0.00
    5    4    8     -0.40      0.00
    5    4    9     -0.15      0.00
    5    4   10      0.68      0.00
    5    4   11      1.25      0.00
    5    4   12      1.31      0.00
   -5   -5    2     -0.71      0.00
   -5   -5    1     -1.87      0.00
    5    5    0     -1.54      0.00
    5    5    1     -0.74      0.00
    5    5    2     -0.26      0.00
    5    5    3      0.46      0.00
    5    5    4      0.78      0.00
    5    5    5      0.10      0.00
    5    5    6     -0.26      0.00
    5    5    7      0.14      0.00
    5    5    8      0.12      0.00
    5    5    9     -0.33      0.00
    5    5   10     -0.19      0.00
    5    5   11      0.66      0.00
    5    5   12      1.49      0.00
    5    5   13      1.51      0.00
   -5   -6    1     -1.12      0.00
    5    6    0     -1.43      0.00
    5    6    1     -1.30      0.00
    5    6    2     -1.02      0.00
    5    6    3      0.35      0.00
    5    6    4      2.10      0.00
    5    6    5      2.05      0.00
    5    6    6      0.60      0.00
    5    6    7     -0.21      0.00
    5    6    8     -0.53      0.00
    5    6    9     -1.31      0.00
    5    6   10     -1.96      0.00
    5    6   11     -1.58      0.00
    5    6   12     -0.27      0.00
    5    6   13      0.79      0.00
   -5   -7    1      0.24      0.00
    5    7    0      0.07      0.00
    5    7    1      0.10      0.00
    5    7    2     -0.39      0.00
    5    7    3     -0.67      0.00
    5    7    4      0.42      0.00
    5    7    5      1.37      0.00
    5    7    6      0.48      0.00
    5    7    7     -1.06      0.00
    5    7    8     -1.87      0.00
    5    7    9     -2.27      0.00
    5    7   10     -2.26      0.00
    5    7   11     -1.45      0.00
    5    7   12     -0.18      0.00
    5    7   13      0.80      0.00
    5    8    0      0.18      0.00
    5    8    1      0.29      0.00
    5    8    2      0.72      0.00
    5    8    3      0.35      0.00
    5    8    4     -0.52      0.00
    5    8    5     -0.77      0.00
    5    8    6     -0.56      0.00
    5    8    7     -0.70      0.00
    5    8    8     -1.13      0.00
    5    8    9     -1.51      0.00
    5    8   10     -1.54      0.00
    5    8   11     -0.94      0.00
    5    8   12     -0.06      0.00
    5    9    1     -0.55      0.00
    5    9    2     -0.09      0.00
    5    9    3      0.64      0.00
    5    9    4      0.68      0.00
    5    9    5      0.26      0.00
    5    9    6      0.26      0.00
    5    9    7      0.74      0.00
    5    9    8      0.81      0.00
    5    9    9      0.21      0.00
    5    9   10     -0.44      0.00
    5    9   11     -0.79      0.00
    5    9   12     -0.96      0.00
    5    9   13     -0.99      0.00
    5   10    1     -0.55      0.00
    5   10    2     -0.66      0.00
    5   10    3     -0.15      0.00
    5   10    4      0.17      0.00
    5   10    5      0.77      0.00
    5   10    6      1.49      0.00
    5   10    7      1.86      0.00
    5   10    8      1.65      0.00
    5   10    9      0.82      0.00
    5   10   10      0.03      0.00
    5   10   11     -0.22      0.00
    5   10   12     -0.37      0.00
    5   10   13     -0.61      0.00
    5   11    2     -1.11      0.00
    5   11    3     -0.27      0.00
    5   11    4      0.03      0.00
    5   11    5     -0.10      0.00
    5   11    6      0.14      0.00
    5   11    7      0.30      0.00
    5   11    8      0.39      0.00
    5   11    9      0.60      0.00
    5   11   10      0.65      0.00
    5   11   11      0.72      0.00
    5   11   12      0.86      0.00
    5   12    3     -0.50      0.00
    5   12    4      0.46      0.00
    5   12    5      0.43      0.00
    5   12    6     -0.17      0.00
    5   12    7     -0.96      0.00
    5   12    8     -1.23      0.00
    5   12    9     -0.18      0.00
    5   12   10      0.98      0.00
    5   12   11      1.08      0.00
    5   12   12      0.79      0.00
    5   13    5      0.36      0.00
    5   13    6      0.29      0.00
    5   13    7     -0.04      0.00
    5   13    8     -0.65      0.00
    5   13    9     -0.27      0.00
    5   13   10      0.89      0.00
    6   -6    3      0.55      0.00
    6   -6    5     -0.74      0.00
   -6    5    1     -1.45      0.00
   -6    5    0     -1.27      0.00
    6   -5    1     -0.20      0.00
    6   -5    2      1.29      0.00
    6   -5    3      0.95      0.00
    6   -5    4     -0.64      0.00
    6   -5    5     -1.25      0.00
    6   -5    6     -0.97      0.00
    6   -5    7     -0.68      0.00
   -6    4    2     -1.89      0.00
   -6    4    1     -0.46      0.00
   -6    4    0      0.48      0.00
    6   -4    1     -0.39      0.00
    6   -4    2     -1.15      0.00
    6   -4    3     -1.05      0.00
    6   -4    5     -0.90      0.00
    6   -4    6      0.04      0.00
    6   -4    7      0.97      0.00
   -6    3    3      0.89      0.00
   -6    3    2     -0.11      0.00
   -6    3    1      0.35      0.00
   -6    3    0      2.53      0.00
    6   -3    1      3.06      0.00
    6   -3    2      0.90      0.00
    6   -3    3     -1.21      0.00
    6   -3    4     -1.68      0.00
    6   -3    5     -0.88      0.00
    6   -3    6      0.29      0.00
    6   -3    7      1.06      0.00
    6   -3    8      1.25      0.00
   -6    2    4     -1.13      0.00
   -6    2    3      0.69      0.00
   -6    2    2      1.47      0.00
   -6    2    1      0.33      0.00
   -6    2    0     -0.23      0.00
    6   -2    1      0.95      0.00
    6   -2    2      1.64      0.00
    6   -2    3      1.01      0.00
    6   -2    4      0.11      0.00
    6   -2    5     -0.26      0.00
    6   -2    6      0.05      0.00
    6   -2    7      0.25      0.00
    6   -2    8      0.20      0.00
   -6    1    4     -2.00      0.00
   -6    1    3     -1.73      0.00
   -6    1    2     -0.27      0.00
   -6    1    1      0.47      0.00
   -6    1    0     -1.14      0.00
    6   -1    1     -2.61      0.00
    6   -1    2     -2.10      0.00
    6   -1    3     -0.67      0.00
    6   -1    4      0.48      0.00
    6   -1    5      0.86      0.00
    6   -1    6      0.77      0.00
    6   -1    7      0.50      0.00
    6   -1    8     -0.17      0.00
    6   -1    9     -0.47      0.00
   -6    0    3      0.10      0.00
   -6    0    2     -0.49      0.00
   -6    0    1      0.11      0.00
    6    0    0      0.43      0.00
    6    0    1     -0.77      0.00
    6    0    2     -1.69      0.00
    6    0    3     -1.28      0.00
    6    0    4     -0.32      0.00
    6    0    5      0.41      0.00
    6    0    6      0.77      0.00
    6    0    7      0.99      0.00
    6    0    8      0.74      0.00
    6    0    9     -0.09      0.00
   -6   -1    3      0.89      0.00
   -6   -1    2      0.72      0.00
   -6   -1    1      0.39      0.00
    6    1    0      0.61      0.00
    6    1    1      0.91      0.00
    6    1    2      0.78      0.00
    6    1    3      0.86      0.00
    6    1    4      1.19      0.00
    6    1    5      0.95      0.00
    6    1    6      0.16      0.00
    6    1    7     -0.08      0.00
    6    1    8      0.51      0.00
    6    1    9      0.82      0.00
    6    1   10      0.39      0.00
   -6   -2    3      0.70      0.00
   -6   -2    2      0.52      0.00
   -6   -2    1      0.79      0.00
    6    2    0      0.57      0.00
    6    2    1      0.51      0.00
    6    2    2      0.73      0.00
    6    2    3      0.58      0.00
    6    2    4      0.51      0.00
    6    2    5      0.73      0.00
    6    2    6      0.19      0.00
    6    2    7     -0.73      0.00
    6    2    8     -0.36      0.00
    6    2    9      0.75      0.00
    6    2   10      1.01      0.00
   -6   -3    3      1.19      0.00
   -6   -3    2      1.22      0.00
   -6   -3    1      1.73      0.00
    6    3    0      1.94      0.00
    6    3    1      1.14      0.00
    6    3    2      0.37      0.00
    6    3    3     -0.42      0.00
    6    3    4     -1.55      0.00
    6    3    5     -1.67      0.00
    6    3    6     -0.81      0.00
    6    3    7     -0.58      0.00
    6    3    8     -0.37      0.00
    6    3    9      0.83      0.00
    6    3   10      1.43      0.00
   -6   -4    2      0.78      0.00
   -6   -4    1      0.93      0.00
    6    4    0      1.08      0.00
    6    4    1      0.78      0.00
    6    4    2      0.04      0.00
    6    4    3     -0.39      0.00
    6    4    4     -0.89      0.00
    6    4    5     -1.25      0.00
    6    4    6     -0.41      0.00
    6    4    7      0.58      0.00
    6    4    8      0.59      0.00
    6    4    9      0.82      0.00
    6    4   10      1.40      0.00
   -6   -5    2      0.44      0.00
   -6   -5    1      0.18      0.00
    6    5    0     -0.94      0.00
    6    5    1     -1.67      0.00
    6    5    2     -1.89      0.00
    6    5    3     -1.28      0.00
    6    5    4     -0.02      0.00
    6    5    5      0.84      0.00
    6    5    6      1.42      0.00
    6    5    7      2.07      0.00
    6    5    8      1.84      0.00
    6    5    9      0.96      0.00
    6    5   10      0.54      0.00
   -6   -6    1      0.71      0.00
    6    6    0      0.08      0.00
    6    6    1     -0.37      0.00
    6    6    2     -0.91      0.00
    6    6    3     -1.45      0.00
    6    6    4     -0.83      0.00
    6    6    5      0.56      0.00
    6    6    6      1.32      0.00
    6    6    7      1.43      0.00
    6    6    8      1.00      0.00
    6    6    9     -0.03      0.00
    6    6   10     -0.66      0.00
   -6   -7    1     -0.26      0.00
    6    7    0     -0.41      0.00
    6    7    1      0.52      0.00
    6    7    2      1.56      0.00
    6    7    3      0.96      0.00
    6    7    4     -0.58      0.00
    6    7    5     -0.96      0.00
    6    7    6     -0.22      0.00
    6    7    7      0.36      0.00
    6    7    8      0.16      0.00
    6    7    9     -0.95      0.00
    6    7   10     -1.92      0.00
    6    8    0     -1.42      0.00
    6    8    1     -1.02      0.00
    6    8    2      0.02      0.00
    6    8    3      0.77      0.00
    6    8    4      0.31      0.00
    6    8    5     -0.80      0.00
    6    8    6     -1.03      0.00
    6    8    7     -0.07      0.00
    6    8    8      0.81      0.00
    6    8    9      0.43      0.00
    6    8   10     -0.79      0.00
    6    9    1     -0.34      0.00
    6    9    2      0.01      0.00
    6    9    3      0.17      0.00
    6    9    4      0.33      0.00
    6    9    5      0.15      0.00
    6    9    6     -0.36      0.00
    6    9    7     -0.10      0.00
    6    9    8      0.93      0.00
    6    9    9      1.27      0.00
    6   10    3      1.41      0.00
    6   10    4      1.50      0.00
    6   10    5      1.02      0.00
    6   10    6      0.18      0.00
    6   10    7     -0.24      0.00
    6   10    8      0.36      0.00
   -7    5    0      0.58      0.00
    7   -5    1      0.40      0.00
    7   -5    2      0.89      0.00
    7   -5    3      1.15      0.00
    7   -5    4      0.90      0.00
    7   -5    5      0.86      0.00
   -7    4    2     -0.93      0.00
   -7    4    1     -0.29      0.00
   -7    4    0      0.81      0.00
    7   -4    1      0.93      0.00
    7   -4    2      0.67      0.00
    7   -4    3      0.67      0.00
    7   -4    4      0.55      0.00
    7   -4    5      0.59      0.00
   -7    3    3      0.75      0.00
   -7    3    2     -0.39      0.00
   -7    3    1     -1.08      0.00
   -7    3    0     -0.16      0.00
    7   -3    1      1.19      0.00
    7   -3    2      1.51      0.00
    7   -3    3      1.14      0.00
    7   -3    4      0.23      0.00
    7   -3    5     -0.67      0.00
    7   -3    6     -0.59      0.00
   -7    2    3     -0.23      0.00
   -7    2    2      0.88      0.00
   -7    2    1      1.26      0.00
   -7    2    0      0.94      0.00
    7   -2    1      1.05      0.00
    7   -2    2      1.06      0.00
    7   -2    3      0.78      0.00
    7   -2    4      0.52      0.00
    7   -2    5     -0.35      0.00
    7   -2    6     -1.11      0.00
   -7    1    3     -0.61      0.00
   -7    1    2     -0.26      0.00
   -7    1    1      1.05      0.00
   -7    1    0      1.63      0.00
    7   -1    1      1.19      0.00
    7   -1    2      0.53      0.00
    7   -1    3     -0.33      0.00
    7   -1    4     -0.72      0.00
    7   -1    5     -0.50      0.00
    7   -1    6     -0.42      0.00
    7   -1    7     -0.20      0.00
   -7    0    3      0.52      0.00
   -7    0    2      0.16      0.00
   -7    0    1     -0.19      0.00
    7    0    0      0.35      0.00
    7    0    1      0.54      0.00
    7    0    2      0.14      0.00
    7    0    3     -0.16      0.00
    7    0    4     -0.37      0.00
    7    0    5     -0.43      0.00
    7    0    6     -0.32      0.00
    7    0    7      0.04      0.00
   -7   -1    3      0.96      0.00
   -7   -1    2      1.20      0.00
   -7   -1    1      0.73      0.00
    7    1    0      0.29      0.00
    7    1    1      0.41      0.00
    7    1    2      0.31      0.00
    7    1    3      0.21      0.00
    7    1    4      0.79      0.00
    7    1    5      1.36      0.00
    7    1    6      0.99      0.00
    7    1    7      0.16      0.00
   -7   -2    3      1.22      0.00
   -7   -2    2      1.54      0.00
   -7   -2    1      1.61      0.00
    7    2    0      1.36      0.00
    7    2    1      1.01      0.00
    7    2    2      0.94      0.00
    7    2    3      0.93      0.00
    7    2    4      1.10      0.00
    7    2    5      1.77      0.00
    7    2    6      2.00      0.00
    7    2    7      0.97      0.00
   -7   -3    2      1.49      0.00
   -7   -3    1      1.13      0.00
    7    3    0      0.86      0.00
    7    3    1      0.90      0.00
    7    3    2      1.04      0.00
    7    3    3      1.40      0.00
    7    3    4      1.42      0.00
    7    3    5      1.11      0.00
    7    3    6      1.10      0.00
    7    3    7      0.77      0.00
   -7   -4    2      1.93      0.00
   -7   -4    1      1.45      0.00
    7    4    0      0.01      0.00
    7    4    1     -0.48      0.00
    7    4    2     -0.12      0.00
    7    4    3      0.61      0.00
    7    4    4      1.15      0.00
    7    4    5      0.72      0.00
    7    4    6      0.04      0.00
    7    4    7     -0.07      0.00
   -7   -5    1      2.05      0.00
    7    5    0      1.48      0.00
    7    5    1      0.66      0.00
    7    5    2      0.16      0.00
    7    5    3     -0.06      0.00
    7    5    4      0.35      0.00
    7    5    5      0.78      0.00
    7    5    6      0.48      0.00
    7    5    7      0.11      0.00
    7    6    0      0.91      0.00
    7    6    1      1.44      0.00
    7    6    2      1.69      0.00
    7    6    3      1.11      0.00
    7    6    4      0.31      0.00
    7    6    5      0.52      0.00
    7    6    6      1.15      0.00
    8   -3    1     -0.28      0.00
    8   -3    2     -0.48      0.00
   -8    2    2     -0.19      0.00
   -8    2    1     -0.49      0.00
   -8    2    0     -0.97      0.00
    8   -2    1     -0.99      0.00
    8   -2    2     -0.89      0.00
    8   -2    3     -1.12      0.00
   -8    1    4      0.51      0.00
   -8    1    3      0.59      0.00
   -8    1    2     -0.20      0.00
   -8    1    1     -0.80      0.00
   -8    1    0     -1.14      0.00
    8   -1    1     -1.46      0.00
    8   -1    2     -0.91      0.00
    8   -1    3     -0.30      0.00
   -8    0    2      0.70      0.00
   -8    0    1     -0.01      0.00
    8    0    0     -0.33      0.00
    8    0    1     -0.39      0.00
    8    0    2     -0.35      0.00
   -8   -1    2      0.27      0.00
   -8   -1    1      0.18      0.00
    8    1    0     -0.12      0.00
    8    1    2     -0.11      0.00
    0    1    0     35.24      0.00
   -7    6    0      0.31      0.00
    7    7    0     -0.42      0.00
   -6    9    0     -0.77      0.00
    6    9    0     -0.66      0.00
    5   11    0      0.49      0.00
   -1   14    0     -0.97      0.00
    1  -14    1     -0.38      0.00
   -6   -9    1     -0.58      0.00
   -7   -6    1      0.29      0.00
    7   -6    1      0.69      0.00
    0   -1    1     14.57      0.00
    0    0    1     77.19      0.00
    0    1    1     41.93      0.00
    0    2    1    -23.71      0.00
   -7    6    1     -0.12      0.00
    7    7    1     -0.50      0.00
    6   10    1      0.22      0.00
    0   15    1      0.84      0.00
    2  -13    2      0.47      0.00
   -5  -10    2      0.75      0.00
   -6   -8    2     -0.38      0.00
    0    1    2     24.00      0.00
   -7    6    2     -0.24      0.00
   -7    7    2     -0.84      0.00
    7    7    2     -0.20      0.00
    6   10    2      0.75      0.00
   -3  -12    3     -1.01      0.00
    2  -12    3     -0.16      0.00
   -4  -11    3     -0.61      0.00
   -7    6    3      0.19      0.00
   -7    7    3     -1.02      0.00
    7    7    3      0.37      0.00
    7    8    3     -1.00      0.00
   -6   10    3      0.74      0.00
   -5   12    3      0.45      0.00
    3  -11    4     -0.80      0.00
   -4  -10    4     -1.06      0.00
   -5   -9    4     -0.00      0.00
   -6   -7    4      0.11      0.00
    6   -6    4     -0.31      0.00
    6   -4    4     -1.09      0.00
   -7    6    4      0.16      0.00
    7    7    4      0.31      0.00
    7    8    4     -0.48      0.00
   -6   10    4      1.91      0.00
    6   11    4      1.30      0.00
   -5   12    4     -0.24      0.00
   -5   -8    5      0.81      0.00
   -6   -6    5     -0.41      0.00
   -7   -1    5      0.71      0.00
   -7    6    5     -0.26      0.00
    7    7    5     -0.05      0.00
    7    8    5     -0.19      0.00
   -6   10    5      1.60      0.00
    6   11    5      1.37      0.00
   -5   12    5     -1.13      0.00
    4   14    5     -0.80      0.00
    2   -9    6      1.42      0.00
   -5   -7    6      0.11      0.00
   -6   -5    6     -0.56      0.00
    7    7    6      0.21      0.00
    7    8    6     -0.33      0.00
   -6   10    6      0.51      0.00
    6   11    6      0.60      0.00
   -5   12    6     -1.42      0.00
    3   14    6      0.08      0.00
   -3   15    6      0.68      0.00
   -3   -9    7     -0.41      0.00
   -5   -6    7     -1.37      0.00
    5   -4    7     -0.25      0.00
    7    6    7      1.20      0.00
    7    7    7      0.63      0.00
   -6    9    7     -0.58      0.00
    6   11    7     -0.35      0.00
   -5   12    7     -1.07      0.00
   -3   15    7      0.17      0.00
    3   15    7     -0.08      0.00
   -1   -9    8     -0.85      0.00
   -3   -8    8     -0.30      0.00
   -5   -5    8     -1.04      0.00
   -4   -5    8     -2.39      0.00
    7    1    8     -0.09      0.00
    7    2    8     -0.07      0.00
    7    3    8     -0.10      0.00
    7    4    8     -0.29      0.00
    7    5    8      0.03      0.00
    7    6    8      0.84      0.00
   -6    9    8     -0.18      0.00
    6   11    8     -0.42      0.00
   -5   12    8     -0.39      0.00
   -3   15    8     -0.36      0.00
   -1   -8    9     -0.16      0.00
   -3   -7    9      0.07      0.00
   -5   -4    9     -0.78      0.00
    6   -2    9      0.33      0.00
    6   10    9      0.89      0.00
   -5   11    9      1.10      0.00
   -4   13    9     -1.05      0.00
   -1   16    9     -0.23      0.00
   -1   -7   10      0.34      0.00
    5   -3   10     -0.05      0.00
    6    0   10     -0.54      0.00
    6    9   10      0.58      0.00
    6   10   10      0.40      0.00
   -5   11   10      0.39      0.00
   -4   13   10     -1.10      0.00
   -3   14   10     -0.01      0.00
   -2   15   10     -1.05      0.00
   -1   16   10      0.17      0.00
    0   16   10     -0.20      0.00
    1   16   10     -0.98      0.00
    2   16   10     -0.09      0.00
   -1   -6   11      0.27      0.00
    0   -6   11     -1.97      0.00
    1   -6   11     -0.16      0.00
   -2   -5   11     -1.02      0.00
    3   -5   11     -1.38      0.00
   -3   -4   11      0.18      0.00
   -4   -3   11      0.12      0.00
    5   -2   11     -0.19      0.00
    6    2   11      0.59      0.00
    6    3   11      0.79      0.00
    6    4   11      1.03      0.00
    6    5   11      0.24      0.00
    6    6   11     -0.62      0.00
    6    7   11     -1.56      0.00
    6    8   11     -1.24      0.00
   -3   14   11      0.12      0.00
   -2   15   11     -0.60      0.00
    3   15   11      1.95      0.00
    0   16   11      0.87      0.00
    1   16   11     -1.40      0.00
    0   -5   12     -1.59      0.00
    1   -5   12     -0.50      0.00
   -2   -4   12     -0.49      0.00
   -3   -3   12     -0.19      0.00
    4   -2   12      2.04      0.00
    5    0   12      0.62      0.00
    5    1   12     -0.86      0.00
   -5    4   12      0.92      0.00
   -4   12   12     -0.33      0.00
   -1   15   12     -1.62      0.00
    2   15   12     -2.31      0.00
   -1   -3   13     -0.28      0.00
    0   -3   13      0.35      0.00
    1   -3   13      0.42      0.00
    2   -3   13     -0.26      0.00
    3   -2   13      0.72      0.00
   -3    0   13      1.59      0.00
    4    0   13     -0.02      0.00
    5    2   13     -1.19      0.00
    5    3   13     -0.21      0.00
    5    4   13      0.88      0.00
    5    8   13      0.55      0.00
   -3   13   13      0.63      0.00
   -2   14   13      0.97      0.00
    3   14   13     -0.36      0.00
   -1   15   13      0.34      0.00
    0   15   13      0.34      0.00
    1   15   13     -0.43      0.00
    2   15   13     -1.18      0.00
    0   -2   14      0.86      0.00
    1   -2   14      1.31      0.00
   -2   -1   14     -0.16      0.00
    2   -1   14      1.67      0.00
    3    0   14      0.41      0.00
    4    2   14      0.19      0.00
   -4    5   14     -0.60      0.00
   -4    6   14     -0.55      0.00
   -1   14   14      1.83      0.00
    0   14   14      0.18      0.00
    1   14   14      0.02      0.00
    2   14   14     -0.61      0.00
   -1    0   15      0.22      0.00
    0    0   15     -0.92      0.00
    1    0   15     -0.75      0.00
    2    1   15      0.75      0.00
    3    2   15      0.10      0.00
    4    5   15     -0.52      0.00
   -3    6   15     -0.14      0.00
    4    6   15     -0.74      0.00
    2   12   15     -0.93      0.00
    2   13   15     -0.41      0.00
    0    2   16      1.45      0.00
    1    2   16      0.83      0.00
    2    3   16     -1.07      0.00
    3    5   16      0.86      0.00
    0    8   17     -1.22      0.00
    0    0    0      0.00      0.00
# SQUEEZE RESULTS (Version = 121219)
# Note: Data are Listed for all Voids in the P1 Unit Cell
# i.e. Centre of Gravity, Solvent Accessible Volume,
# Recovered number of Electrons in the Void and
# Details about the Squeezed Material
loop_
  _platon_squeeze_void_nr
  _platon_squeeze_void_average_x
  _platon_squeeze_void_average_y
  _platon_squeeze_void_average_z
  _platon_squeeze_void_volume
  _platon_squeeze_void_count_electrons
  _platon_squeeze_void_content
   1 -0.032 -0.000  0.000       315        87 ' '
# Missing Reflections Below sin(th)/lambda = 0.25
loop_
  _platon_missing_refln_index_h
  _platon_missing_refln_index_k
  _platon_missing_refln_index_l
  _platon_missing_refln_theta
    0    1    0     1.815
    0   -1    1     3.049
    0    0    1     1.745
    0    1    1     1.842
    0    2    1     3.215
    0    1    2     3.096
_platon_squeeze_void_probe_radius                  1.20
_platon_squeeze_details
)
TITL bmo_y in P-1; 130K; Xcalibur
CELL    6.0453   12.6860   13.2051     62.17     86.83     87.58
SPGR P-1
# Solvent Accessible Volume =       315
# Electrons Found in S.A.V. =        86
# Note: Atoms in Void are Labelled as Cxxx and Qxxx for all Others
Q101 0.125 0.240 0.031 !       6.26 eA-3
C102 0.812 0.702 0.172 !       3.80 eA-3
C103 0.374 0.775 0.017 !       3.31 eA-3
C104 0.775 0.785 0.030 !       2.80 eA-3
C105 0.803 0.891 0.015 !       2.23 eA-3
C106 0.864 0.811 0.196 !       2.17 eA-3
C107 0.788 0.922 0.105 !       2.10 eA-3
C108 0.997 0.873 0.062 !       1.99 eA-3
C109 0.154 0.967 0.041 !       1.87 eA-3
Q110 0.127 0.222 0.230 !       1.78 eA-3
C111 0.777 0.108 0.093 !       1.71 eA-3
C112 0.832 0.843 0.136 !       1.71 eA-3
C113 0.977 0.147 0.031 !       1.67 eA-3
Q114 0.149 0.374 0.331 !       1.65 eA-3
Q115 0.415 0.108 0.418 !       1.64 eA-3
Q116 0.495 0.322 0.451 !       1.61 eA-3
Q117 0.320 0.536 0.256 !       1.60 eA-3
Q118 0.027 0.985 0.354 !       1.52 eA-3
Q119 0.541 0.360 0.205 !       1.52 eA-3
Q120 0.344 0.336 0.316 !       1.45 eA-3
Q121 0.121 0.532 0.414 !       1.44 eA-3
C122 0.250 0.017 0.088 !       1.37 eA-3
Q123 0.827 0.359 0.305 !       1.35 eA-3
Q124 0.054 0.182 0.487 !       1.30 eA-3
Q125 0.068 0.442 0.437 !       1.28 eA-3
Q126 0.426 0.868 0.331 !       1.27 eA-3
Q127 0.084 0.468 0.108 !       1.24 eA-3
C128 0.600 0.143 0.094 !       1.20 eA-3
Q129 0.212 0.291 0.381 !       1.19 eA-3
C130 0.668 0.035 0.063 !       1.16 eA-3
C131 0.676 0.009 0.123 !       1.15 eA-3
C132 0.806 0.999 0.057 !       1.15 eA-3
Q133 0.288 0.375 0.300 !       1.13 eA-3
Q134 0.339 0.719 0.230 !       1.11 eA-3
Q135 0.783 0.467-0.001 !       1.10 eA-3
Q136 0.387 0.815 0.309 !       1.08 eA-3
Q137 0.057 0.608 0.471 !       1.08 eA-3
Q138 0.286 0.298 0.311 !       1.07 eA-3
C139 0.621 0.826 0.068 !       1.05 eA-3
Q140 0.877 0.445 0.102 !       1.03 eA-3
Q141 0.472 0.724 0.489 !       1.03 eA-3
Q142 0.687 0.972 0.462 !       1.02 eA-3
Q143 0.274 0.595 0.296 !       1.02 eA-3
Q144 0.908 0.928 0.435 !       0.99 eA-3
Q145 0.133 0.231 0.171 !       0.99 eA-3
C146 0.447 0.132 0.012 !       0.98 eA-3
Q147 0.528 0.306 0.310 !       0.97 eA-3
C148 0.555 0.941 0.038 !       0.97 eA-3
Q149 0.724 0.380 0.208 !       0.97 eA-3
Q150 0.088 0.124 0.285 !       0.96 eA-3
Q151 0.221 0.718 0.017 !       0.91 eA-3
Q152 0.601 0.073 0.407 !       0.91 eA-3
C153 0.440 0.952 0.016 !       0.86 eA-3
Q154 0.852 0.059 0.158 !       0.85 eA-3
Q155 0.150 0.312 0.298 !       0.81 eA-3
Q156 0.187 0.223 0.106 !       0.80 eA-3
Q157 0.602 0.751 0.068 !       0.80 eA-3
Q158 0.493 0.800 0.296 !       0.77 eA-3
C159 0.398 0.205 0.001 !       0.76 eA-3
C160 0.366 0.952 0.099 !       0.74 eA-3
Q161 0.980 0.308 0.057 !       0.73 eA-3
C162 0.429 0.030 0.036 !       0.72 eA-3
Q163 0.527 0.682 0.063 !       0.71 eA-3
Q164 0.629 0.339 0.410 !       0.70 eA-3
Q165 0.196 0.691 0.247 !       0.69 eA-3
Q166 0.333 0.249 0.110 !       0.69 eA-3
Q167 0.811 0.767 0.297 !       0.69 eA-3
Q168 0.112 0.434 0.251 !       0.69 eA-3
Q169 0.057 0.216 0.109 !       0.68 eA-3
Q170 0.380 0.173 0.389 !       0.68 eA-3
Q171 0.683 0.843 0.150 !       0.66 eA-3
C172 0.505 0.173 0.055 !       0.65 eA-3
C173 0.908 0.223 0.052 !       0.65 eA-3
C174 1.000 1.000-0.000 !       0.65 eA-3
Q175 0.734 0.846 0.239 !       0.65 eA-3
C176 0.701 0.668 0.097 !       0.64 eA-3
Q177 0.767 0.438 0.328 !       0.64 eA-3
Q178 0.395 0.672 0.298 !       0.63 eA-3
Q179 0.872 0.060 0.424 !       0.62 eA-3
Q180 0.962 0.936 0.219 !       0.61 eA-3
Q181 0.221 0.929 0.136 !       0.61 eA-3
Q182 0.085 0.055 0.258 !       0.60 eA-3
Q183 0.084 0.750 0.115 !       0.60 eA-3
Q184 0.577 0.658 0.359 !       0.60 eA-3
Q185 0.468 0.566 0.203 !       0.60 eA-3
Q186 0.070 0.239 0.403 !       0.60 eA-3
Q187 0.678 0.268 0.332 !       0.60 eA-3
Q188 0.717 0.830 0.338 !       0.60 eA-3
Q189 0.844 0.660 0.313 !       0.58 eA-3
C190 0.547 0.046 0.091 !       0.58 eA-3
C191 0.883 0.167 0.087 !       0.58 eA-3
Q192 0.508 0.766 0.127 !       0.57 eA-3
C193 0.775 0.965 0.177 !       0.56 eA-3
Q194 0.878 0.125 0.155 !       0.56 eA-3
C195 0.882 0.873 0.186 !       0.55 eA-3
Q196 0.530 0.654 0.140 !       0.55 eA-3
Q197 0.832 0.904 0.260 !       0.55 eA-3
Q198 0.227 0.032 0.264 !       0.55 eA-3
Q199 0.525 0.950 0.141 !       0.54 eA-3
)
;
_shelx_fab_checksum              15116
loop_
_space_group_symop_operation_xyz
'x, y, z'
'-x, -y, -z'
loop_
_atom_site_label
_atom_site_type_symbol
_atom_site_fract_x
_atom_site_fract_y
_atom_site_fract_z
_atom_site_U_iso_or_equiv
_atom_site_adp_type
_atom_site_occupancy
_atom_site_site_symmetry_order
_atom_site_calc_flag
_atom_site_refinement_flags_posn
_atom_site_refinement_flags_adp
_atom_site_refinement_flags_occupancy
_atom_site_disorder_assembly
_atom_site_disorder_group
Y1 Y 0.21829(5) 0.33506(2) 0.31879(2) 0.00891(9) Uani 1 1 d . . . . .
O1M O 0.4877(3) 0.32747(19) 0.44603(18) 0.0157(5) Uani 1 1 d D . . . .
H11M H 0.514(5) 0.269(2) 0.5113(13) 0.019 Uiso 1 1 d D U . . .
H12M H 0.611(3) 0.346(2) 0.407(2) 0.019 Uiso 1 1 d D U . . .
O2M O 0.1263(4) 0.21303(18) 0.23704(18) 0.0166(5) Uani 1 1 d D . . . .
H21M H 0.106(6) 0.1383(11) 0.2785(19) 0.020 Uiso 1 1 d D U . . .
H22M H 0.149(6) 0.226(2) 0.1683(10) 0.020 Uiso 1 1 d D U . . .
C11 C 0.7356(5) 0.3843(2) 0.2050(3) 0.0120(6) Uani 1 1 d . . . . .
N11 N 1.0843(4) 0.4621(2) 0.1079(2) 0.0111(5) Uani 1 1 d . . . . .
O11 O 0.5389(3) 0.35789(17) 0.20052(17) 0.0135(4) Uani 1 1 d . . . . .
C12 C 0.8745(5) 0.4416(2) 0.0949(2) 0.0112(6) Uani 1 1 d . . . . .
O12 O 0.8307(3) 0.36820(18) 0.29394(17) 0.0155(5) Uani 1 1 d . . . . .
C13 C 1.2088(5) 0.5223(3) 0.0127(2) 0.0123(6) Uani 1 1 d . . . . .
H13 H 1.356761 0.540792 0.018481 0.015 Uiso 1 1 calc R U . . .
N21 N 0.0628(4) 0.4351(2) 0.4416(2) 0.0135(5) Uani 1 1 d . . . . .
C21 C -0.0629(5) 0.3879(3) 0.5382(3) 0.0164(7) Uani 1 1 d . . . . .
H21 H -0.110499 0.308159 0.567858 0.020 Uiso 1 1 calc R U . . .
O21 O 0.3125(4) 0.53212(18) 0.24935(18) 0.0175(5) Uani 1 1 d . . . . .
O22 O 0.3361(6) 0.7026(2) 0.2570(2) 0.0563(10) Uani 1 1 d . . . . .
C22 C 0.1264(5) 0.5479(3) 0.4031(3) 0.0154(7) Uani 1 1 d . . . . .
C23 C 0.2718(6) 0.5995(3) 0.2952(3) 0.0235(8) Uani 1 1 d . . . . .
C31 C 0.0895(5) 0.0867(3) 0.5508(3) 0.0122(6) Uani 1 1 d . . . . .
N31 N 0.4166(4) 0.1141(2) 0.4287(2) 0.0113(5) Uani 1 1 d . . . . .
O31 O -0.0272(4) 0.02077(18) 0.63595(18) 0.0177(5) Uani 1 1 d . . . . .
C32 C 0.3084(5) 0.0390(3) 0.5250(2) 0.0122(6) Uani 1 1 d . . . . .
O32 O 0.0402(3) 0.19327(17) 0.48001(17) 0.0142(5) Uani 1 1 d . . . . .
C33 C 0.6107(5) 0.0737(3) 0.4038(3) 0.0139(6) Uani 1 1 d . . . . .
H33 H 0.693584 0.123750 0.336016 0.017 Uiso 1 1 calc R U . . .
O1W O -0.4270(4) 0.1433(2) 0.65491(19) 0.0217(5) Uani 1 1 d D . . . .
H11W H -0.400(5) 0.181(3) 0.693(3) 0.026 Uiso 1 1 d D U . . .
H12W H -0.307(3) 0.104(3) 0.655(3) 0.026 Uiso 1 1 d D U . . .
loop_
_atom_site_aniso_label
_atom_site_aniso_U_11
_atom_site_aniso_U_22
_atom_site_aniso_U_33
_atom_site_aniso_U_23
_atom_site_aniso_U_13
_atom_site_aniso_U_12
Y1 0.00670(15) 0.01080(14) 0.00857(15) -0.00391(12) 0.00002(10) -0.00105(10)
O1M 0.0095(11) 0.0255(12) 0.0110(11) -0.0074(10) 0.0005(9) -0.0024(9)
O2M 0.0252(13) 0.0115(10) 0.0097(11) -0.0018(9) -0.0008(9) -0.0036(9)
C11 0.0077(15) 0.0123(14) 0.0137(15) -0.0044(13) 0.0008(12) 0.0028(12)
N11 0.0073(13) 0.0135(12) 0.0116(13) -0.0051(11) -0.0013(10) 0.0018(10)
O11 0.0074(11) 0.0170(10) 0.0130(11) -0.0044(9) 0.0014(8) -0.0018(8)
C12 0.0087(15) 0.0117(13) 0.0112(15) -0.0037(12) 0.0004(12) -0.0003(12)
O12 0.0112(11) 0.0215(11) 0.0106(11) -0.0049(10) -0.0007(9) 0.0016(9)
C13 0.0063(14) 0.0170(15) 0.0131(15) -0.0063(13) -0.0015(12) -0.0002(12)
N21 0.0128(14) 0.0148(12) 0.0129(13) -0.0061(11) -0.0001(10) -0.0037(10)
C21 0.0171(17) 0.0152(15) 0.0182(17) -0.0089(14) 0.0038(13) -0.0047(13)
O21 0.0235(13) 0.0164(11) 0.0149(11) -0.0093(10) 0.0065(9) -0.0070(9)
O22 0.103(3) 0.0308(15) 0.0438(18) -0.0268(15) 0.0500(18) -0.0413(16)
C22 0.0169(17) 0.0146(15) 0.0158(16) -0.0084(14) 0.0035(13) -0.0019(13)
C23 0.033(2) 0.0162(16) 0.0221(19) -0.0101(15) 0.0122(16) -0.0133(15)
C31 0.0134(16) 0.0107(13) 0.0141(16) -0.0068(13) -0.0025(12) -0.0020(12)
N31 0.0097(13) 0.0133(12) 0.0111(13) -0.0055(11) -0.0027(10) -0.0024(10)
O31 0.0156(12) 0.0148(10) 0.0182(12) -0.0042(10) 0.0036(9) -0.0014(9)
C32 0.0112(15) 0.0145(14) 0.0117(15) -0.0066(13) -0.0017(12) -0.0016(12)
O32 0.0132(12) 0.0124(10) 0.0136(11) -0.0032(9) 0.0004(9) -0.0001(9)
C33 0.0131(16) 0.0151(15) 0.0105(15) -0.0033(13) -0.0016(12) -0.0006(12)
O1W 0.0224(14) 0.0241(12) 0.0229(13) -0.0145(11) -0.0011(10) 0.0000(10)
loop_
_atom_type_symbol
_atom_type_description
_atom_type_scat_dispersion_real
_atom_type_scat_dispersion_imag
_atom_type_scat_source
C C 0.0033 0.0016 'International Tables Vol C Tables 4.2.6.8 and 6.1.1.4'
H H 0.0000 0.0000 'International Tables Vol C Tables 4.2.6.8 and 6.1.1.4'
N N 0.0061 0.0033 'International Tables Vol C Tables 4.2.6.8 and 6.1.1.4'
O O 0.0106 0.0060 'International Tables Vol C Tables 4.2.6.8 and 6.1.1.4'
Y Y -2.7962 3.5667 'International Tables Vol C Tables 4.2.6.8 and 6.1.1.4'
loop_
_geom_angle_atom_site_label_1
_geom_angle_atom_site_label_2
_geom_angle_atom_site_label_3
_geom_angle
_geom_angle_site_symmetry_1
_geom_angle_site_symmetry_3
_geom_angle_publ_flag
O1M Y1 N11 142.71(8) . 1_455 ?
O1M Y1 O12 139.30(7) . 1_455 ?
O1M Y1 N21 69.68(7) . . ?
O1M Y1 N31 67.94(7) . . ?
O2M Y1 O1M 135.46(7) . . ?
O2M Y1 N11 68.20(7) . 1_455 ?
O2M Y1 O11 80.27(7) . . ?
O2M Y1 O12 76.34(7) . 1_455 ?
O2M Y1 N21 143.93(8) . . ?
O2M Y1 N31 68.78(7) . . ?
N11 Y1 N31 132.31(7) 1_455 . ?
O11 Y1 O1M 81.23(7) . . ?
O11 Y1 N11 75.22(7) . 1_455 ?
O11 Y1 O12 136.75(7) . 1_455 ?
O11 Y1 N21 135.03(8) . . ?
O11 Y1 N31 78.20(7) . . ?
O12 Y1 N11 62.47(7) 1_455 1_455 ?
O12 Y1 N21 71.21(8) 1_455 . ?
O12 Y1 N31 124.20(7) 1_455 . ?
N21 Y1 N11 108.47(7) . 1_455 ?
N21 Y1 N31 118.33(7) . . ?
O21 Y1 O1M 76.40(8) . . ?
O21 Y1 O2M 135.60(7) . . ?
O21 Y1 N11 69.97(8) . 1_455 ?
O21 Y1 O11 75.36(7) . . ?
O21 Y1 O12 97.06(8) . 1_455 ?
O21 Y1 N21 65.14(7) . . ?
O21 Y1 N31 138.17(8) . . ?
O32 Y1 O1M 85.12(8) . . ?
O32 Y1 O2M 84.02(7) . . ?
O32 Y1 N11 130.84(8) . 1_455 ?
O32 Y1 O11 140.42(7) . . ?
O32 Y1 O12 72.23(7) . 1_455 ?
O32 Y1 N21 71.56(7) . . ?
O32 Y1 O21 136.48(7) . . ?
O32 Y1 N31 62.25(7) . . ?
Y1 O1M H11M 126(2) . . ?
Y1 O1M H12M 106(2) . . ?
H11M O1M H12M 107.4(15) . . ?
Y1 O2M H21M 121.4(19) . . ?
Y1 O2M H22M 128.1(19) . . ?
H21M O2M H22M 107.6(15) . . ?
O11 C11 C12 118.4(3) . . ?
O11 C11 O12 126.2(3) . . ?
O12 C11 C12 115.4(3) . . ?
C12 N11 Y1 113.66(18) . 1_655 ?
C13 N11 Y1 127.6(2) . 1_655 ?
C13 N11 C12 117.1(3) . . ?
C11 O11 Y1 132.72(18) . . ?
N11 C12 C11 114.6(3) . . ?
N11 C12 C13 121.8(3) . 2_765 ?
C13 C12 C11 123.5(3) 2_765 . ?
C11 O12 Y1 124.27(17) . 1_655 ?
N11 C13 C12 121.0(3) . 2_765 ?
N11 C13 H13 119.5 . . ?
C12 C13 H13 119.5 2_765 . ?
C21 N21 Y1 128.77(19) . . ?
C21 N21 C22 116.9(3) . . ?
C22 N21 Y1 114.26(18) . . ?
N21 C21 H21 119.0 . . ?
N21 C21 C22 122.0(3) . 2_566 ?
C22 C21 H21 119.0 2_566 . ?
C23 O21 Y1 128.14(19) . . ?
N21 C22 C21 121.1(3) . 2_566 ?
N21 C22 C23 116.5(3) . . ?
C21 C22 C23 122.4(3) 2_566 . ?
O21 C23 C22 115.7(3) . . ?
O22 C23 O21 125.4(3) . . ?
O22 C23 C22 118.9(3) . . ?
O31 C31 C32 119.5(2) . . ?
O31 C31 O32 125.2(3) . . ?
O32 C31 C32 115.3(2) . . ?
C32 N31 Y1 113.92(17) . . ?
C32 N31 C33 116.2(2) . . ?
C33 N31 Y1 129.74(19) . . ?
N31 C32 C31 115.1(2) . . ?
N31 C32 C33 122.5(3) . 2_656 ?
C33 C32 C31 122.3(3) 2_656 . ?
C31 O32 Y1 133.19(18) . . ?
N31 C33 C32 121.3(3) . 2_656 ?
N31 C33 H33 119.4 . . ?
C32 C33 H33 119.4 2_656 . ?
H11W O1W H12W 106.4(16) . . ?
loop_
_geom_bond_atom_site_label_1
_geom_bond_atom_site_label_2
_geom_bond_distance
_geom_bond_site_symmetry_2
_geom_bond_publ_flag
Y1 O1M 2.371(2) . yes
Y1 O2M 2.360(2) . yes
Y1 N11 2.638(2) 1_455 yes
Y1 O11 2.3602(19) . yes
Y1 O12 2.377(2) 1_455 yes
Y1 N21 2.604(2) . yes
Y1 O21 2.310(2) . yes
Y1 N31 2.740(2) . yes
Y1 O32 2.294(2) . yes
O1M H11M 0.852(10) . ?
O1M H12M 0.857(10) . ?
O2M H21M 0.856(10) . ?
O2M H22M 0.849(10) . ?
C11 O11 1.261(3) . ?
C11 C12 1.509(4) . ?
C11 O12 1.262(4) . ?
N11 C12 1.341(4) . ?
N11 C13 1.334(4) . ?
C12 C13 1.391(4) 2_765 ?
C13 H13 0.9500 . ?
N21 C21 1.334(4) . ?
N21 C22 1.342(4) . ?
C21 H21 0.9500 . ?
C21 C22 1.393(4) 2_566 ?
O21 C23 1.268(4) . ?
O22 C23 1.233(4) . ?
C22 C23 1.506(4) . ?
C31 O31 1.243(3) . ?
C31 C32 1.519(4) . ?
C31 O32 1.268(3) . ?
N31 C32 1.335(4) . ?
N31 C33 1.346(4) . ?
C32 C33 1.381(4) 2_656 ?
C33 H33 0.9500 . ?
O1W H11W 0.867(10) . ?
O1W H12W 0.866(10) . ?
