#------------------------------------------------------------------------------
#$Date: 2021-02-05 01:04:31 +0200 (Fri, 05 Feb 2021) $
#$Revision: 261628 $
#$URL: file:///home/coder/svn-repositories/cod/cif/7/24/18/7241851.cif $
#------------------------------------------------------------------------------
#
# This file is available in the Crystallography Open Database (COD),
# http://www.crystallography.net/
#
# All data on this site have been placed in the public domain by the
# contributors.
#
data_7241851
loop_
_publ_author_name
'Gu\'nka, Piotr A.'
'Hanfland, Michael'
'Chen, Yu-Sheng'
'Zachara, Janusz'
_publ_section_title
;
 High-pressure and low-temperature structural study of claudetite I, a
 monoclinic layered As2O3 polymorph
;
_journal_issue                   3
_journal_name_full               CrystEngComm
_journal_page_first              638
_journal_page_last               644
_journal_paper_doi               10.1039/D0CE01401J
_journal_volume                  23
_journal_year                    2021
_chemical_formula_moiety         'As2 O3'
_chemical_formula_sum            'As2 O3'
_chemical_formula_weight         197.84
_chemical_name_common            'claudetite I'
_chemical_name_systematic
;
arsenic(III) oxide
;
_space_group_IT_number           14
_space_group_name_Hall           '-P 2yn'
_space_group_name_H-M_alt        'P 1 21/n 1'
_symmetry_cell_setting           monoclinic
_symmetry_space_group_name_H-M   'P 1 21/n 1'
_audit_creation_date             2020-10-21T14:57
_audit_creation_method           'created in GSAS-II'
_audit_update_record
;
2020-10-22 deposited with the CCDC.	2020-12-10 downloaded from the CCDC.
;
_cell_angle_alpha                90
_cell_angle_beta                 94.7684(30)
_cell_angle_gamma                90
_cell_formula_units_Z            4
_cell_length_a                   4.6657(4)
_cell_length_b                   11.6700(6)
_cell_length_c                   4.10270(28)
_cell_measurement_pressure       2.064e7(5)
_cell_measurement_temperature    293
_cell_volume                     222.61(3)
_computing_data_reduction        Fit2D
_computing_structure_refinement
'GSAS-II (Toby & Von Dreele, J. Appl. Cryst. 46, 544-549, 2013)'
_diffrn_ambient_pressure         2.064e7(5)
_diffrn_ambient_temperature      293
_diffrn_detector                 'Mar555 flat panel'
_diffrn_detector_type            'Mar555 flat panel'
_diffrn_measurement_device_type  'ESRF ID09A beamline'
_diffrn_radiation_monochromator  Si
_diffrn_radiation_polarisn_ratio 0.9900
_diffrn_radiation_probe          x-ray
_diffrn_radiation_wavelength     0.41421
_diffrn_source                   'ESRF ID09A'
_diffrn_source_type              synchrotron
_exptl_crystal_colour            colourless
_exptl_crystal_density_diffrn    5.9031
_exptl_crystal_description       'white powder'
_pd_block_id                     2020-10-21T14:57|clau1_025rietveld||id09a
_pd_calc_method                  'Rietveld Refinement'
_pd_meas_number_of_points        4000
_pd_phase_name                   claudetiteI
_pd_prep_pressure                100.0(1)
_pd_prep_temperature             293
_pd_proc_info_datetime           2020-10-21T14:57
_pd_proc_ls_background_function
;
Background function: "chebyschev" function with 30 terms:
    723.2(7), 475.7(27), 1661(7), -5088(17), -92410(16), 140895(24), 
    2.321328(5)e6, -2.679400(15)e6, -2.9821572(12)e7, 3.0628777(10)e7, 
    2.24693570(13)e8, -2.14122594(22)e8, -1.087205839(9)e9, 9.72083466(22)e8, 
    3.566032314(5)e9, -3.003356319(12)e9, -8.170649781(9)e9, 
    6.496592495(8)e9, 1.3241346002(13)e10, -9.958257970(19)e9, 
    -1.5128080987(15)e10, 1.0780241087(26)e10, 1.1925846770(12)e10, 
    -8.066150999(25)e9, -6.176410630(6)e9, 3.971416256(14)e9, 
    1.891719641(8)e9, -1.158120704(10)e9, -2.59700153(24)e8, 
    1.5158993(4)e8, 
;
_pd_proc_ls_pref_orient_corr
;
Simple spherical harmonic correction Order = 6
    Coefficients:  0:0:C(6,6) = 0.013(21); 0:0:C(4,4) = 0.173(20); 
    0:0:C(6,-2) = 0.010(25); 0:0:C(2,-2) = 0.132(14); 0:0:C(4,-4) = -0.132(18); 
    0:0:C(2,2) = 0.404(14); 0:0:C(4,0) = -0.106(16); 0:0:C(6,-6) = -0.137(26); 
    0:0:C(6,4) = -0.222(24); 0:0:C(4,2) = 0.022(18); 0:0:C(6,2) = 0.071(24); 
    0:0:C(6,-4) = 0.092(19); 0:0:C(6,0) = -0.162(23); 0:0:C(2,0) = -0.325(13); 
    0:0:C(4,-2) = 0.050(18); 
;
_pd_proc_ls_profile_function
;
Finger-Cox-Jephcoat function parameters U, V, W, X, Y, SH/L:
  peak variance(Gauss) = Utan(Th)^2^+Vtan(Th)+W:
  peak HW(Lorentz) = X/cos(Th)+Ytan(Th); SH/L = S/L+H/L
  U, V, W in (centideg)^2^, X & Y in centideg
    3.4(3)e3, -4.2(6)e2, 18.0(27), 3.8(3), -14(9), 0.002, 
  Crystallite size in microns with "isotropic" model:
  parameters: Size, G/L mix
    1.000, 1.000, 
  Microstrain, "isotropic" model (10^6^ * delta Q/Q)
    parameters: Mustrain, G/L mix
    1000.000, 1.000, 

;
_pd_proc_ls_prof_R_factor        0.00702
_pd_proc_ls_prof_wR_expected     0.03615
_pd_proc_ls_prof_wR_factor       0.01064
_refine_ls_goodness_of_fit_all   0.299
_refine_ls_matrix_type           full
_refine_ls_number_parameters     72
_refine_ls_R_Fsqd_factor         0.03770
_refine_ls_shift/su_max          0.0011
_refine_ls_wR_factor_obs         0.01064
_reflns_d_resolution_high        1.111
_reflns_d_resolution_low         5.835
_reflns_limit_h_max              4
_reflns_limit_h_min              0
_reflns_limit_k_max              10
_reflns_limit_k_min              0
_reflns_limit_l_max              3
_reflns_limit_l_min              -3
_reflns_number_total             171
_cod_data_source_file            d0ce01401j3.cif
_cod_data_source_block           clau1_025rietveld
_cod_depositor_comments
'Adding full bibliography for 7241824--7241862.cif.'
_cod_original_cell_volume        222.612(13)
_cod_database_code               7241851
_refine_ls_r_f_factor            0.02351
_gsas_proc_ls_prof_r_b_factor    0.01247
_gsas_proc_ls_prof_wr_b_factor   0.02157
loop_
_space_group_symop_id
_space_group_symop_operation_xyz
1 x,y,z
2 1/2-x,1/2+y,1/2-z
3 -x,-y,-z
4 1/2+x,1/2-y,1/2+z
loop_
_atom_site_label
_atom_site_type_symbol
_atom_site_fract_x
_atom_site_fract_y
_atom_site_fract_z
_atom_site_occupancy
_atom_site_adp_type
_atom_site_U_iso_or_equiv
_atom_site_symmetry_multiplicity
As1 As 0.2859(7) 0.08729(27) 0.0741(6) 1.000 Uiso 0.0186(15) 4
As2 As 0.3214(6) 0.35890(32) 0.0313(6) 1.000 Uiso 0.0186 4
O3 O 0.4676(17) 0.2204(3) 0.103(4) 1.000 Uiso 0.0186 4
O4 O 0.6598(18) 0.4206(12) 0.1548(13) 1.000 Uiso 0.0186 4
O5 O -0.0734(17) 0.1260(19) 0.1284(11) 1.000 Uiso 0.0186 4
loop_
_atom_type_symbol
_atom_type_number_in_cell
_atom_type_scat_Cromer_Mann_a1
_atom_type_scat_Cromer_Mann_a2
_atom_type_scat_Cromer_Mann_a3
_atom_type_scat_Cromer_Mann_a4
_atom_type_scat_Cromer_Mann_b1
_atom_type_scat_Cromer_Mann_b2
_atom_type_scat_Cromer_Mann_b3
_atom_type_scat_Cromer_Mann_b4
_atom_type_scat_Cromer_Mann_c
_atom_type_scat_length_neutron
_atom_type_scat_source
_atom_type_scat_dispersion_real
_atom_type_scat_dispersion_imag
_atom_type_scat_dispersion_source
As 8 16.6723 6.0701 3.4313 4.2779 2.6345 0.2647 12.9479 47.7972 2.531 0.658
https://subversion.xray.aps.anl.gov/pyGSAS/trunk/atmdata.py 0.283 0.775
https://subversion.xray.aps.anl.gov/pyGSAS/trunk/atmdata.py
O 12 3.0485 2.2868 1.5463 0.867 13.2771 5.7011 0.3239 32.9089 0.2508 0.5805
https://subversion.xray.aps.anl.gov/pyGSAS/trunk/atmdata.py 0.002 0.002
https://subversion.xray.aps.anl.gov/pyGSAS/trunk/atmdata.py
loop_
_geom_angle_atom_site_label_1
_geom_angle_atom_site_label_2
_geom_angle_atom_site_label_3
_geom_angle
_geom_angle_site_symmetry_1
_geom_angle_site_symmetry_2
_geom_angle_site_symmetry_3
_geom_angle_publ_flag
O3 As1 O4 103.2(7) 1_555 1_555 4_454 yes
O3 As1 O5 102.8(9) 1_555 1_555 1_555 yes
O4 As1 O5 83.90(31) 4_454 1_555 1_555 yes
O3 As2 O4 90.1(5) 1_555 1_555 1_555 yes
O3 As2 O5 96.5(10) 1_555 1_555 4_554 yes
O4 As2 O5 85.23(31) 1_555 1_555 4_554 yes
As1 O3 As2 128.0(5) 1_555 1_555 1_555 yes
As1 O4 As2 118.2(3) 4_555 1_555 1_555 yes
As1 O5 As2 118.8(4) 1_555 1_555 4_455 yes
loop_
_geom_bond_atom_site_label_1
_geom_bond_atom_site_label_2
_geom_bond_distance
_geom_bond_site_symmetry_1
_geom_bond_site_symmetry_2
_geom_bond_publ_flag
As1 O3 1.7684(29) 1_555 1_555 yes
As1 O4 1.7736(29) 1_555 4_454 yes
As1 O5 1.7681(29) 1_555 1_555 yes
As2 O3 1.7697(29) 1_555 1_555 yes
As2 O4 1.7704(29) 1_555 1_555 yes
As2 O5 1.7719(29) 1_555 4_554 yes
loop_
_pd_meas_2theta_scan
_pd_meas_intensity_total
_pd_calc_intensity_total
_pd_proc_intensity_bkg_calc
_pd_proc_ls_weight
0.00440 123.06828 0 0 0
0.01321 115.82195 0 0 0
0.02202 112.43443 0 0 0
0.03083 107.48361 0 0 0
0.03963 104.55753 0 0 0
0.04844 104.61485 0 0 0
0.05725 105.0751 0 0 0
0.06605 105.06104 0 0 0
0.07486 103.69389 0 0 0
0.08367 102.17377 0 0 0
0.09248 103.27356 0 0 0
0.10128 104.67896 0 0 0
0.11009 106.52628 0 0 0
0.11890 109.24891 0 0 0
0.12770 108.70357 0 0 0
0.13651 108.45874 0 0 0
0.14532 108.85057 0 0 0
0.15413 111.32442 0 0 0
0.16293 110.73145 0 0 0
0.17174 108.90695 0 0 0
0.18055 108.39747 0 0 0
0.18935 107.86208 0 0 0
0.19816 108.68879 0 0 0
0.20697 107.66699 0 0 0
0.21578 107.47379 0 0 0
0.22458 107.01423 0 0 0
0.23339 107.50678 0 0 0
0.24220 107.35281 0 0 0
0.25100 107.17912 0 0 0
0.25981 106.12163 0 0 0
0.26862 108.13924 0 0 0
0.27743 108.98808 0 0 0
0.28623 108.78832 0 0 0
0.29504 109.22881 0 0 0
0.30385 109.91425 0 0 0
0.31265 110.84901 0 0 0
0.32146 112.03144 0 0 0
0.33027 111.14752 0 0 0
0.33908 110.91816 0 0 0
0.34788 110.97868 0 0 0
0.35669 111.50385 0 0 0
0.36550 111.29334 0 0 0
0.37430 112.01748 0 0 0
0.38311 111.93255 0 0 0
0.39192 110.80527 0 0 0
0.40073 110.72588 0 0 0
0.40953 110.99831 0 0 0
0.41834 111.36917 0 0 0
0.42715 110.85341 0 0 0
0.43595 110.11614 0 0 0
0.44476 109.56349 0 0 0
0.45357 110.29103 0 0 0
0.46238 110.25166 0 0 0
0.47118 109.13911 0 0 0
0.47999 108.57996 0 0 0
0.48880 108.86388 0 0 0
0.49760 109.38983 0 0 0
0.50641 108.83041 0 0 0
0.51522 107.93418 0 0 0
0.52403 107.68681 0 0 0
0.53283 109.04915 0 0 0
0.54164 110.11501 0 0 0
0.55045 111.02312 0 0 0
0.55926 110.51357 0 0 0
0.56806 109.90195 0 0 0
0.57687 109.89348 0 0 0
0.58568 110.08709 0 0 0
0.59448 109.71117 0 0 0
0.60329 109.37183 0 0 0
0.61210 110.00825 0 0 0
0.62091 111.00324 0 0 0
0.62971 110.64145 0 0 0
0.63852 110.46265 0 0 0
0.64733 110.70956 0 0 0
0.65613 112.86089 0 0 0
0.66494 113.2354 0 0 0
0.67375 113.19689 0 0 0
0.68256 112.62932 0 0 0
0.69136 112.03389 0 0 0
0.70017 112.63405 0 0 0
0.70898 111.2351 0 0 0
0.71778 110.21129 0 0 0
0.72659 110.42124 0 0 0
0.73540 110.97073 0 0 0
0.74421 111.34173 0 0 0
0.75301 111.77851 0 0 0
0.76182 111.3614 0 0 0
0.77063 111.01154 0 0 0
0.77943 111.51289 0 0 0
0.78824 111.86325 0 0 0
0.79705 111.86622 0 0 0
0.80586 112.16996 0 0 0
0.81466 112.05596 0 0 0
0.82347 112.22748 0 0 0
0.83228 113.18121 0 0 0
0.84108 115.23867 0 0 0
0.84989 116.31284 0 0 0
0.85870 115.23333 0 0 0
0.86751 115.23854 0 0 0
0.87631 116.02122 0 0 0
0.88512 117.63974 0 0 0
0.89393 119.43647 0 0 0
0.90273 119.60737 0 0 0
0.91154 119.42091 0 0 0
0.92035 120.2237 0 0 0
0.92916 121.40786 0 0 0
0.93796 122.32737 0 0 0
0.94677 125.93938 0 0 0
0.95558 130.42052 0 0 0
0.96438 133.35637 0 0 0
0.97319 133.39085 0 0 0
0.98200 131.91475 0 0 0
0.99081 131.92305 0 0 0
0.99961 134.14125 0 0 0
1.00842 135.77423 0 0 0
1.01723 142.61548 0 0 0
1.02604 147.37704 0 0 0
1.03484 154.91643 0 0 0
1.04365 162.85268 0 0 0
1.05246 175.09631 0 0 0
1.06126 181.43454 0 0 0
1.07007 189.40489 0 0 0
1.07888 194.37791 0 0 0
1.08769 201.96959 0 0 0
1.09649 206.46957 0 0 0
1.10530 210.36282 0 0 0
1.11411 217.00439 0 0 0
1.12291 223.6754 0 0 0
1.13172 230.10144 0 0 0
1.14053 232.80016 0 0 0
1.14934 235.94788 0 0 0
1.15814 239.02934 0 0 0
1.16695 242.31322 0 0 0
1.17576 244.17639 0 0 0
1.18456 244.92224 0 0 0
1.19337 247.36139 0 0 0
1.20218 249.52757 0 0 0
1.21099 251.10664 0 0 0
1.21979 252.53984 0 0 0
1.22860 255.67264 0 0 0
1.23741 258.6763 0 0 0
1.24621 260.2869 0 0 0
1.25502 262.27454 0 0 0
1.26383 264.69992 0 0 0
1.27264 267.048 0 0 0
1.28144 267.61456 0 0 0
1.29025 268.04083 0 0 0
1.29906 269.2988 0 0 0
1.30786 271.85593 0 0 0
1.31667 274.53244 0 0 0
1.32548 276.15576 0 0 0
1.33429 277.49463 0 0 0
1.34309 278.60205 0 0 0
1.35190 279.20398 0 0 0
1.36071 279.75198 0 0 0
1.36951 280.65579 0 0 0
1.37832 282.25162 0 0 0
1.38713 284.48172 0 0 0
1.39594 285.93149 0 0 0
1.40474 285.72183 0 0 0
1.41355 285.78268 0 0 0
1.42236 287.85019 0 0 0
1.43116 289.91278 0 0 0
1.43997 291.82431 0 0 0
1.44878 294.09836 0 0 0
1.45759 294.67685 0 0 0
1.46639 294.02341 0 0 0
1.47520 294.79913 0 0 0
1.48401 296.88809 0 0 0
1.49281 299.12741 0 0 0
1.50162 299.27487 0 0 0
1.51043 299.42236 0 0 0
1.51924 299.86252 0 0 0
1.52804 300.43692 0 0 0
1.53685 300.9664 0 0 0
1.54566 302.12466 0 0 0
1.55446 303.59232 0 0 0
1.56327 304.68713 0 0 0
1.57208 305.80426 0 0 0
1.58089 306.26862 0 0 0
1.58969 307.89407 0 0 0
1.59850 308.45627 0 0 0
1.60731 309.33911 0 0 0
1.61612 310.47836 0 0 0
1.62492 311.77591 0 0 0
1.63373 312.61154 0 0 0
1.64254 313.07205 0 0 0
1.65134 313.37628 0 0 0
1.66015 313.13022 0 0 0
1.66896 314.03775 0 0 0
1.67777 315.09174 0 0 0
1.68657 316.50592 0 0 0
1.69538 316.77112 0 0 0
1.70419 317.54562 0 0 0
1.71299 318.42926 0 0 0
1.72180 319.67007 0 0 0
1.73061 320.72913 0 0 0
1.73942 320.57153 0 0 0
1.74822 321.55118 0 0 0
1.75703 322.72705 0 0 0
1.76584 324.37476 0 0 0
1.77464 324.57593 0 0 0
1.78345 324.96719 0 0 0
1.79226 325.754 0 0 0
1.80107 325.9129 0 0 0
1.80987 326.68137 0 0 0
1.81868 327.04965 0 0 0
1.82749 327.84067 0 0 0
1.83629 328.53555 0 0 0
1.84510 329.24475 0 0 0
1.85391 329.16217 0 0 0
1.86272 329.37247 328.388205 328.328046 0.003036076
1.87152 330.42807 329.858447 329.79806 0.003026377
1.88033 331.51605 331.150118 331.089501 0.003016445
1.88914 333.207 332.288421 332.227571 0.003001137
1.89794 334.14371 333.295856 333.234774 0.002992724
1.90675 334.25607 334.192457 334.13114 0.002991718
1.91556 333.33667 334.996048 334.934495 0.00299997
1.92437 333.62949 335.72236 335.660569 0.002997337
1.93317 335.36398 336.385258 336.323227 0.002981835
1.94198 337.16101 336.996881 336.934609 0.002965942
1.95079 338.04272 337.567847 337.505333 0.002958206
1.95959 337.93521 338.107343 338.044584 0.002959147
1.96840 337.32443 338.623285 338.56028 0.002964505
1.97721 337.95074 339.122441 339.059188 0.002959011
1.98602 339.21533 339.610536 339.547034 0.00294798
1.99482 340.3252 340.092397 340.028643 0.002938366
2.00363 340.72049 340.571987 340.507981 0.002934957
2.01244 341.59598 341.052537 340.988277 0.002927435
2.02124 341.90921 341.53662 341.472104 0.002924753
2.03005 342.75708 342.026231 341.961457 0.002917518
2.03886 342.63287 342.522864 342.45783 0.002918576
2.04767 343.2597 343.02966 342.962248 0.002913246
2.05647 343.91434 343.543045 343.475363 0.002907701
2.06528 345.22385 344.065429 343.997476 0.002896671
2.07409 346.07306 344.596851 344.528624 0.002889563
2.08289 345.80035 345.13706 345.068558 0.002891842
2.09170 346.05103 345.685674 345.616894 0.002889747
2.10051 346.49216 346.242079 346.173021 0.002886068
2.10932 347.30286 346.80555 346.73621 0.002879331
2.11812 347.48767 347.375258 347.305634 0.0028778
2.12693 347.82181 347.970565 347.880376 0.002875035
2.13574 348.22214 348.550001 348.459463 0.00287173
2.14455 349.314 349.132776 349.041888 0.002862754
2.15335 349.84998 349.717866 349.626626 0.002858368
2.16216 348.85886 350.304233 350.212638 0.002866489
2.17097 348.46503 350.89087 350.798917 0.002869728
2.17977 349.95621 351.476767 351.384454 0.0028575
2.18858 352.48981 352.060961 351.968285 0.002836961
2.19739 353.46664 352.642529 352.549489 0.002829121
2.20620 353.25052 353.220585 353.127178 0.002830852
2.21500 353.12952 353.806057 353.700524 0.002831822
2.22381 353.88608 354.374706 354.268765 0.002825768
2.23262 355.74194 354.937555 354.831204 0.002811026
2.24142 357.24167 355.493957 355.387192 0.002799226
2.25023 357.38083 356.043333 355.936152 0.002798136
2.25904 357.1319 356.585172 356.477573 0.002800086
2.26785 357.31952 357.119031 357.01101 0.002798616
2.27665 357.41974 357.644526 357.536079 0.002797831
2.28546 358.35385 358.161343 358.052469 0.002790538
2.29427 358.18048 358.669236 358.55993 0.002791889
2.30307 358.07913 359.168015 359.058275 0.002792679
2.31188 357.68832 359.657552 359.547375 0.00279573
2.32069 358.5206 360.137774 360.027157 0.00278924
2.32950 359.49225 360.60866 360.497599 0.002781701
2.33830 360.4469 361.070248 360.95874 0.002774334
2.34711 361.0835 361.52261 361.410652 0.002769443
2.35592 362.54446 361.986611 361.853464 0.002758282
2.36472 362.74298 362.421023 362.287358 0.002756773
2.37353 362.38342 362.846715 362.712529 0.002759508
2.38234 361.81168 363.263938 363.129226 0.002763869
2.39115 362.67871 363.672958 363.537717 0.002757261
2.39995 363.62689 364.074083 363.938309 0.002750072
2.40876 364.44638 364.467636 364.331325 0.002743888
2.41757 364.69415 364.853965 364.717113 0.002742024
2.42637 365.22565 365.23344 365.096044 0.002738033
2.43518 365.80847 365.606447 365.468502 0.002733671
2.44399 365.40225 365.973384 365.834886 0.00273671
2.45280 364.46835 366.33465 366.195595 0.002743722
2.46160 365.28485 366.698317 366.551048 0.00273759
2.47041 366.51022 367.049514 366.901657 0.002728437
2.47922 367.83356 367.396298 367.247849 0.002718621
2.48802 368.55405 367.739629 367.59003 0.002713306
2.49683 368.90585 368.078834 367.928632 0.002710719
2.50564 369.62921 368.414868 368.264059 0.002705414
2.51445 369.79691 368.748141 368.596719 0.002704187
2.52325 369.71329 369.079046 368.927008 0.002704799
2.53206 369.7579 369.407967 369.255308 0.002704472
2.54087 370.50153 369.735283 369.581998 0.002699044
2.54967 370.67697 370.061351 369.907435 0.002697767
2.55848 371.09634 370.386524 370.231972 0.002694718
2.56729 371.12936 370.711133 370.55594 0.002694478
2.57610 371.25275 371.035492 370.879653 0.002693583
2.58490 371.96854 371.359898 371.203408 0.002688399
2.59371 372.64273 371.684634 371.527488 0.002683536
2.60252 373.58005 372.009958 371.85215 0.002676802
2.61132 373.06165 372.336121 372.177646 0.002680522
2.62013 372.56573 372.663335 372.504188 0.00268409
2.62894 373.57031 372.991819 372.831993 0.002676872
2.63775 374.22699 373.321745 373.161236 0.002672175
2.64655 374.63666 373.653288 373.492089 0.002669253
2.65536 374.05215 373.986587 373.824693 0.002673424
2.66417 373.53326 374.321768 374.159173 0.002677138
2.67298 373.27631 374.658934 374.495632 0.002678981
2.68178 374.69397 374.998172 374.834157 0.002668845
2.69059 375.96594 375.339552 375.174818 0.002659815
2.69940 376.46964 375.683124 375.517663 0.002656257
2.70820 376.39258 376.028912 375.86272 0.002656801
2.71701 376.23187 376.376935 376.210005 0.002657935
2.72582 376.34589 376.727188 376.559512 0.00265713
2.73463 376.63593 377.079645 376.911217 0.002655084
2.74343 377.00751 377.434279 377.265093 0.002652467
2.75224 377.65378 377.791029 377.621077 0.002647928
2.76105 378.57678 378.149838 377.979113 0.002641472
2.76985 379.40067 378.510629 378.339125 0.002635736
2.77866 380.32089 378.873308 378.701016 0.002629359
2.78747 381.19901 379.237769 379.064682 0.002623302
2.79628 381.03302 379.603898 379.430009 0.002624444
2.80508 380.14529 379.97157 379.796871 0.002630573
2.81389 380.48413 380.340646 380.165129 0.002628231
2.82270 381.11502 380.710991 380.534648 0.00262388
2.83150 381.93036 381.082449 380.905272 0.002618278
2.84031 382.50076 381.454863 381.276844 0.002614374
2.84912 382.98486 381.828067 381.649196 0.002611069
2.85793 382.70184 382.20189 382.02216 0.002613
2.86673 382.81921 382.576155 382.395556 0.002612199
2.87554 383.02753 382.950691 382.769214 0.002610778
2.88435 383.68387 383.325312 383.142949 0.002606312
2.89315 384.23688 383.699823 383.516563 0.002602561
2.90196 385.74893 384.074062 383.889897 0.00259236
2.91077 386.70798 384.447831 384.262751 0.002585931
2.91958 386.62723 384.820943 384.634937 0.002586471
2.92838 385.9938 385.193215 385.006273 0.002590715
2.93719 385.45389 385.564459 385.376571 0.002594344
2.94600 385.25079 385.934491 385.745646 0.002595712
2.95480 385.41257 386.303193 386.113324 0.002594622
2.96361 385.97025 386.670274 386.479426 0.002590873
2.97242 386.90656 387.035615 386.843777 0.002584603
2.98123 387.70941 387.399048 387.206207 0.002579251
2.99003 388.19247 387.760403 387.566547 0.002576042
2.99884 387.63461 388.119529 387.924647 0.002579749
3.00765 387.1933 388.476268 388.280346 0.002582689
3.01645 388.49155 388.830471 388.633498 0.002574059
3.02526 389.80731 389.181985 388.983946 0.00256537
3.03407 390.1449 389.530699 389.331581 0.00256315
3.04288 389.51279 389.876472 389.676262 0.00256731
3.05168 389.98364 390.219183 390.017866 0.00256421
3.06049 391.06128 390.558718 390.35628 0.002557144
3.06930 391.21735 390.894972 390.691397 0.002556124
3.07810 390.64288 391.227842 391.023115 0.002559883
3.08691 390.35062 391.557246 391.351351 0.002561799
3.09572 391.07611 391.883098 391.676019 0.002557047
3.10453 391.52429 392.205324 391.997045 0.00255412
3.11333 391.85529 392.523859 392.314362 0.002551962
3.12214 391.45862 392.838643 392.627911 0.002554548
3.13095 391.82806 393.149635 392.937648 0.00255214
3.13976 392.00153 393.456789 393.24353 0.00255101
3.14856 392.76358 393.760076 393.545525 0.002546061
3.15737 392.49335 394.059461 393.843599 0.002547814
3.16618 392.6084 394.35495 394.137755 0.002547067
3.17498 392.46982 394.646526 394.427978 0.002547967
3.18379 393.617 394.93419 394.714267 0.002540541
3.19260 394.34888 395.217951 394.99663 0.002535826
3.20140 394.72552 395.497824 395.275081 0.002533406
3.21021 395.34375 395.773839 395.549652 0.002529444
3.21902 394.89935 396.046025 395.820368 0.002532291
3.22783 394.60233 396.314423 396.08727 0.002534197
3.23663 394.67688 396.579078 396.350403 0.002533718
3.24544 395.42499 396.840045 396.609819 0.002528925
3.25425 396.1384 397.097379 396.865575 0.00252437
3.26306 397.3031 397.351154 397.117742 0.00251697
3.27186 397.74002 397.601439 397.366389 0.002514205
3.28067 397.79361 397.848313 397.611592 0.002513866
3.28948 397.69144 398.091851 397.853426 0.002514512
3.29828 397.93698 398.332159 398.091996 0.002512961
3.30709 398.41901 398.569322 398.327386 0.00250992
3.31590 398.94348 398.803441 398.559694 0.002506621
3.32471 399.0835 399.034618 398.789022 0.002505741
3.33351 398.64099 399.262958 399.015472 0.002508523
3.34232 399.0513 399.488578 399.239161 0.002505943
3.35113 399.24173 399.711589 399.460196 0.002504748
3.35993 399.41891 399.93211 399.678696 0.002503637
3.36874 399.7019 400.15026 399.894778 0.002501865
3.37755 400.15924 400.366164 400.108564 0.002499005
3.38636 399.5444 400.579944 400.320173 0.002502851
3.39516 399.46689 400.791734 400.529738 0.002503336
3.40397 400.59927 401.01734 400.737381 0.00249626
3.41278 401.54959 401.237813 400.943231 0.002490352
3.42158 401.83734 401.444481 401.147415 0.002488569
3.43039 401.82828 401.649672 401.350056 0.002488625
3.43920 402.06482 401.853533 401.551298 0.002487161
3.44801 402.13593 402.056189 401.751262 0.002486721
3.45681 401.74548 402.257775 401.950078 0.002489138
3.46562 402.13205 402.458419 402.147873 0.002486745
3.47443 402.66461 402.658259 402.344777 0.002483456
3.48323 402.74933 402.857424 402.540917 0.002482934
3.49204 402.20709 403.056043 402.736416 0.002486281
3.50085 402.39862 403.254246 402.931399 0.002485098
3.50966 402.98376 403.452161 403.125987 0.00248149
3.51846 404.30682 403.64991 403.320297 0.002473369
3.52727 404.98947 403.847623 403.514452 0.0024692
3.53608 404.573 404.045419 403.708563 0.002471742
3.54488 403.68924 404.243418 403.902743 0.002477153
3.55369 403.44479 404.441738 404.0971 0.002478654
3.56250 404.3555 404.640488 404.291735 0.002473071
3.57131 404.23566 404.839793 404.486762 0.002473805
3.58011 404.67871 405.039758 404.682275 0.002471096
3.58892 405.08441 405.240489 404.878369 0.002468621
3.59773 405.85568 405.44209 405.075134 0.00246393
3.60653 406.30789 405.644667 405.272662 0.002461188
3.61534 406.62329 405.848318 405.471035 0.002459279
3.62415 406.46109 406.053141 405.670333 0.00246026
3.63296 406.4256 406.259229 405.870632 0.002460475
3.64176 406.81812 406.466672 406.072 0.002458101
3.65057 407.63669 406.675566 406.274509 0.002453165
3.65938 407.5704 406.885996 406.478221 0.002453564
3.66818 406.89847 407.098049 406.683191 0.002457616
3.67699 407.39014 407.311808 406.889476 0.002454649
3.68580 408.65967 407.527358 407.097122 0.002447024
3.69461 409.30151 407.745213 407.306168 0.002443187
3.70341 408.96091 407.964594 407.516668 0.002445221
3.71222 409.07782 408.186017 407.728649 0.002444523
3.72103 409.80313 408.409564 407.942142 0.002440196
3.72984 409.99051 408.635321 408.157172 0.002439081
3.73864 410.06958 408.863384 408.373763 0.002438611
3.74745 409.81073 409.093844 408.59193 0.002440151
3.75626 410.0304 409.326803 408.811687 0.002438844
3.76506 410.85001 409.575626 409.03304 0.002433978
3.77387 410.98834 409.813953 409.25599 0.002433159
3.78268 410.70221 410.055141 409.480542 0.002434854
3.79149 410.80106 410.299333 409.706688 0.002434268
3.80029 411.35492 410.546697 409.934419 0.002430991
3.80910 412.06781 410.797423 410.163722 0.002426785
3.81791 412.62732 411.051732 410.394578 0.002423494
3.82671 413.3602 411.309872 410.626959 0.002419198
3.83552 413.00418 411.572162 410.860855 0.002421283
3.84433 412.98264 411.845886 411.096231 0.002421409
3.85314 413.0647 412.117639 411.33305 0.002420928
3.86194 412.61478 412.394878 411.571282 0.002423568
3.87075 412.50458 412.678281 411.810887 0.002424216
3.87956 413.03064 412.968731 412.05182 0.002421128
3.88836 414.08881 413.267425 412.294038 0.002414941
3.89717 414.08932 413.576012 412.537491 0.002414938
3.90598 414.40906 413.896848 412.782127 0.002413075
3.91479 414.2135 414.233343 413.027897 0.002414214
3.92359 415.07755 414.590394 413.274743 0.002409188
3.93240 415.00052 414.974983 413.522606 0.002409636
3.94121 414.8194 415.396781 413.771425 0.002410688
3.95001 414.76666 415.868675 414.021139 0.002410994
3.95882 415.50171 416.407074 414.27168 0.002406729
3.96763 416.2558 417.031674 414.522982 0.002402369
3.97644 416.49896 417.770902 414.774987 0.002400966
3.98524 417.03564 418.634382 415.027617 0.002397877
3.99405 416.94962 419.648441 415.280808 0.002398371
4.00286 416.90335 420.826677 415.534485 0.002398637
4.01166 417.22665 422.171283 415.788578 0.002396779
4.02047 419.0835 423.666724 416.043014 0.002386159
4.02928 421.50806 425.270465 416.29772 0.002372434
4.03809 423.89395 426.900202 416.552619 0.002359081
4.04689 426.46448 428.421964 416.807644 0.002344861
4.05570 431.2796 429.653099 417.062718 0.002318681
4.06451 434.48056 430.404083 417.317767 0.002301599
4.07331 435.97919 430.559913 417.572719 0.002293687
4.08212 434.34128 430.145237 417.827497 0.002302337
4.09093 430.57935 429.309419 418.082036 0.002322452
4.09974 425.4133 428.2471 418.336259 0.002350655
4.10854 423.00375 427.127031 418.590098 0.002364045
4.11735 422.36652 426.064897 418.843481 0.002367612
4.12616 421.98605 425.128132 419.096341 0.002369747
4.13496 422.20078 424.348899 419.348607 0.002368541
4.14377 421.92178 423.735816 419.600218 0.002370108
4.15258 421.89426 423.282158 419.851108 0.002370262
4.16139 422.06046 422.971583 420.101214 0.002369329
4.17019 422.00604 422.782814 420.350459 0.002369634
4.17900 421.51031 422.693154 420.598815 0.002372421
4.18781 421.36264 422.681101 420.846208 0.002373253
4.19661 421.91272 422.727852 421.092581 0.002370158
4.20542 422.82013 422.818056 421.337888 0.002365072
4.21423 423.21918 422.939837 421.582073 0.002362842
4.22304 423.50613 423.084377 421.825089 0.002361241
4.23184 424.16019 423.245348 422.06689 0.0023576
4.24065 424.06668 423.418313 422.307432 0.00235812
4.24946 424.21124 423.600165 422.546673 0.002357316
4.25826 424.40244 423.78873 422.784579 0.002356254
4.26707 424.46472 423.982449 423.021112 0.002355908
4.27588 423.50247 424.180167 423.25624 0.002361261
4.28469 423.35605 424.381007 423.489933 0.002362078
4.29349 423.89267 424.584275 423.722162 0.002359088
4.30230 424.65393 424.789416 423.952908 0.002354859
4.31111 424.95236 424.995966 424.182148 0.002353205
4.31992 424.43747 425.203541 424.409863 0.00235606
4.32872 424.34738 425.411818 424.63604 0.00235656
4.33753 424.95804 425.62052 424.860665 0.002353174
4.34634 425.60397 425.829414 425.083729 0.002349602
4.35514 425.32697 426.039622 425.30523 0.002351132
4.36395 425.38412 426.248346 425.525163 0.002350816
4.37276 425.95786 426.456751 425.74353 0.00234765
4.38157 426.19223 426.664719 425.960334 0.002346359
4.39037 426.41821 426.872147 426.175581 0.002345116
4.39918 426.81815 427.078949 426.389279 0.002342918
4.40799 427.2052 427.285058 426.601446 0.002340795
4.41679 427.44952 427.490415 426.812096 0.002339458
4.42560 427.76883 427.694976 427.021247 0.002337711
4.43441 428.48837 427.898692 427.22891 0.002333786
4.44322 429.67603 428.101561 427.435133 0.002327335
4.45202 429.91492 428.303557 427.639932 0.002326042
4.46083 430.35422 428.504666 427.843336 0.002323667
4.46964 430.69583 428.704893 428.045382 0.002321824
4.47844 430.776 428.904238 428.246104 0.002321392
4.48725 432.01453 429.102715 428.445541 0.002314737
4.49606 433.08228 429.300339 428.643735 0.00230903
4.50487 433.43875 429.49713 428.840727 0.002307131
4.51367 433.07147 429.693118 429.036569 0.002309088
4.52248 432.82321 429.888335 429.231306 0.002310412
4.53129 432.70389 430.082814 429.424991 0.002311049
4.54009 432.91241 430.276596 429.617677 0.002309936
4.54890 432.82333 430.469723 429.809418 0.002310412
4.55771 433.03064 430.662242 430.000272 0.002309305
4.56652 432.6524 430.854206 430.190302 0.002311324
4.57532 432.15872 431.045667 430.379567 0.002313965
4.58413 432.9097 431.23668 430.568131 0.002309951
4.59294 433.10245 431.427306 430.75606 0.002308923
4.60174 432.42493 431.617883 430.94342 0.00231254
4.61055 431.92261 431.807918 431.130276 0.00231523
4.61936 432.17163 431.997759 431.316704 0.002313896
4.62817 432.40918 432.187472 431.502772 0.002312624
4.63697 432.61191 432.379344 431.688553 0.002311541
4.64578 433.27805 432.56902 431.874119 0.002307987
4.65459 433.69281 432.758782 432.059543 0.00230578
4.66339 433.80423 432.94871 432.244905 0.002305187
4.67220 433.20779 433.139927 432.430279 0.002308361
4.68101 433.38434 433.330417 432.61574 0.002307421
4.68982 433.81131 433.521304 432.801367 0.00230515
4.69862 434.78366 433.712669 432.987238 0.002299994
4.70743 434.93613 433.904582 433.173419 0.002299188
4.71624 435.19565 434.097145 433.360008 0.002297817
4.72504 435.69257 434.290435 433.547077 0.002295196
4.73385 436.75455 434.484532 433.734702 0.002289616
4.74266 436.96323 434.689554 433.922962 0.002288522
4.75147 437.04626 434.885543 434.111935 0.002288087
4.76027 436.60211 435.082594 434.301699 0.002290415
4.76908 436.93643 435.280788 434.492328 0.002288662
4.77789 436.69107 435.480214 434.683904 0.002289948
4.78669 436.74869 435.680957 434.8765 0.002289646
4.79550 436.08176 435.883101 435.070193 0.002293148
4.80431 436.73581 436.087749 435.265057 0.002289714
4.81312 436.94196 436.292955 435.461165 0.002288633
4.82192 437.76965 436.499816 435.658587 0.002284306
4.83073 438.22934 436.708421 435.8574 0.00228191
4.83954 438.83664 436.918854 436.057671 0.002278752
4.84835 439.31058 437.14142 436.259469 0.002276294
4.85715 440.05048 437.355787 436.462861 0.002272467
4.86596 439.87982 437.572231 436.667911 0.002273348
4.87477 439.18848 437.790843 436.874687 0.002276927
4.88357 438.17554 438.011703 437.083249 0.00228219
4.89238 438.42184 438.234894 437.293659 0.002280908
4.90119 439.57205 438.460501 437.505974 0.00227494
4.91000 439.91882 438.690094 437.720251 0.002273147
4.91880 439.86615 438.920784 437.936544 0.002273419
4.92761 440.31488 439.154143 438.154908 0.002271102
4.93642 441.39139 439.390253 438.375393 0.002265563
4.94522 441.57556 439.629198 438.598046 0.002264618
4.95403 441.43521 439.871064 438.822913 0.002265338
4.96284 441.14285 440.115934 439.050035 0.002266839
4.97165 441.46497 440.363889 439.279447 0.002265185
4.98045 442.12766 440.615036 439.511205 0.00226179
4.98926 443.02252 440.869691 439.745338 0.002257222
4.99807 443.21155 441.127483 439.981878 0.002256259
5.00687 443.03632 441.388736 440.220855 0.002257151
5.01568 443.14981 441.653551 440.462297 0.002256573
5.02449 443.16953 441.922027 440.706226 0.002256473
5.03330 443.72723 442.194276 440.952672 0.002253637
5.04210 443.9451 442.47041 441.201651 0.002252531
5.05091 444.61737 442.750545 441.453179 0.002249125
5.05972 444.59793 443.03481 441.707272 0.002249223
5.06852 444.79996 443.323336 441.963939 0.002248202
5.07733 444.52109 443.616265 442.223187 0.002249612
5.08614 445.6041 443.913762 442.485028 0.002244145
5.09495 446.81497 444.216444 442.749459 0.002238063
5.10375 447.28339 444.523587 443.016482 0.002235719
5.11256 446.74725 444.83585 443.286093 0.002238402
5.12137 446.15359 445.153454 443.558286 0.002241381
5.13017 446.64294 445.476639 443.833048 0.002238925
5.13898 447.26181 445.805692 444.110374 0.002235827
5.14779 446.73978 446.140914 444.390246 0.00223844
5.15660 446.6257 446.482645 444.672646 0.002239011
5.16540 447.03662 446.831318 444.957552 0.002236953
5.17421 448.11713 447.187292 445.244939 0.002231559
5.18302 448.81931 447.551105 445.534787 0.002228068
5.19182 449.1904 447.923333 445.827062 0.002226227
5.20063 449.44794 448.304624 446.121734 0.002224952
5.20944 450.17307 448.695724 446.418767 0.002221368
5.21825 450.68369 449.097512 446.718125 0.002218851
5.22705 450.72287 449.510983 447.019763 0.002218658
5.23586 450.1864 449.938746 447.323628 0.002221302
5.24467 449.98639 450.379298 447.629707 0.002222289
5.25347 450.21622 450.835692 447.937934 0.002221155
5.26228 451.40134 451.309817 448.24826 0.002215324
5.27109 451.96298 451.803913 448.560632 0.002212571
5.27990 452.25241 452.320692 448.874994 0.002211155
5.28870 452.77502 452.86338 449.191286 0.002208602
5.29751 453.09366 453.435914 449.509455 0.002207049
5.30632 454.06729 454.043624 449.829437 0.002202317
5.31513 455.32062 454.691875 450.151167 0.002196255
5.32393 456.17184 455.389168 450.47458 0.002192156
5.33274 456.56851 456.146416 450.799608 0.002190252
5.34155 456.98721 456.978997 451.126177 0.002188245
5.35035 457.02478 457.908953 451.454224 0.002188065
5.35916 457.97427 458.968415 451.783672 0.002183529
5.36797 459.2088 460.204351 452.114445 0.002177659
5.37678 460.50861 461.683658 452.446468 0.002171512
5.38558 461.90442 463.498635 452.779658 0.00216495
5.39439 463.76685 465.77121 453.113944 0.002156256
5.40320 465.87988 468.652274 453.449242 0.002146476
5.41200 468.81113 472.315384 453.78547 0.002133055
5.42081 472.44452 476.942724 454.122545 0.002116651
5.42962 477.28378 482.699134 454.460382 0.00209519
5.43843 483.82813 489.697532 454.798894 0.00206685
5.44723 492.10651 497.952286 455.138001 0.00203208
5.45604 502.05505 507.307384 455.477615 0.001991813
5.46485 515.19183 517.326057 455.817646 0.001941025
5.47365 529.2309 527.152507 456.158009 0.001889534
5.48246 543.9408 535.424497 456.498614 0.001838435
5.49127 556.33655 540.484877 456.83937 0.001797473
5.50008 558.6347 541.080891 457.180194 0.001790079
5.50888 549.36749 537.142367 457.520975 0.001820275
5.51769 530.60413 529.828064 457.861662 0.001884644
5.52650 512.80786 520.790026 458.202148 0.001950048
5.53530 497.40167 511.442278 458.542343 0.002010448
5.54411 486.91187 502.690859 458.882158 0.00205376
5.55292 480.11838 495.00795 459.221501 0.00208282
5.56173 475.28662 488.573591 459.560292 0.002103994
5.57053 471.83072 483.38981 459.89844 0.002119404
5.57934 469.67276 479.345892 460.235858 0.002129142
5.58815 468.24631 476.283193 460.57246 0.002135628
5.59695 467.49033 474.019789 460.908156 0.002139082
5.60576 466.88797 472.385559 461.242871 0.002141841
5.61457 465.62311 471.216186 461.576517 0.00214766
5.62338 464.69196 470.391712 461.909011 0.002151963
5.63218 464.51791 469.816794 462.240274 0.00215277
5.64099 464.49594 469.421955 462.570225 0.002152871
5.64980 464.51794 469.158416 462.898782 0.002152769
5.65860 464.13181 468.993643 463.225876 0.00215456
5.66741 463.92429 468.9033 463.551428 0.002155524
5.67622 464.25534 468.870654 463.875364 0.002153987
5.68503 465.00391 468.885189 464.197613 0.00215052
5.69383 464.98047 468.938508 464.518104 0.002150628
5.70264 464.70313 469.024181 464.836767 0.002151911
5.71145 464.51575 469.137101 465.153541 0.00215278
5.72025 464.84811 469.27319 465.46836 0.00215124
5.72906 465.03122 469.429101 465.781162 0.002150393
5.73787 465.63995 469.602027 466.091886 0.002147582
5.74668 466.58801 469.789658 466.400474 0.002143218
5.75548 466.71613 469.990062 466.706875 0.00214263
5.76429 466.80435 470.201581 467.011035 0.002142225
5.77310 466.82712 470.422837 467.312887 0.002142121
5.78190 467.15674 470.652695 467.612418 0.002140609
5.79071 467.23837 470.890181 467.909565 0.002140235
5.79952 467.23596 471.134473 468.204287 0.002140246
5.80833 467.67255 471.384912 468.496542 0.002138248
5.81713 468.66544 471.640974 468.786299 0.002133718
5.82594 468.80545 471.902215 469.073523 0.002133081
5.83475 468.18002 472.168324 469.358182 0.002135931
5.84356 468.09018 472.439088 469.640249 0.00213634
5.85236 468.45502 472.714388 469.919699 0.002134677
5.86117 468.68332 472.995006 470.196509 0.002133637
5.86998 469.57407 473.279395 470.470667 0.002129589
5.87878 470.69321 473.568547 470.742153 0.002124526
5.88759 470.78265 473.862737 471.010957 0.002124122
5.89640 470.59167 474.162385 471.277069 0.002124984
5.90521 470.76907 474.468143 471.540482 0.002124184
5.91401 471.08121 474.780477 471.801199 0.002122776
5.92282 471.66241 475.100392 472.059219 0.00212016
5.93163 472.51364 475.428974 472.314546 0.002116341
5.94043 472.93674 475.76757 472.567188 0.002114448
5.94924 472.52042 476.117842 472.817157 0.002116311
5.95805 472.42548 476.481874 473.064464 0.002116736
5.96686 472.85345 476.862245 473.309134 0.00211482
5.97566 473.52823 477.26229 473.551185 0.002111807
5.98447 473.90747 477.686348 473.790643 0.002110117
5.99328 474.40436 478.140323 474.027535 0.002107906
6.00208 475.14203 478.632474 474.261893 0.002104634
6.01089 475.52704 479.174806 474.493751 0.00210293
6.01970 475.862 479.784851 474.723152 0.00210145
6.02851 475.71249 480.488254 474.950135 0.00210211
6.03731 476.6348 481.32196 475.174747 0.002098042
6.04612 478.2254 482.337119 475.397023 0.002091064
6.05493 479.83176 483.601118 475.617041 0.002084064
6.06373 480.13065 485.197587 475.834843 0.002082766
6.07254 480.89288 487.222613 476.050487 0.002079465
6.08135 483.23499 489.775307 476.26404 0.002069387
6.09016 485.63336 492.943272 476.475563 0.002059167
6.09896 488.49057 496.7824 476.685127 0.002047122
6.10777 492.88251 501.285769 476.892802 0.002028881
6.11658 499.09573 506.338237 477.098661 0.002003624
6.12538 505.73499 511.646829 477.302788 0.00197732
6.13419 513.2179 516.65381 477.505261 0.00194849
6.14300 518.82916 520.523046 477.706165 0.001927417
6.15181 523.24304 522.359624 477.905585 0.001911158
6.16061 524.28949 521.68126 478.103614 0.001907343
6.16942 520.64679 518.759718 478.300341 0.001920688
6.17823 514.24854 514.412311 478.495867 0.001944585
6.18703 506.92609 509.534609 478.690288 0.001972674
6.19584 501.35233 504.774854 478.883706 0.001994605
6.20465 496.79816 500.499157 479.076224 0.00201289
6.21346 493.62057 496.867613 479.26795 0.002025848
6.22226 491.11581 493.914445 479.458989 0.00203618
6.23107 489.31863 491.599782 479.649458 0.002043658
6.23988 487.77194 489.842915 479.839469 0.002050138
6.24868 487.34433 488.546662 480.029138 0.002051937
6.25749 487.10773 487.613157 480.218583 0.002052934
6.26630 486.92264 486.954386 480.407923 0.002053714
6.27511 486.81494 486.498025 480.597284 0.002054169
6.28391 486.79572 486.189022 480.78679 0.00205425
6.29272 487.21658 485.986275 480.976567 0.002052475
6.30153 487.66678 485.859694 481.166744 0.002050581
6.31033 487.67056 485.790874 481.357439 0.002050565
6.31914 487.56931 485.766572 481.548806 0.00205099
6.32795 488.08789 485.777718 481.740967 0.002048811
6.33676 488.70892 485.818028 481.934059 0.002046208
6.34556 489.02148 485.882983 482.128218 0.0020449
6.35437 489.60345 485.96923 482.323581 0.002042469
6.36318 490.8053 486.074291 482.520286 0.002037468
6.37198 491.60843 486.196326 482.718474 0.002034139
6.38079 490.85156 486.334041 482.918284 0.002037276
6.38960 489.9462 486.486818 483.119862 0.00204104
6.39841 490.36411 486.656148 483.323349 0.002039301
6.40721 490.56769 486.838561 483.528888 0.002038455
6.41602 491.55341 487.037257 483.736623 0.002034367
6.42483 491.76163 487.254312 483.9467 0.002033506
6.43364 492.52161 487.492771 484.15926 0.002030368
6.44244 493.23022 487.756592 484.374454 0.002027451
6.45125 494.27686 488.051639 484.592427 0.002023158
6.46006 495.23502 488.380252 484.813323 0.002019243
6.46886 495.96799 488.747797 485.037288 0.002016259
6.47767 496.6395 489.156575 485.264467 0.002013533
6.48648 497.78769 489.605442 485.495009 0.002008889
6.49529 499.71991 490.089446 485.729058 0.002001121
6.50409 501.31778 490.586379 485.966759 0.001994743
6.51290 502.41556 491.066776 486.208256 0.001990384
6.52171 502.88034 491.485351 486.453695 0.001988545
6.53051 503.81168 491.798426 486.703215 0.001984869
6.53932 504.2088 491.989634 486.956964 0.001983305
6.54813 503.94431 492.08187 487.215083 0.001984346
6.55694 503.20511 492.120968 487.477711 0.001987261
6.56574 501.77393 492.150751 487.744989 0.001992929
6.57455 500.55881 492.199999 488.017055 0.001997767
6.58336 499.96176 492.284309 488.294031 0.002000153
6.59216 499.89572 492.409705 488.576081 0.002000417
6.60097 500.0715 492.576587 488.863331 0.001999714
6.60978 500.56177 492.782192 489.155911 0.001997755
6.61859 501.00153 493.022125 489.453951 0.001996002
6.62739 500.71777 493.291453 489.757582 0.001997133
6.63620 501.03714 493.585439 490.066932 0.00199586
6.64501 501.74167 493.900011 490.382123 0.001993058
6.65381 502.96671 494.232513 490.703286 0.001988203
6.66262 503.92471 494.579477 491.030539 0.001984423
6.67143 504.62524 494.939817 491.364003 0.001981669
6.68024 504.40439 495.312474 491.703794 0.001982536
6.68904 504.39633 495.696804 492.050024 0.001982568
6.69785 505.03101 496.093221 492.402813 0.001980076
6.70666 505.76868 496.500046 492.762268 0.001977188
6.71546 506.09531 496.918012 493.128495 0.001975912
6.72427 506.21719 497.347187 493.501601 0.001975437
6.73308 506.53635 497.787717 493.881687 0.001974192
6.74189 506.7738 498.239794 494.268847 0.001973267
6.75069 507.28528 498.703674 494.663187 0.001971277
6.75950 507.02237 499.179659 495.064797 0.0019723
6.76831 507.67816 499.668121 495.473765 0.001969752
6.77711 508.57678 500.172559 495.89018 0.001966271
6.78592 509.80066 500.688168 496.314126 0.001961551
6.79473 509.56412 501.216661 496.745677 0.001962462
6.80354 509.34094 501.75962 497.184923 0.001963321
6.81234 509.1134 502.317782 497.631931 0.001964199
6.82115 510.15143 502.891821 498.086773 0.001960202
6.82996 511.38358 503.482695 498.549516 0.001955479
6.83877 512.2135 504.091427 499.020218 0.001952311
6.84757 512.21283 504.719209 499.498922 0.001952313
6.85638 512.74573 505.367501 499.985734 0.001950284
6.86519 513.6394 506.037906 500.48068 0.001946891
6.87399 514.56775 506.732341 500.983808 0.001943379
6.88280 514.99261 507.453121 501.495164 0.001941775
6.89161 515.30914 508.202986 502.01479 0.001940583
6.90041 516.10004 508.985244 502.542716 0.001937609
6.90922 516.60425 509.804051 503.078989 0.001935718
6.91803 517.37518 510.664572 503.623632 0.001932833
6.92684 517.66467 511.573534 504.176672 0.001931752
6.93564 517.81488 512.540092 504.738129 0.001931192
6.94445 518.34595 513.577004 505.308023 0.001929213
6.95326 519.34802 514.702694 505.886359 0.001925491
6.96207 520.02283 515.944388 506.473161 0.001922992
6.97087 520.55859 517.34184 507.068429 0.001921013
6.97968 521.46521 518.952204 507.672163 0.001917673
6.98849 523.05487 520.854483 508.284361 0.001911845
6.99729 525.59869 523.152678 508.905009 0.001902592
7.00610 527.00812 525.974651 509.534112 0.001897504
7.01491 528.85059 529.463702 510.171646 0.001890893
7.02372 531.32996 533.765611 510.817594 0.00188207
7.03252 535.32922 539.002661 511.471931 0.001868009
7.04133 539.27222 545.239134 512.134631 0.001854351
7.05014 544.78107 552.431222 512.805655 0.0018356
7.05894 552.28802 560.34325 513.484982 0.001810649
7.06775 561.87012 568.426636 514.172566 0.001779771
7.07656 572.10547 575.704486 514.868362 0.001747929
7.08537 580.52155 580.839281 515.572323 0.001722589
7.09417 584.89911 582.641987 516.284397 0.001709697
7.10298 582.96051 580.818185 517.00452 0.001715382
7.11179 576.78235 576.189869 517.732648 0.001733756
7.12059 569.55267 570.111327 518.468668 0.001755764
7.12940 562.09302 563.774865 519.212595 0.001779065
7.13821 555.30072 557.934946 519.964315 0.001800826
7.14702 549.47247 552.967519 520.723754 0.001819927
7.15582 544.99725 549.001095 521.490831 0.001834872
7.16463 541.96692 546.019448 522.265453 0.001845131
7.17344 540.22266 543.924893 523.047552 0.001851089
7.18224 538.95349 542.581719 523.837027 0.001855448
7.19105 538.46075 541.846399 524.633784 0.001857146
7.19986 538.63135 541.579462 525.437724 0.001856557
7.20867 538.71307 541.668802 526.248736 0.001856276
7.21747 539.02441 542.025567 527.066732 0.001855204
7.22628 540.3866 542.584752 527.891594 0.001850527
7.23509 542.19147 543.301969 528.723209 0.001844367
7.24389 543.43451 544.148512 529.561461 0.001840148
7.25270 544.16144 545.107641 530.40623 0.00183769
7.26151 545.46094 546.170782 531.257384 0.001833312
7.27032 546.32642 547.337499 532.114815 0.001830408
7.27912 547.24512 548.614212 532.978385 0.001827335
7.28793 547.71149 550.015444 533.847962 0.001825779
7.29674 549.00653 551.565322 534.723409 0.001821472
7.30554 550.78143 553.299403 535.604587 0.001815602
7.31435 552.80176 555.266033 536.491346 0.001808967
7.32316 555.17944 557.525999 537.383561 0.001801219
7.33197 557.31018 560.146943 538.281074 0.001794333
7.34077 559.02612 563.199775 539.183736 0.001788825
7.34958 561.10223 566.74437 540.091394 0.001782206
7.35839 563.86676 570.81435 541.003882 0.001773469
7.36720 567.04382 575.391696 541.921063 0.001763532
7.37600 569.68048 580.370374 542.842767 0.00175537
7.38481 572.25146 585.497187 543.768779 0.001747484
7.39362 575.37622 590.317939 544.699038 0.001737993
7.40242 577.45331 594.209816 545.633326 0.001731742
7.41123 578.55566 596.621501 546.571474 0.001728442
7.42004 578.05219 597.425667 547.5133 0.001729948
7.42884 577.76849 597.023213 548.458652 0.001730797
7.43765 576.61926 596.067365 549.407344 0.001734247
7.44646 576.26935 595.136183 550.359201 0.0017353
7.45527 576.86084 594.605531 551.314044 0.00173352
7.46407 578.19684 594.675484 552.271693 0.001729515
7.47288 579.82916 595.435493 553.231956 0.001724646
7.48169 582.78564 596.914426 554.194672 0.001715897
7.49050 586.77509 599.106402 555.159647 0.00170423
7.49930 591.24463 602.001772 556.126694 0.001691347
7.50811 597.28613 605.598935 557.095628 0.001674239
7.51692 603.73883 609.923836 558.066262 0.001656345
7.52572 612.76929 615.03764 559.038396 0.001631936
7.53453 622.89575 621.065632 560.011863 0.001605405
7.54334 635.78052 628.21814 560.986462 0.00157287
7.55215 649.96753 636.827568 561.962003 0.001538538
7.56095 667.10339 647.401341 562.938295 0.001499018
7.56976 687.52289 660.68807 563.915134 0.001454497
7.57857 712.50757 677.739275 564.892352 0.001403494
7.58737 743.3728 699.956767 565.869745 0.00134522
7.59618 777.80774 729.098396 566.847121 0.001285665
7.60499 819.86182 767.173884 567.824287 0.001219718
7.61380 866.41992 816.270632 568.80105 0.001154175
7.62260 922.34119 878.215195 569.777208 0.001084197
7.63141 985.69696 954.128674 570.752591 0.001014511
7.64022 1057.948 1043.730511 571.726994 0.000945226
7.64902 1139.6289 1144.304405 572.700228 0.000877479
7.65783 1223.8192 1249.105001 573.672046 0.000817114
7.66664 1307.4933 1345.538742 574.642367 0.000764822
7.67545 1373.6935 1415.315261 575.610948 0.000727964
7.68425 1405.6001 1440.310551 576.577587 0.00071144
7.69306 1390.1237 1413.164201 577.542119 0.00071936
7.70187 1333.3087 1342.69741 578.504345 0.000750014
7.71067 1249.8051 1247.501846 579.464079 0.000800125
7.71948 1156.3734 1145.440619 580.421136 0.000864773
7.72829 1066.9719 1048.509506 581.375332 0.000937232
7.73710 985.59302 962.995827 582.326473 0.001014618
7.74590 916.42664 891.306354 583.274401 0.001091195
7.75471 858.90057 833.558117 584.218924 0.001164279
7.76352 813.42627 788.55342 585.159864 0.001229368
7.77232 775.74841 754.420048 586.097043 0.001289078
7.78113 746.56244 729.080679 587.030278 0.001339473
7.78994 722.56921 710.549533 587.959416 0.00138395
7.79875 703.02203 697.11519 588.884274 0.001422431
7.80755 687.55542 687.425446 589.804683 0.001454428
7.81636 675.25116 680.478104 590.720476 0.00148093
7.82517 665.16101 675.574653 591.631488 0.001503395
7.83397 657.60034 672.253539 592.537546 0.00152068
7.84278 652.37756 670.233475 593.438508 0.001532855
7.85159 648.58398 669.362106 594.334206 0.00154182
7.86040 647.1944 669.582874 595.224485 0.001545131
7.86920 648.21631 670.913956 596.109189 0.001542695
7.87801 650.86951 673.431373 596.988158 0.001536406
7.88682 654.79889 677.25464 597.861264 0.001527186
7.89563 660.703 682.536058 598.728349 0.001513539
7.90443 668.2309 689.443582 599.589272 0.001496489
7.91324 678.1496 698.145875 600.443891 0.001474601
7.92205 690.51495 708.789765 601.292021 0.001448195
7.93085 706.43579 721.456934 602.133624 0.001415557
7.93966 725.91772 736.09253 602.968509 0.001377567
7.94847 749.54651 752.476164 603.796567 0.00133414
7.95727 776.33917 770.414063 604.617662 0.001288097
7.96608 801.8858 790.239727 605.431672 0.00124706
7.97489 827.40137 813.256096 606.238478 0.001208603
7.98370 853.42798 841.502193 607.037962 0.001171745
7.99250 883.28589 876.931945 607.830004 0.001132136
8.00131 921.26617 920.642817 608.614554 0.001085463
8.01012 965.71796 972.302929 609.39141 0.001035499
8.01893 1022.0953 1029.492418 610.160512 0.000978382
8.02773 1082.6764 1086.809256 610.921752 0.000923637
8.03654 1146.8923 1135.452743 611.675051 0.000871921
8.04535 1200.6986 1165.104332 612.420308 0.000832848
8.05415 1220.9622 1169.199861 613.157433 0.000819026
8.06296 1195.9666 1149.768051 613.886259 0.000836144
8.07177 1140.5931 1116.260409 614.606868 0.000876737
8.08057 1071.3837 1079.790723 615.319099 0.000933372
8.08938 1012.4214 1048.689723 616.022878 0.000987731
8.09819 974.9303 1027.435543 616.718131 0.001025714
8.10700 959.64667 1017.12514 617.404786 0.00104205
8.11580 972.96027 1015.943551 618.082792 0.001027791
8.12461 997.71722 1019.253769 618.752081 0.001002288
8.13342 1032.615 1020.2158 619.412598 0.000968415
8.14223 1050.6384 1012.129304 620.064289 0.000951802
8.15103 1044.9532 991.99132 620.707098 0.000956981
8.15984 1018.9185 962.067937 621.340994 0.000981433
8.16865 968.59167 927.715975 621.965929 0.001032427
8.17745 909.42657 894.189696 622.581863 0.001099594
8.18626 852.70184 865.162275 623.188764 0.001172743
8.19507 817.78876 842.834645 623.786601 0.00122281
8.20388 796.77899 828.517844 624.37534 0.001255053
8.21268 794.25659 823.073327 624.954972 0.001259039
8.22149 799.56299 827.14563 625.525471 0.001250683
8.23030 817.8255 841.251344 626.086822 0.001222755
8.23910 846.29498 865.729898 626.639013 0.001181621
8.24791 884.29822 900.594447 627.182037 0.00113084
8.25672 933.0899 945.220193 627.715882 0.001071708
8.26553 990.07086 997.839942 628.24056 0.001010029
8.27433 1052.2517 1054.735819 628.75607 0.000950343
8.28314 1111.9171 1109.197263 629.262416 0.000899348
8.29195 1161.7993 1151.300865 629.75961 0.000860734
8.30075 1185.0188 1170.438472 630.247661 0.000843868
8.30956 1180.5985 1160.901472 630.726596 0.000847028
8.31837 1146.5859 1125.972204 631.196432 0.000872154
8.32718 1086.8427 1075.613535 631.657193 0.000920096
8.33598 1019.6857 1020.651459 632.108907 0.000980694
8.34479 955.27722 969.081066 632.551607 0.001046817
8.35360 903.46613 925.616875 632.985322 0.001106848
8.36240 865.81158 892.539912 633.4101 0.001154986
8.37121 846.94 870.550889 633.82598 0.001180721
8.38002 841.75952 859.251818 634.233005 0.001187988
8.38883 847.50037 857.378674 634.631225 0.00117994
8.39763 859.7868 862.807744 635.020691 0.001163079
8.40644 876.79565 872.383654 635.401454 0.001140517
8.41525 891.58722 881.799292 635.773581 0.001121595
8.42406 900.61945 886.147635 636.137129 0.001110347
8.43286 901.22363 881.677556 636.492162 0.001109603
8.44167 881.21967 867.692027 636.838748 0.001134791
8.45048 853.32959 846.545682 637.176954 0.00117188
8.45928 816.00299 821.772628 637.506859 0.001225486
8.46809 781.24445 796.444486 637.828538 0.001280009
8.47690 752.24268 772.639809 638.142068 0.001329358
8.48571 728.67145 751.533108 638.447532 0.001372361
8.49451 712.00311 733.61019 638.745014 0.001404488
8.50332 699.10089 718.891639 639.034598 0.001430409
8.51213 688.46674 707.109262 639.316381 0.001452503
8.52093 679.88281 697.844174 639.590451 0.001470842
8.52974 674.50677 690.631197 639.856905 0.001482565
8.53855 670.71442 685.024878 640.115838 0.001490948
8.54736 667.48676 680.637624 640.367351 0.001498157
8.55616 664.78174 677.157271 640.611543 0.001504253
8.56497 662.38715 674.345822 640.848523 0.001509691
8.57378 660.60999 672.029252 641.078396 0.001513752
8.58258 659.60968 670.084332 641.301269 0.001516048
8.59139 658.79028 668.424864 641.517254 0.001517934
8.60020 657.61304 666.990747 641.72644 0.001520651
8.60900 656.93066 665.73879 641.928988 0.001522231
8.61781 656.16174 664.636828 642.124991 0.001524014
8.62662 655.06207 663.66135 642.314565 0.001526573
8.63543 654.41394 662.793698 642.497835 0.001528085
8.64423 655.01611 662.018791 642.674918 0.00152668
8.65304 655.39844 661.324258 642.845939 0.001525789
8.66185 654.82037 660.701097 643.011021 0.001527136
8.67066 654.22699 660.138192 643.170292 0.001528521
8.67946 654.64655 659.629366 643.323876 0.001527542
8.68827 655.48608 659.168388 643.471906 0.001525585
8.69708 655.45117 658.749917 643.61451 0.001525667
8.70588 655.52533 658.369468 643.751818 0.001525494
8.71469 655.92084 658.022629 643.883964 0.001524574
8.72350 656.00525 657.706162 644.011078 0.001524378
8.73231 655.74707 657.416991 644.133298 0.001524978
8.74111 655.04883 657.152488 644.250757 0.001526604
8.74992 655.31659 656.910608 644.363591 0.00152598
8.75873 656.01208 656.688813 644.471936 0.001524362
8.76753 656.46838 656.485558 644.575929 0.001523303
8.77634 655.9306 656.299316 644.675707 0.001524552
8.78515 655.39526 656.128677 644.77141 0.001525797
8.79396 655.29456 655.972462 644.863176 0.001526031
8.80276 655.42615 655.829625 644.951143 0.001525725
8.81157 655.65979 655.699251 645.035451 0.001525181
8.82038 656.72235 655.580535 645.116238 0.001522714
8.82918 657.1167 655.472808 645.193645 0.0015218
8.83799 657.46509 655.37551 645.267813 0.001520993
8.84680 656.8717 655.288161 645.338879 0.001522367
8.85561 657.24432 655.210416 645.406983 0.001521504
8.86441 657.80817 655.142058 645.472266 0.0015202
8.87322 658.61719 655.083007 645.534866 0.001518333
8.88203 658.61945 655.033396 645.594922 0.001518327
8.89083 659.09192 654.993737 645.652574 0.001517239
8.89964 660.08124 654.964577 645.707959 0.001514965
8.90845 660.65912 654.947603 645.761214 0.00151364
8.91726 661.15509 654.943811 645.812478 0.001512504
8.92606 661.57672 654.955882 645.861887 0.00151154
8.93487 662.15778 654.986596 645.909576 0.001510214
8.94368 662.35004 655.039016 645.955682 0.001509776
8.95249 662.4295 655.116085 646.000339 0.001509595
8.96129 662.72449 655.220143 646.043679 0.001508923
8.97010 663.17517 655.351837 646.085836 0.001507897
8.97891 664.26508 655.509541 646.126942 0.001505423
8.98771 663.74994 655.68742 646.167127 0.001506591
8.99652 662.91998 655.873272 646.206521 0.001508478
9.00533 662.55737 656.046528 646.245253 0.001509303
9.01414 662.73877 656.180029 646.283449 0.00150889
9.02294 663.02362 656.249955 646.321235 0.001508242
9.03175 663.58179 656.249873 646.358736 0.001506973
9.04056 664.00763 656.195655 646.396077 0.001506007
9.04936 664.02167 656.114191 646.433377 0.001505975
9.05817 663.41632 656.031223 646.470759 0.001507349
9.06698 663.42798 655.964128 646.50834 0.001507323
9.07579 663.01062 655.9226 646.546238 0.001508271
9.08459 662.44434 655.911828 646.584569 0.001509561
9.09340 662.31274 655.931041 646.623447 0.001509861
9.10221 662.07587 655.980063 646.662984 0.001510401
9.11101 661.44025 656.057267 646.703291 0.001511852
9.11982 661.34735 656.159128 646.744476 0.001512065
9.12863 661.46228 656.283698 646.786648 0.001511802
9.13743 661.42877 656.429029 646.829905 0.001511879
9.14624 661.61432 656.594129 646.874361 0.001511455
9.15505 661.81171 656.776843 646.920112 0.001511004
9.16386 662.24646 656.977525 646.967258 0.001510012
9.17266 662.36554 657.196356 647.015895 0.00150974
9.18147 662.07025 657.43357 647.06612 0.001510414
9.19028 662.11761 657.690051 647.118024 0.001510306
9.19909 663.3219 657.966805 647.171699 0.001507564
9.20789 664.59937 658.265203 647.227235 0.001504666
9.21670 663.95551 658.586333 647.284717 0.001506125
9.22551 663.02551 658.931959 647.34423 0.001508238
9.23431 663.12097 659.303908 647.405857 0.00150802
9.24312 664.38983 659.704248 647.469676 0.00150514
9.25193 665.77966 660.135328 647.535768 0.001501998
9.26074 666.98956 660.599738 647.604206 0.001499274
9.26954 668.15515 661.100449 647.675064 0.001496658
9.27835 668.89056 661.640825 647.748413 0.001495013
9.28716 668.5434 662.22464 647.824321 0.001495789
9.29596 668.49268 662.856156 647.902853 0.001495903
9.30477 668.87915 663.540359 647.984076 0.001495038
9.31358 669.30219 664.282811 648.068048 0.001494093
9.32239 669.24933 665.08991 648.154831 0.001494211
9.33119 669.32465 665.969095 648.244479 0.001494043
9.34000 669.85754 666.928892 648.337048 0.001492855
9.34881 670.12347 667.979155 648.432588 0.001492262
9.35761 671.03766 669.131583 648.53115 0.001490229
9.36642 671.36633 670.399744 648.632781 0.0014895
9.37523 672.14697 671.798992 648.737524 0.00148777
9.38404 673.8205 673.348659 648.845423 0.001484075
9.39284 675.81232 675.070791 648.956514 0.001479701
9.40165 677.47137 676.992559 649.070839 0.001476077
9.41046 680.50714 679.147142 649.18843 0.001469492
9.41926 683.23474 681.575459 649.30932 0.001463626
9.42807 686.71307 684.330576 649.433539 0.001456212
9.43688 690.96442 687.482462 649.561115 0.001447253
9.44569 696.18201 691.128514 649.69207 0.001436406
9.45449 701.53754 695.406757 649.826432 0.00142544
9.46330 707.8974 700.518201 649.964218 0.001412634
9.47211 717.00598 706.759673 650.105447 0.001394689
9.48092 727.76306 714.561153 650.250135 0.001374074
9.48972 741.03583 724.532306 650.398295 0.001349462
9.49853 757.75635 737.503119 650.549936 0.001319685
9.50734 778.22607 754.549223 650.70507 0.001284974
9.51614 802.47394 776.972933 650.863703 0.001246146
9.52495 831.50226 806.232901 651.025838 0.001202643
9.53376 864.17615 843.798476 651.191478 0.001157171
9.54257 903.89264 890.915763 651.36062 0.001106326
9.55137 951.93896 948.305045 651.533265 0.001050488
9.56018 1005.8998 1015.752343 651.709408 0.000994135
9.56899 1070.8678 1091.526045 651.889041 0.000933822
9.57779 1139.2365 1171.568291 652.072156 0.000877781
9.58660 1209.8704 1248.57997 652.258742 0.000826535
9.59541 1279.1372 1311.737914 652.448783 0.000781777
9.60422 1337.2002 1348.755172 652.642269 0.000747831
9.61302 1366.4537 1350.837074 652.83918 0.000731821
9.62183 1359.3899 1317.55137 653.039499 0.000735624
9.63064 1302.3235 1257.076211 653.243203 0.000767858
9.63944 1214.3398 1181.566881 653.45027 0.000823493
9.64825 1113.1447 1102.079595 653.660673 0.000898356
9.65706 1018.7432 1026.278755 653.87439 0.000981602
9.66587 940.55402 958.503594 654.091391 0.001063203
9.67467 879.77747 900.686567 654.31162 0.001136651
9.68348 834.82336 853.160005 654.535095 0.001197858
9.69229 799.55975 815.289687 654.761759 0.001250688
9.70109 773.11951 785.868659 654.991577 0.001293461
9.70990 751.84277 763.441382 655.22451 0.001330065
9.71871 737.23694 746.542406 655.46052 0.001356416
9.72752 725.72644 733.851693 655.69957 0.00137793
9.73632 717.26697 724.271582 655.941618 0.001394181
9.74513 709.54565 716.949017 656.18662 0.001409353
9.75394 703.573 711.255867 656.434533 0.001421317
9.76274 698.83636 706.747165 656.685309 0.00143095
9.77155 694.13629 703.116944 656.938906 0.001440639
9.78036 690.90045 700.157991 657.195273 0.001447387
9.78917 688.14374 697.729169 657.454362 0.001453185
9.79797 685.32703 695.732919 657.716122 0.001459157
9.80678 683.50427 694.100243 657.980502 0.001463049
9.81559 682.55212 692.78081 658.247446 0.00146509
9.82439 681.29047 691.736794 658.516906 0.001467803
9.83320 680.45087 690.940026 658.788826 0.001469614
9.84201 679.82062 690.369593 659.063149 0.001470976
9.85082 679.19946 690.010556 659.33982 0.001472322
9.85962 680.00189 689.853935 659.61878 0.001470584
9.86843 680.44525 689.896331 659.89997 0.001469626
9.87724 681.03644 690.140287 660.183336 0.00146835
9.88604 681.78265 690.595022 660.468816 0.001466743
9.89485 682.86945 691.27693 660.756351 0.001464409
9.90366 684.19592 692.210448 661.045878 0.00146157
9.91247 686.29669 693.428072 661.337335 0.001457096
9.92127 687.74115 694.970557 661.630665 0.001454035
9.93008 689.45319 696.887023 661.925804 0.001450425
9.93889 692.45209 699.234644 662.222689 0.001444143
9.94769 696.18597 702.080411 662.521257 0.001436398
9.95650 701.14465 705.504164 662.821444 0.001426239
9.96531 706.97681 709.604496 663.123185 0.001414474
9.97412 713.37122 714.50349 663.426421 0.001401795
9.98292 720.65485 720.353001 663.731087 0.001387627
9.99173 728.6192 727.349741 664.037117 0.001372459
10.00054 738.74084 735.773641 664.344452 0.001353655
10.00934 750.72522 746.063522 664.653013 0.001332045
10.01815 764.22412 758.87851 664.962747 0.001308517
10.02696 780.68085 775.045302 665.27359 0.001280933
10.03577 800.47302 795.398877 665.585514 0.001249261
10.04457 822.96497 820.559519 665.898383 0.001215119
10.05338 852.17999 850.758555 666.212171 0.001173461
10.06219 882.85333 885.617883 666.526814 0.001132691
10.07099 916.62872 923.896109 666.842249 0.001090954
10.07980 953.80603 963.100489 667.158449 0.001048431
10.08861 990.07819 999.136059 667.475281 0.001010021
10.09742 1022.0452 1026.544305 667.792718 0.00097843
10.10622 1051.5195 1040.030291 668.1107 0.000951005
10.11503 1058.905 1037.134019 668.429166 0.000944372
10.12384 1049.2594 1019.898036 668.748055 0.000953053
10.13265 1025.373 993.737444 669.067344 0.000975255
10.14145 982.79071 964.751224 669.386902 0.001017511
10.15026 946.36115 937.790009 669.706707 0.001056679
10.15907 915.51196 915.963726 670.026701 0.001092285
10.16787 892.43976 900.871955 670.346828 0.001120524
10.17668 878.22119 892.88898 670.667067 0.001138665
10.18549 872.74261 891.343685 670.987292 0.001145813
10.19430 874.32239 894.533449 671.307483 0.001143743
10.20310 884.02948 899.71443 671.627551 0.001131184
10.21191 896.0069 903.335854 671.947517 0.001116063
10.22072 898.78302 901.905294 672.267292 0.001112616
10.22952 891.55292 893.397401 672.586862 0.001121638
10.23833 877.86853 878.167761 672.906105 0.001139123
10.24714 859.35602 858.423055 673.22501 0.001163662
10.25595 841.1391 836.868406 673.543528 0.001188864
10.26475 823.09021 815.718099 673.861613 0.001214934
10.27356 807.96185 796.425782 674.179257 0.001237682
10.28237 796.23987 779.814129 674.496343 0.001255903
10.29117 786.76862 766.279569 674.812864 0.001271022
10.29998 779.41138 755.951849 675.12878 0.00128302
10.30879 775.60999 748.80679 675.44405 0.001289308
10.31760 773.36163 744.761914 675.758634 0.001293056
10.32640 773.35754 743.73602 676.072531 0.001293063
10.33521 775.03925 745.678514 676.385634 0.001290257
10.34402 776.93805 750.58234 676.697942 0.001287104
10.35282 780.45282 758.445363 677.009423 0.001281307
10.36163 785.72241 769.213696 677.320043 0.001272714
10.37044 792.72095 782.710113 677.629808 0.001261478
10.37925 801.92474 798.504274 677.938617 0.001247
10.38805 812.51038 815.782807 678.246477 0.001230754
10.39686 823.9057 833.162893 678.553362 0.001213731
10.40567 836.8996 848.535628 678.859247 0.001194886
10.41447 848.57318 859.236279 679.164108 0.001178449
10.42328 854.26398 862.82353 679.467958 0.001170598
10.43209 852.41638 858.254782 679.770705 0.001173136
10.44090 841.57227 846.518735 680.072367 0.001188252
10.44970 824.58459 830.015113 680.372925 0.001212732
10.45851 805.79138 811.376017 680.672362 0.001241016
10.46732 787.4657 792.67125 680.970699 0.001269897
10.47612 771.54944 775.236363 681.267854 0.001296093
10.48493 757.41461 759.804943 681.563849 0.001320281
10.49374 745.21106 746.688279 681.858675 0.001341902
10.50255 734.62512 735.905417 682.152322 0.001361239
10.51135 726.88104 727.293335 682.444785 0.001375741
10.52016 721.07397 720.576709 682.736089 0.00138682
10.52897 716.50568 715.432346 683.026166 0.001395662
10.53777 713.1369 711.5365 683.315046 0.001402255
10.54658 710.11475 708.597436 683.602728 0.001408223
10.55539 706.7597 706.370519 683.889212 0.001414908
10.56420 703.45685 704.664807 684.174534 0.001421551
10.57300 702.16125 703.338479 684.458631 0.001424174
10.58181 700.94696 702.288914 684.741543 0.001426641
10.59062 699.17529 701.445206 685.023275 0.001430256
10.59943 697.13391 700.758656 685.303835 0.001434445
10.60823 696.742 700.195435 685.583234 0.001435251
10.61704 696.82867 699.732058 685.861513 0.001435073
10.62585 695.87885 699.351748 686.138623 0.001437032
10.63465 694.83563 699.041633 686.414608 0.001439189
10.64346 694.85205 698.791938 686.689485 0.001439155
10.65227 695.08124 698.594911 686.963271 0.001438681
10.66108 695.08594 698.444056 687.236013 0.001438671
10.66988 694.51642 698.334179 687.507671 0.001439851
10.67869 694.97076 698.260898 687.778296 0.001438909
10.68750 695.70667 698.220449 688.047911 0.001437387
10.69630 695.31042 698.20975 688.316539 0.001438207
10.70511 694.92566 698.226237 688.584236 0.001439003
10.71392 694.99152 698.267679 688.850967 0.001438866
10.72273 695.76056 698.332303 689.11679 0.001437276
10.73153 697.01813 698.418672 689.381734 0.001434683
10.74034 697.7077 698.525568 689.6458 0.001433265
10.74915 697.71045 698.652162 689.909077 0.001433259
10.75795 697.55603 698.797854 690.1716 0.001433577
10.76676 698.04468 698.962245 690.43334 0.001432573
10.77557 698.0946 699.145287 690.694364 0.001432471
10.78438 698.78998 699.347215 690.954706 0.001431045
10.79318 699.47534 699.568542 691.214404 0.001429643
10.80199 700.01306 699.810289 691.473524 0.001428545
10.81080 700.39124 700.073889 691.732048 0.001427773
10.81960 700.86121 700.361578 691.990044 0.001426816
10.82841 701.3515 700.676727 692.247553 0.001425819
10.83722 701.47742 701.024315 692.504616 0.001425563
10.84602 702.34863 701.411727 692.761277 0.001423794
10.85483 703.26569 701.850117 693.017609 0.001421938
10.86364 704.03674 702.355453 693.273596 0.00142038
10.87245 705.18616 702.950601 693.529314 0.001418065
10.88125 705.90588 703.667051 693.784808 0.001416619
10.89006 706.54565 704.545918 694.040125 0.001415337
10.89887 707.30652 705.638325 694.295341 0.001413814
10.90768 709.55151 707.003661 694.550447 0.001409341
10.91648 711.76392 708.705636 694.805519 0.00140496
10.92529 714.25983 710.804937 695.060607 0.001400051
10.93410 716.0921 713.350684 695.315761 0.001396468
10.94290 718.32068 716.36674 695.571031 0.001392136
10.95171 720.54498 719.838207 695.826496 0.001387838
10.96052 723.50366 723.693098 696.082151 0.001382163
10.96933 725.96149 727.77865 696.338075 0.001377484
10.97813 729.22955 731.831016 696.59432 0.00137131
10.98694 732.43939 735.456371 696.85094 0.001365301
10.99575 735.91644 738.157823 697.108015 0.00135885
11.00455 738.80811 739.468201 697.36554 0.001353531
11.01336 739.51654 739.159504 697.623597 0.001352235
11.02217 738.13373 737.368011 697.88224 0.001354768
11.03098 735.16602 734.518007 698.141522 0.001360237
11.03978 731.49811 731.115074 698.401497 0.001367058
11.04859 727.55115 727.587995 698.662248 0.001374474
11.05740 724.1261 724.236194 698.923769 0.001380975
11.06621 721.26593 721.2379 699.186144 0.001386451
11.07501 719.76929 718.685001 699.449426 0.001389334
11.08382 718.48749 716.606473 699.713669 0.001391813
11.09263 717.85846 714.986758 699.978957 0.001393032
11.10143 716.94202 713.783878 700.245282 0.001394813
11.11024 716.58038 712.939544 700.512727 0.001395517
11.11905 716.00494 712.390294 700.781347 0.001396638
11.12786 715.17682 712.075893 701.051192 0.001398256
11.13666 714.27386 711.943543 701.322316 0.001400023
11.14547 713.9776 711.950054 701.594802 0.001400604
11.15428 714.02533 712.062479 701.868639 0.001400511
11.16308 714.07587 712.256854 702.143909 0.001400411
11.17189 713.64734 712.516463 702.420663 0.001401252
11.18070 714.26068 712.830382 702.698952 0.001400049
11.18951 714.85822 713.191852 702.978857 0.001398879
11.19831 715.62604 713.59691 703.260364 0.001397378
11.20712 716.52808 714.043935 703.543553 0.001395619
11.21593 717.12799 714.532871 703.828472 0.001394451
11.22473 717.96448 715.06511 704.115169 0.001392827
11.23354 718.67554 715.643473 704.403691 0.001391448
11.24235 719.59314 716.272507 704.694116 0.001389674
11.25116 720.00305 716.958493 704.986423 0.001388883
11.25996 721.237 717.710555 705.280691 0.001386507
11.26877 722.62744 718.540973 705.576963 0.001383839
11.27758 723.69489 719.466036 705.875247 0.001381798
11.28638 724.90173 720.507702 706.175688 0.001379497
11.29519 726.65979 721.693539 706.478225 0.00137616
11.30400 728.43634 723.058797 706.782932 0.001372804
11.31281 729.85559 724.647253 707.089847 0.001370134
11.32161 732.05347 726.512202 707.39901 0.00136602
11.33042 734.32324 728.717107 707.710493 0.001361798
11.33923 737.42126 731.333926 708.024261 0.001356077
11.34803 740.54663 734.442316 708.340386 0.001350354
11.35684 743.83521 738.121684 708.658899 0.001344384
11.36565 747.48376 742.440815 708.979836 0.001337822
11.37445 751.68372 747.444374 709.303226 0.001330347
11.38326 756.60858 753.14154 709.629139 0.001321687
11.39207 761.89148 759.505303 709.957529 0.001312523
11.40088 767.52832 766.495769 710.288462 0.001302884
11.40968 773.03925 774.059564 710.621965 0.001293595
11.41849 778.39191 782.095264 710.958062 0.0012847
11.42730 784.2572 790.379967 711.296819 0.001275092
11.43611 790.48517 798.48645 711.638179 0.001265046
11.44491 796.47333 805.791468 711.982205 0.001255535
11.45372 801.98505 811.623975 712.328916 0.001246906
11.46253 805.93048 815.552042 712.678331 0.001240802
11.47133 808.87854 817.633312 713.030469 0.00123628
11.48014 810.93726 818.393559 713.385387 0.001233141
11.48895 812.89673 818.561362 713.743018 0.001230169
11.49776 814.74927 818.785446 714.103418 0.001227371
11.50656 817.28027 819.534986 714.466598 0.00122357
11.51537 820.97522 821.187705 714.832568 0.001218064
11.52418 826.01001 824.197391 715.201382 0.001210639
11.53299 832.64532 829.199604 715.572963 0.001200992
11.54179 841.83813 836.954324 715.947359 0.001187877
11.55060 852.54388 848.168465 716.324576 0.00117296
11.55941 867.45374 863.339337 716.704617 0.001152799
11.56821 882.56635 882.621259 717.087484 0.001133059
11.57702 902.23206 905.753473 717.473223 0.001108362
11.58583 923.33868 931.959119 717.861745 0.001083026
11.59464 948.38348 959.811295 718.253092 0.001054426
11.60344 973.07123 987.075755 718.647259 0.001027674
11.61225 998.17847 1010.701811 719.044243 0.001001825
11.62106 1018.0857 1027.19715 719.444081 0.000982236
11.62986 1032.0447 1033.676603 719.846675 0.00096895
11.63867 1034.1537 1029.161768 720.252061 0.000966974
11.64748 1025.2402 1015.107374 720.660227 0.000975381
11.65629 1009.0598 994.692312 721.071162 0.000991022
11.66509 987.18018 971.504554 721.484851 0.001012986
11.67390 964.79901 948.624849 721.901326 0.001036485
11.68271 942.94415 928.331568 722.320476 0.001060508
11.69151 926.88531 912.128851 722.74233 0.001078882
11.70032 914.48096 900.934273 723.166867 0.001093516
11.70913 907.91052 895.179158 723.594067 0.00110143
11.71794 904.66431 894.90872 724.023957 0.001105382
11.72674 906.80585 899.926967 724.456413 0.001102772
11.73555 913.59375 909.917765 724.89146 0.001094578
11.74436 923.88953 924.518656 725.329071 0.00108238
11.75316 938.2373 943.264505 725.769218 0.001065828
11.76197 954.80554 965.36309 726.211871 0.001047334
11.77078 976.14978 989.468184 726.657049 0.001024433
11.77959 996.48419 1013.482347 727.10462 0.001003528
11.78839 1016.2783 1034.480591 727.5546 0.000983982
11.79720 1029.0906 1049.022782 728.006955 0.000971732
11.80601 1036.0671 1054.071304 728.461647 0.000965188
11.81481 1032.6656 1048.228184 728.918641 0.000968368
11.82362 1022.4301 1032.446971 729.377896 0.000978062
11.83243 1003.5997 1009.520816 729.839374 0.000996413
11.84123 981.59161 982.858231 730.303033 0.001018754
11.85004 956.70685 955.448387 730.768831 0.001045252
11.85885 933.68524 929.44795 731.236777 0.001071025
11.86766 911.98279 906.176857 731.706721 0.001096512
11.87646 892.63239 886.265402 732.17867 0.001120282
11.88527 876.72394 869.769237 732.652577 0.00114061
11.89408 864.40991 856.30209 733.128395 0.001156859
11.90288 854.8147 845.154868 733.606074 0.001169844
11.91169 845.70178 835.503421 734.085618 0.00118245
11.92050 838.81415 826.657174 734.566869 0.001192159
11.92931 830.96271 818.243818 735.049829 0.001203423
11.93811 822.08392 810.20748 735.534444 0.001216421
11.94692 812.13513 802.674991 736.020661 0.001231322
11.95573 803.36737 795.806153 736.508481 0.001244761
11.96454 795.47388 789.719976 736.997737 0.001257112
11.97334 788.59827 784.479624 737.488429 0.001268073
11.98215 783.47296 780.097414 737.9805 0.001276368
11.99096 778.67212 776.546614 738.473891 0.001284238
11.99976 775.44531 773.765819 738.968544 0.001289582
12.00857 772.84393 771.660966 739.464456 0.001293922
12.01738 770.65717 770.112251 739.961455 0.001297594
12.02619 768.35071 768.976395 740.459536 0.001301489
12.03499 767.09143 768.098445 740.958638 0.001303626
12.04380 766.02057 767.33401 741.458699 0.001305448
12.05261 765.07489 766.578077 741.959715 0.001307062
12.06142 763.95959 765.786666 742.461508 0.00130897
12.07022 762.59845 764.973211 742.964072 0.001311306
12.07903 761.32507 764.184916 743.467344 0.001313499
12.08784 761.23267 763.476958 743.97126 0.001313659
12.09664 761.07446 762.898116 744.475754 0.001313932
12.10545 759.78699 762.488023 744.98082 0.001316158
12.11426 758.20947 762.277574 745.486278 0.001318897
12.12307 758.12762 762.290375 745.992121 0.001319039
12.13187 758.40826 762.543304 746.498282 0.001318551
12.14068 758.68018 763.046087 747.004696 0.001318078
12.14949 758.54633 763.799402 747.511355 0.001318311
12.15829 758.89484 764.793773 748.018078 0.001317706
12.16710 759.42401 766.006542 748.524856 0.001316787
12.17591 760.56873 767.398701 749.031624 0.001314806
12.18472 762.03186 768.910994 749.538315 0.001312281
12.19352 763.37048 770.457063 750.044864 0.00130998
12.20233 764.48773 771.920077 750.551261 0.001308065
12.21114 766.49091 773.158213 751.057327 0.001304647
12.21994 768.51581 774.03068 751.563054 0.001301209
12.22875 769.5683 774.44385 752.068375 0.00129943
12.23756 769.73706 774.392302 752.573226 0.001299145
12.24637 769.0343 773.960925 753.077599 0.001300332
12.25517 767.81323 773.286696 753.581315 0.0013024
12.26398 767.16956 772.509903 754.084366 0.001303493
12.27279 767.27161 771.746525 754.586689 0.001303319
12.28159 767.34192 771.080201 755.088221 0.0013032
12.29040 767.01379 770.565535 755.588897 0.001303758
12.29921 767.31769 770.235433 756.088713 0.001303241
12.30802 768.16315 770.106501 756.587492 0.001301807
12.31682 769.22107 770.183605 757.08523 0.001300016
12.32563 771.08514 770.465761 757.581866 0.001296874
12.33444 773.34479 770.950749 758.077339 0.001293084
12.34324 775.10138 771.641573 758.571645 0.001290154
12.35205 776.7486 772.553279 759.064558 0.001287418
12.36086 778.88086 773.718076 759.556187 0.001283893
12.36966 780.6662 775.184066 760.046418 0.001280957
12.37847 783.52441 777.01015 760.535195 0.001276284
12.38728 786.45819 779.255857 761.022516 0.001271523
12.39609 790.3078 781.969678 761.508216 0.00126533
12.40489 794.93695 785.181772 761.992295 0.001257961
12.41370 798.04462 788.889944 762.474701 0.001253063
12.42251 802.10248 793.049211 762.955381 0.001246723
12.43131 806.84607 797.560593 763.434282 0.001239394
12.44012 811.35925 802.252942 763.911409 0.0012325
12.44893 814.34766 806.86489 764.386604 0.001227977
12.45774 818.75983 811.043402 764.859872 0.001221359
12.46654 820.39923 814.365282 765.331165 0.001218919
12.47535 821.84711 816.430864 765.800437 0.001216771
12.48416 822.54736 817.005494 766.267697 0.001215735
12.49297 820.96808 816.127585 766.732793 0.001218074
12.50177 817.70624 814.097695 767.195735 0.001222933
12.51058 814.43866 811.352058 767.656482 0.00122784
12.51939 809.31458 808.325891 768.114994 0.001235613
12.52819 805.43036 805.371228 768.57123 0.001241572
12.53700 802.54022 802.732432 769.025204 0.001246043
12.54581 799.8725 800.559383 769.476777 0.001250199
12.55462 797.74805 798.916279 769.925964 0.001253529
12.56342 795.70685 797.794522 770.37273 0.001256744
12.57223 794.39679 797.122384 770.817044 0.001258817
12.58104 793.75989 796.772821 771.258923 0.001259827
12.58985 793.16077 796.579942 771.698237 0.001260778
12.59865 792.09009 796.370896 772.135007 0.001262483
12.60746 791.42743 796.010543 772.569207 0.00126354
12.61627 790.55048 795.438711 773.000809 0.001264941
12.62507 790.08215 794.676338 773.42979 0.001265691
12.63388 788.90051 793.79662 773.856174 0.001267587
12.64269 787.7323 792.886894 774.279843 0.001269467
12.65150 786.67102 792.023984 774.700826 0.001271179
12.66030 785.87402 791.265458 775.119102 0.001272469
12.66911 785.62622 790.649601 775.534657 0.00127287
12.67792 785.64447 790.199986 775.947519 0.00127284
12.68672 785.80859 789.928639 776.357581 0.001272575
12.69553 785.91168 789.83854 776.764878 0.001272408
12.70434 786.53149 789.927806 777.169398 0.001271405
12.71315 787.15344 790.19243 777.571132 0.0012704
12.72195 787.58862 790.629293 777.97007 0.001269698
12.73076 788.41565 791.239541 778.366252 0.001268367
12.73957 789.51581 792.030543 778.759582 0.001266599
12.74837 790.97699 793.017587 779.150101 0.001264259
12.75718 792.71466 794.2245 779.537808 0.001261488
12.76599 795.70734 795.682883 779.922702 0.001256743
12.77480 797.59174 797.430796 780.304827 0.001253774
12.78360 799.69061 799.508135 780.684099 0.001250484
12.79241 801.98407 801.954581 781.060565 0.001246908
12.80122 805.53723 804.802658 781.434232 0.001241408
12.81002 809.02594 808.072582 781.805105 0.001236054
12.81883 812.25562 811.767924 782.173193 0.00123114
12.82764 816.48358 815.868818 782.538549 0.001224764
12.83645 820.80798 820.32633 782.9011 0.001218312
12.84525 824.63519 825.062563 783.260901 0.001212657
12.85406 828.62952 829.961966 783.617967 0.001206812
12.86287 833.78571 834.87319 783.972314 0.001199349
12.87167 837.89917 839.630175 784.323999 0.001193461
12.88048 842.60638 844.09763 784.67296 0.001186794
12.88929 847.38824 848.252441 785.019221 0.001180097
12.89809 851.19788 852.225492 785.36288 0.001174815
12.90690 854.12164 856.270226 785.703921 0.001170793
12.91571 857.52338 860.674193 786.04237 0.001166149
12.92452 860.59204 865.666668 786.378289 0.001161991
12.93332 865.34094 871.346475 786.711631 0.001155614
12.94213 871.53326 877.662896 787.042462 0.001147403
12.95094 877.0567 884.409807 787.370812 0.001140177
12.95974 882.573 891.240669 787.696713 0.001133051
12.96855 888.27661 897.738896 788.020233 0.001125775
12.97736 893.888 903.51942 788.341334 0.001118708
12.98617 899.20679 908.359695 788.660087 0.001112091
12.99497 903.96301 912.30605 788.976528 0.00110624
13.00378 907.08612 915.705451 789.290695 0.001102431
13.01259 909.6994 919.138051 789.602663 0.001099264
13.02140 912.29846 923.266723 789.9124 0.001096133
13.03020 917.27161 928.664478 790.219983 0.00109019
13.03901 923.99603 935.695506 790.525454 0.001082256
13.04782 933.30078 944.447497 790.828857 0.001071466
13.05662 944.96893 954.695666 791.130235 0.001058236
13.06543 959.17303 965.925681 791.429668 0.001042565
13.07424 972.9256 977.43609 791.727135 0.001027828
13.08305 987.82947 988.526884 792.022716 0.00101232
13.09185 1003.5577 998.690692 792.316461 0.000996455
13.10066 1017.1238 1007.647196 792.608417 0.000983164
13.10947 1028.4584 1015.191024 792.898669 0.000972329
13.11828 1036.3822 1020.930404 793.187201 0.000964895
13.12708 1040.7719 1024.192414 793.474098 0.000960825
13.13589 1040.7921 1024.130808 793.759413 0.000960807
13.14470 1035.7808 1020.097301 794.043199 0.000965455
13.15350 1024.926 1012.049818 794.32551 0.00097568
13.16231 1010.606 1000.694648 794.606432 0.000989505
13.17112 994.11169 987.276383 794.885957 0.001005923
13.17993 978.42529 973.162606 795.164174 0.00102205
13.18873 964.37463 959.522956 795.441139 0.001036941
13.19754 950.94098 947.171331 795.716909 0.00105159
13.20635 939.19763 936.54274 795.991572 0.001064739
13.21515 929.03143 927.73602 796.265126 0.00107639
13.22396 922.30603 920.540165 796.537659 0.001084239
13.23277 917.44275 914.489682 796.809231 0.001089986
13.24157 914.00745 908.955166 797.079902 0.001094083
13.25038 910.53992 903.29071 797.34973 0.001098249
13.25919 906.62842 897.017787 797.618808 0.001102988
13.26800 900.8103 889.965022 797.887134 0.001110112
13.27680 890.72028 882.259513 798.154799 0.001122687
13.28561 881.51422 874.20849 798.421865 0.001134412
13.29442 870.86212 866.163939 798.688392 0.001148287
13.30323 861.33643 858.428283 798.954472 0.001160987
13.31203 852.25946 851.224628 799.220106 0.001173352
13.32084 844.74658 844.698925 799.485385 0.001183787
13.32965 837.33185 838.932946 799.750371 0.00119427
13.33845 832.08051 833.953362 800.015124 0.001201807
13.34726 827.32458 829.746844 800.279707 0.001208715
13.35607 823.6908 826.266398 800.54421 0.001214048
13.36488 820.54443 823.442078 800.808635 0.001218703
13.37368 818.30048 821.190634 801.073072 0.001222045
13.38249 816.71344 819.424507 801.337582 0.00122442
13.39130 815.37891 818.058151 801.602226 0.001226424
13.40010 813.39038 817.01467 801.867093 0.001229422
13.40891 812.47577 816.228113 802.132184 0.001230806
13.41772 811.77002 815.644255 802.397588 0.001231876
13.42652 810.95605 815.221299 802.663334 0.001233112
13.43533 811.01666 814.92825 802.929541 0.00123302
13.44414 811.41949 814.743893 803.196237 0.001232408
13.45295 811.18164 814.655434 803.463511 0.00123277
13.46175 811.41455 814.657394 803.731358 0.001232416
13.47056 811.28156 814.750658 803.999866 0.001232618
13.47937 811.63757 814.942237 804.269091 0.001232077
13.48818 811.91827 815.244797 804.539088 0.001231651
13.49698 813.25391 815.676228 804.809943 0.001229628
13.50579 814.47058 816.258973 805.081649 0.001227791
13.51460 816.40015 817.018739 805.354288 0.00122489
13.52340 817.49487 817.982854 805.627915 0.001223249
13.53221 819.00696 819.177231 805.902581 0.001220991
13.54102 820.77338 820.623351 806.178337 0.001218363
13.54983 823.57813 822.334353 806.455264 0.001214214
13.55863 828.08624 824.310885 806.733348 0.001207604
13.56744 835.17841 826.536139 807.01267 0.001197349
13.57625 844.16321 828.971964 807.293276 0.001184605
13.58505 849.5976 831.55166 807.575214 0.001177028
13.59386 848.71613 834.175078 807.85856 0.00117825
13.60267 844.67639 836.703202 808.143295 0.001183885
13.61148 841.17804 838.959679 808.429493 0.001188809
13.62028 839.6427 840.747186 808.717198 0.001190983
13.62909 839.34534 841.887837 809.006449 0.001191405
13.63790 839.61694 842.276225 809.297288 0.001191019
13.64671 839.80481 841.919432 809.589786 0.001190753
13.65551 838.51672 840.93241 809.883913 0.001192582
13.66432 836.10291 839.493535 810.179741 0.001196025
13.67313 834.22748 837.789678 810.477303 0.001198714
13.68193 831.58789 835.977657 810.776633 0.001202519
13.69074 828.52612 834.171603 811.077799 0.001206963
13.69955 826.31177 832.444006 811.380764 0.001210197
13.70835 824.92847 830.832641 811.68559 0.001212226
13.71716 823.5304 829.356181 811.992307 0.001214284
13.72597 822.5426 828.024618 812.300943 0.001215743
13.73478 822.02271 826.84579 812.611522 0.001216511
13.74358 822.03741 825.826942 812.924106 0.00121649
13.75239 822.04559 824.971868 813.238646 0.001216478
13.76120 820.90173 824.27765 813.555199 0.001218173
13.77000 819.59308 823.73617 813.873785 0.001220118
13.77881 819.30542 823.335638 814.194424 0.001220546
13.78762 819.43604 823.062491 814.517169 0.001220351
13.79643 818.66992 822.903425 814.841963 0.001221494
13.80523 818.19617 822.846205 815.168857 0.001222201
13.81404 818.1095 822.880122 815.497864 0.00122233
13.82285 817.74078 822.996292 815.828995 0.001222881
13.83166 817.48175 823.187812 816.162298 0.001223269
13.84046 817.59277 823.449396 816.497705 0.001223103
13.84927 817.83185 823.777426 816.835262 0.001222745
13.85808 818.22516 824.169499 817.174974 0.001222157
13.86688 818.5379 824.624749 817.516843 0.001221691
13.87569 818.24597 825.142029 817.860874 0.001222126
13.88450 818.35791 825.720365 818.207105 0.001221959
13.89331 818.91571 826.357578 818.555458 0.001221127
13.90211 819.52533 827.049994 818.90597 0.001220219
13.91092 820.00439 827.791685 819.258636 0.001219506
13.91973 820.73425 828.573416 819.613451 0.001218421
13.92854 820.85083 829.382157 819.970449 0.001218248
13.93734 821.23175 830.200167 820.32954 0.001217683
13.94615 822.02991 831.005172 820.690756 0.001216501
13.95496 823.59961 831.771703 821.054083 0.001214182
13.96376 824.4906 832.475669 821.419469 0.00121287
13.97257 825.23431 833.101321 821.786981 0.001211777
13.98138 826.3551 833.647797 822.156604 0.001210134
13.99018 827.07092 834.131777 822.528237 0.001209086
13.99899 827.388 834.584459 822.901902 0.001208623
14.00780 828.16528 835.045425 823.27758 0.001207488
14.01661 829.41296 835.557954 823.655248 0.001205672
14.02541 830.52747 836.16769 824.034926 0.001204054
14.03422 831.90948 836.923414 824.416504 0.001202054
14.04303 833.60144 837.880334 824.799998 0.001199614
14.05183 835.65845 839.102328 825.185381 0.001196661
14.06064 837.79871 840.66454 825.572623 0.001193604
14.06945 840.49292 842.654164 825.961696 0.001189778
14.07826 843.62067 845.171576 826.352611 0.001185367
14.08706 847.59637 848.324105 826.745246 0.001179807
14.09587 852.61176 852.224916 827.139613 0.001172867
14.10468 858.66266 856.980579 827.535675 0.001164602
14.11348 864.97949 862.681039 827.933395 0.001156097
14.12229 873.58722 869.385266 828.332781 0.001144705
14.13110 883.55872 877.105577 828.733704 0.001131787
14.13991 893.83881 885.790585 829.136167 0.00111877
14.14871 905.28461 895.313557 829.540129 0.001104625
14.15752 916.54242 905.448824 829.945548 0.001091057
14.16633 928.58862 915.858248 830.352379 0.001076903
14.17513 939.34753 926.072941 830.760625 0.001064569
14.18394 949.45038 935.485936 831.170145 0.001053241
14.19275 956.40973 943.377262 831.58094 0.001045577
14.20156 960.36304 949.00692 831.992961 0.001041273
14.21036 960.61707 951.770606 832.406159 0.001040998
14.21917 956.94238 951.387867 832.820532 0.001044995
14.22798 948.3772 948.002103 833.235934 0.001054433
14.23678 938.26129 942.129979 833.65236 0.001065801
14.24559 927.94366 934.495433 834.069757 0.001077652
14.25440 917.25739 925.846275 834.488073 0.001090207
14.26321 907.32495 916.845898 834.907252 0.001102141
14.27201 898.59949 908.024959 835.327288 0.001112843
14.28082 889.87244 899.782094 835.748029 0.001123757
14.28963 883.34607 892.400983 836.169466 0.001132059
14.29843 878.75684 886.070871 836.591542 0.001137971
14.30724 875.30322 880.901838 837.014199 0.001142461
14.31605 872.18048 876.948465 837.437428 0.001146552
14.32486 869.89813 874.223866 837.861072 0.00114956
14.33366 868.85681 872.70777 838.28512 0.001150938
14.34247 868.76831 872.361087 838.709513 0.001151055
14.35128 868.95648 873.127962 839.134191 0.001150806
14.36008 869.52911 874.9373 839.559091 0.001150048
14.36889 871.48322 877.704014 839.984202 0.001147469
14.37770 873.57544 881.321749 840.409365 0.001144721
14.38651 876.12921 885.659652 840.834567 0.001141384
14.39531 879.73608 890.552532 841.259746 0.001136705
14.40412 884.26129 895.791671 841.68484 0.001130887
14.41293 891.18054 901.11601 842.109833 0.001122107
14.42174 900.40228 906.204083 842.534569 0.001110615
14.43054 909.46161 910.684515 842.959031 0.001099552
14.43935 914.40283 914.168371 843.383157 0.00109361
14.44816 915.50787 916.315155 843.806885 0.00109229
14.45696 916.04297 916.918829 844.230152 0.001091652
14.46577 916.15753 915.971281 844.652943 0.001091515
14.47458 915.11792 913.669058 845.075099 0.001092755
14.48339 911.771 910.354588 845.496606 0.001096767
14.49219 907.83252 906.4317 845.917403 0.001101525
14.50100 904.11481 902.296887 846.337378 0.001106054
14.50981 900.86487 898.297056 846.756615 0.001110044
14.51861 897.29553 894.721361 847.174907 0.00111446
14.52742 894.22284 891.802808 847.592241 0.001118289
14.53623 892.70453 889.723278 848.008558 0.001120191
14.54504 892.237 888.618573 848.423796 0.001120778
14.55384 892.6405 888.582665 848.837942 0.001120272
14.56265 893.64331 889.668882 849.250843 0.001119015
14.57146 895.81708 891.888169 849.662488 0.001116299
14.58026 898.86371 895.21176 850.072818 0.001112516
14.58907 903.12854 899.571495 850.481775 0.001107262
14.59788 909.13483 904.849735 850.889301 0.001099947
14.60669 914.57312 910.885681 851.295388 0.001093406
14.61549 921.19116 917.460944 851.699887 0.001085551
14.62430 928.88928 924.300247 852.102788 0.001076555
14.63311 935.18805 931.067574 852.504039 0.001069304
14.64191 942.1095 937.369615 852.903585 0.001061448
14.65072 949.2641 942.794146 853.30142 0.001053448
14.65953 954.70032 946.979801 853.6974 0.001047449
14.66834 959.76361 949.711696 854.091521 0.001041923
14.67714 963.44397 950.99793 854.483734 0.001037943
14.68595 964.78796 951.081146 854.873989 0.001036497
14.69476 965.23938 950.370466 855.262238 0.001036012
14.70356 964.36511 949.337175 855.648479 0.001036952
14.71237 961.65631 948.422023 856.032579 0.001039873
14.72118 959.38879 947.978001 856.414536 0.00104233
14.72999 958.36151 948.244863 856.794307 0.001043448
14.73879 959.17236 949.341368 857.171851 0.001042565
14.74760 959.99213 951.263727 857.547169 0.001041675
14.75641 961.57758 953.898277 857.920136 0.001039958
14.76521 962.54022 957.041943 858.290755 0.001038918
14.77402 964.78876 960.456345 858.65899 0.001036496
14.78283 967.20319 963.919654 859.024805 0.001033909
14.79164 969.51764 967.263553 859.388166 0.001031441
14.80044 969.96307 970.361548 859.749079 0.001030967
14.80925 970.06299 973.084434 860.107431 0.001030861
14.81806 969.89972 975.243892 860.463232 0.001031034
14.82686 969.65253 976.568901 860.816454 0.001031297
14.83567 967.57178 976.725686 861.167069 0.001033515
14.84448 964.55426 975.39974 861.515089 0.001036748
14.85329 961.46747 972.4003 861.860412 0.001040077
14.86209 957.39502 967.745566 862.203053 0.001044501
14.87090 952.22925 961.678246 862.542991 0.001050167
14.87971 947.13464 954.597572 862.880206 0.001055816
14.88851 941.68335 946.957355 863.214679 0.001061928
14.89732 936.08136 939.178312 863.54643 0.001068283
14.90613 930.87549 931.612389 863.875368 0.001074258
14.91494 925.70587 924.515746 864.201518 0.001080257
14.92374 920.6546 918.06629 864.524866 0.001086184
14.93255 916.38275 912.369224 864.845402 0.001091247
14.94136 913.42102 907.464221 865.163153 0.001094785
14.95017 909.87952 903.34375 865.478039 0.001099047
14.95897 906.60333 899.954846 865.79009 0.001103018
14.96778 903.32733 897.211586 866.099301 0.001107018
14.97659 901.01123 895.010766 866.405671 0.001109864
14.98539 898.12067 893.245295 866.709197 0.001113436
14.99420 896.07611 891.819042 867.009915 0.001115977
15.00301 894.64618 890.662053 867.307759 0.00111776
15.01182 893.43677 889.732257 867.602765 0.001119273
15.02062 892.16547 889.012741 867.894941 0.001120868
15.02943 891.17255 888.503749 868.184292 0.001122117
15.03824 890.88281 888.218456 868.470827 0.001122482
15.04704 890.85358 888.17194 868.754558 0.001122519
15.05585 890.43842 888.381699 869.035495 0.001123042
15.06466 890.21844 888.86393 869.313653 0.00112332
15.07347 889.99054 889.631327 869.589047 0.001123607
15.08227 890.35632 890.690832 869.861723 0.001123146
15.09108 891.35168 892.041742 870.131639 0.001121892
15.09989 892.54742 893.673972 870.398845 0.001120389
15.10869 894.9632 895.56606 870.663364 0.001117364
15.11750 896.20526 897.683859 870.925218 0.001115816
15.12631 898.04413 899.977793 871.184432 0.001113531
15.13512 899.46796 902.381951 871.441061 0.001111768
15.14392 902.17798 904.814783 871.695074 0.001108429
15.15273 904.19507 907.187606 871.94653 0.001105956
15.16154 906.66125 909.418272 872.195459 0.001102948
15.17034 908.53381 911.450899 872.441895 0.001100675
15.17915 910.75287 913.271198 872.685897 0.001097993
15.18796 911.0827 914.904742 872.927445 0.001097595
15.19677 911.26898 916.402552 873.166604 0.001097371
15.20557 911.43005 917.818675 873.403412 0.001097177
15.21438 912.42609 919.188985 873.637907 0.001095979
15.22319 913.26904 920.520061 873.87013 0.001094968
15.23199 915.28516 921.791249 874.10015 0.001092556
15.24080 917.68243 922.962738 874.327956 0.001089702
15.24961 919.8985 923.999001 874.55362 0.001087076
15.25842 921.75977 924.901037 874.777186 0.001084881
15.26722 923.9386 925.735191 874.998703 0.001082323
15.27603 926.43378 926.64409 875.218242 0.001079408
15.28484 929.12354 927.836027 875.435803 0.001076283
15.29364 932.83417 929.553103 875.651461 0.001072002
15.30245 937.41431 932.037549 875.865267 0.001066764
15.31126 943.70776 935.502247 876.077275 0.00105965
15.32007 950.54181 940.116044 876.287536 0.001052032
15.32887 960.10931 945.983625 876.49613 0.001041548
15.33768 970.9231 953.137142 876.703064 0.001029948
15.34649 983.54517 961.524274 876.908418 0.00101673
15.35529 997.81659 970.997968 877.11225 0.001002188
15.36410 1013.3032 981.30328 877.314617 0.000986871
15.37291 1030.0985 992.077038 877.515601 0.000970781
15.38172 1048.1876 1002.821849 877.715215 0.000954028
15.39052 1058.9814 1012.931517 877.913544 0.000944304
15.39933 1058.4867 1021.699368 878.110647 0.000944745
15.40814 1048.765 1028.393184 878.306587 0.000953502
15.41695 1037.4678 1032.367375 878.501425 0.000963885
15.42575 1027.9147 1033.196966 878.695247 0.000972843
15.43456 1019.6197 1030.778709 878.888072 0.000980758
15.44337 1011.1677 1025.349463 879.079985 0.000988956
15.45217 1000.4481 1017.414358 879.271052 0.000999552
15.46098 988.44141 1007.623972 879.461336 0.001011694
15.46979 975.35779 996.653157 879.650924 0.001025265
15.47860 963.05951 985.12049 879.839839 0.001038357
15.48740 951.8606 973.546158 880.028167 0.001050574
15.49621 942.03259 962.336532 880.215975 0.001061534
15.50502 932.82819 951.799341 880.403329 0.001072009
15.51382 924.80389 942.147942 880.590294 0.00108131
15.52263 918.12781 933.512139 880.776959 0.001089173
15.53144 913.13568 925.952525 880.963347 0.001095128
15.54025 908.64331 919.469059 881.149546 0.001100542
15.54905 905.20557 914.012283 881.335622 0.001104721
15.55786 902.7514 909.501479 881.521642 0.001107725
15.56667 900.58881 905.833712 881.707693 0.001110385
15.57547 898.5047 902.896744 881.893777 0.00111296
15.58428 896.93927 900.576603 882.080024 0.001114903
15.59309 895.43695 898.766902 882.266478 0.001116773
15.60190 894.27771 897.371624 882.453205 0.001118221
15.61070 894.06342 896.307135 882.64029 0.001118489
15.61951 893.70337 895.504664 882.827755 0.001118939
15.62832 893.11786 894.907548 883.015687 0.001119673
15.63712 893.03009 894.471651 883.204148 0.001119783
15.64593 893.67987 894.162967 883.393203 0.001118969
15.65474 893.97363 893.956162 883.582912 0.001118601
15.66355 893.3512 893.8327 883.77336 0.001119381
15.67235 892.79913 893.780009 883.964565 0.001120073
15.68116 892.71655 893.789798 884.15661 0.001120176
15.68997 892.95007 893.857727 884.349553 0.001119883
15.69877 893.87573 893.98268 884.543455 0.001118724
15.70758 895.13458 894.166521 884.738395 0.00111715
15.71639 896.63055 894.413753 884.934388 0.001115287
15.72520 897.34302 894.731888 885.131511 0.001114401
15.73400 898.04736 895.131037 885.32982 0.001113527
15.74281 898.45532 895.62418 885.529371 0.001113021
15.75162 899.15881 896.227064 885.730216 0.001112151
15.76042 901.33069 896.958009 885.932431 0.001109471
15.76923 903.47449 897.837123 886.136022 0.001106838
15.77804 904.55566 898.886694 886.341062 0.001105515
15.78685 906.01709 900.129553 886.547601 0.001103732
15.79565 907.9624 901.588548 886.755686 0.001101367
15.80446 910.34912 903.286018 886.965389 0.00109848
15.81327 912.94482 905.239603 887.176707 0.001095356
15.82207 915.39276 907.467386 887.389708 0.001092427
15.83088 918.36096 909.978227 887.604435 0.001088896
15.83969 921.12372 912.773603 887.82093 0.00108563
15.84850 924.44336 915.844291 888.039232 0.001081732
15.85730 927.06396 919.168295 888.259407 0.001078674
15.86611 929.58917 922.705856 888.481441 0.001075744
15.87492 932.28198 926.404224 888.705394 0.001072637
15.88373 936.84857 930.199957 888.931302 0.001067408
15.89253 940.70087 934.028921 889.159197 0.001063037
15.90134 944.17456 937.838021 889.389137 0.001059126
15.91015 947.16718 941.587971 889.621098 0.00105578
15.91895 950.9231 945.251637 889.855136 0.00105161
15.92776 954.24054 948.800529 890.091276 0.001047954
15.93657 958.0683 952.188882 890.329544 0.001043767
15.94538 960.30646 955.347431 890.569962 0.001041334
15.95418 963.09467 958.187957 890.81258 0.00103832
15.96299 965.38599 960.617297 891.057362 0.001035855
15.97180 968.36493 962.561687 891.304354 0.001032669
15.98060 969.61841 963.984638 891.553572 0.001031334
15.98941 970.15741 964.896413 891.805031 0.001030761
15.99822 971.1037 965.352628 892.058773 0.001029756
16.00702 971.92169 965.446077 892.31472 0.001028889
16.01583 970.71851 965.294831 892.573 0.001030165
16.02464 968.72516 965.023885 892.833503 0.001032285
16.03345 967.29486 964.743419 893.096351 0.001033811
16.04225 966.13513 964.532137 893.36143 0.001035052
16.05106 964.73865 964.421996 893.628893 0.00103655
16.05987 963.05035 964.395786 893.898558 0.001038367
16.06868 962.56604 964.390567 894.170575 0.00103889
16.07748 962.70898 964.31133 894.444817 0.001038736
16.08629 963.60431 964.0502 894.721405 0.00103777
16.09510 963.78247 963.517018 895.000237 0.001037579
16.10391 964.58936 962.668628 895.281367 0.001036711
16.11271 963.84509 961.530028 895.564688 0.001037511
16.12152 963.17316 960.198922 895.850317 0.001038235
16.13032 961.50092 958.82697 896.13811 0.001040041
16.13913 960.95508 957.591152 896.42818 0.001040631
16.14794 960.07733 956.670289 896.720412 0.001041583
16.15675 960.22229 956.22378 897.014852 0.001041426
16.16555 960.10791 956.376901 897.311378 0.00104155
16.17436 961.44116 957.217041 897.6101 0.001040105
16.18317 963.16022 958.781425 897.910859 0.001038249
16.19198 966.17633 961.057665 898.213799 0.001035008
16.20078 969.06628 963.976971 898.518684 0.001031921
16.20959 972.35663 967.416898 898.825656 0.001028429
16.21840 976.58356 971.192821 899.134546 0.001023978
16.22721 981.33875 975.071058 899.445459 0.001019016
16.23601 985.74426 978.761948 899.758253 0.001014462
16.24482 989.86682 981.946136 900.072965 0.001010237
16.25363 992.55988 984.304411 900.389446 0.001007496
16.26243 994.25665 985.569052 900.707801 0.001005777
16.27124 994.56415 985.575735 901.027843 0.001005466
16.28005 993.13391 984.301239 901.349675 0.001006914
16.28886 989.401 981.862535 901.673142 0.001010713
16.29766 984.31116 978.479489 901.998272 0.001015939
16.30647 978.99139 974.423102 902.324906 0.001021459
16.31528 972.89032 969.965434 902.653142 0.001027865
16.32408 967.32501 965.357414 902.982782 0.001033779
16.33289 961.77203 960.803003 903.313923 0.001039747
16.34170 956.17236 956.470365 903.646399 0.001045837
16.35051 951.03033 952.481752 903.980231 0.001051491
16.35931 946.39587 948.919958 904.31525 0.00105664
16.36812 942.48859 945.827988 904.651551 0.001061021
16.37693 939.75183 943.218508 904.988923 0.001064111
16.38573 937.68164 941.071879 905.32742 0.00106646
16.39454 935.4978 939.336492 905.666984 0.00106895
16.40335 934.34497 938.003654 906.007437 0.001070269
16.41215 933.11432 937.017737 906.34887 0.00107168
16.42096 932.08185 936.352369 906.691066 0.001072867
16.42977 931.53052 935.995633 907.034154 0.001073502
16.43858 931.50464 935.945813 907.377835 0.001073532
16.44738 931.32214 936.205918 907.722238 0.001073742
16.45619 931.17889 936.778128 908.06714 0.001073908
16.46500 931.26624 937.658797 908.41263 0.001073807
16.47380 931.47803 938.835119 908.758481 0.001073563
16.48261 933.07751 940.284659 909.104822 0.001071722
16.49142 934.9397 941.969812 909.451346 0.001069588
16.50023 936.39862 943.840331 909.798181 0.001067921
16.50903 938.5683 945.829494 910.145097 0.001065453
16.51784 941.88184 947.858264 910.492181 0.001061704
16.52665 945.77698 949.83914 910.839242 0.001057332
16.53546 949.74408 951.689882 911.186288 0.001052915
16.54426 952.86609 953.3425 911.533128 0.001049465
16.55307 954.93079 954.755646 911.879846 0.001047196
16.56188 956.99103 955.91188 912.226212 0.001044942
16.57068 957.22235 956.811526 912.572311 0.001044689
16.57949 956.86798 957.457401 912.91795 0.001045076
16.58830 957.24554 957.848021 913.263135 0.001044664
16.59710 957.35901 957.972635 913.607675 0.00104454
16.60591 956.76648 957.818299 913.951653 0.001045187
16.61472 956.25146 957.380201 914.29484 0.00104575
16.62353 955.98755 956.67287 914.637357 0.001046039
16.63233 955.68237 955.734024 914.978897 0.001046373
16.64114 955.1015 954.619795 915.319583 0.001047009
16.64995 954.79315 953.397021 915.659187 0.001047347
16.65876 954.5683 952.130634 915.997791 0.001047594
16.66756 954.34082 950.878591 916.335169 0.001047844
16.67637 953.52954 949.688306 916.671442 0.001048735
16.68518 952.59924 948.598838 917.00631 0.001049759
16.69399 952.4978 947.642216 917.339893 0.001049871
16.70279 952.61682 946.855023 917.671969 0.00104974
16.71160 953.44086 946.274794 918.00262 0.001048833
16.72041 953.2179 945.947966 918.331666 0.001049078
16.72921 953.30963 945.927105 918.659112 0.001048977
16.73802 953.55823 946.268054 918.984782 0.001048704
16.74683 954.68018 947.026411 919.308758 0.001047471
16.75563 956.7179 948.253873 919.630826 0.00104524
16.76444 959.04999 949.996825 919.951069 0.001042699
16.77325 959.8634 952.292518 920.269314 0.001041815
16.78206 961.65515 955.168752 920.585572 0.001039874
16.79086 964.40906 958.630736 920.899675 0.001036904
16.79967 968.08209 962.698716 921.211704 0.00103297
16.80848 972.21844 967.343866 921.521459 0.001028575
16.81729 977.34454 972.529396 921.829059 0.001023181
16.82609 981.78992 978.186501 922.134237 0.001018548
16.83490 987.41626 984.223848 922.437111 0.001012744
16.84371 994.71106 990.513571 922.737492 0.001005317
16.85251 1001.139 996.900125 923.035462 0.000998862
16.86132 1007.5739 1003.198392 923.330836 0.000992483
16.87013 1014.431 1009.220596 923.623731 0.000985774
16.87893 1018.524 1014.78753 923.9139 0.000981813
16.88774 1022.5749 1019.767476 924.201461 0.000977923
16.89655 1026.9425 1024.074671 924.486239 0.000973764
16.90536 1029.0504 1027.694895 924.768319 0.00097177
16.91416 1029.9841 1030.625339 925.047565 0.000970889
16.92297 1030.1469 1032.877108 925.323935 0.000970735
16.93178 1029.2993 1034.4523 925.597486 0.000971535
16.94058 1027.8809 1035.340784 925.868057 0.000972875
16.94939 1026.7142 1035.542223 926.135735 0.000973981
16.95820 1025.5424 1035.098892 926.400396 0.000975094
16.96701 1026.3202 1034.118917 926.662068 0.000974355
16.97581 1025.8315 1032.786724 926.920633 0.000974819
16.98462 1027.7738 1031.343372 927.176181 0.000972977
16.99343 1026.8981 1030.056126 927.428569 0.000973806
17.00223 1028.5701 1029.17877 927.677889 0.000972223
17.01104 1027.3535 1028.924036 927.924032 0.000973375
17.01985 1030.5089 1029.445053 928.167034 0.000970394
17.02866 1029.6086 1030.829556 928.406795 0.000971243
17.03746 1033.47 1033.091704 928.643407 0.000967614
17.04627 1034.3931 1036.176284 928.876748 0.00096675
17.05508 1040.3384 1039.959578 929.106938 0.000961226
17.06388 1042.6003 1044.244503 929.333809 0.00095914
17.07269 1049.7356 1048.777567 929.557482 0.000952621
17.08150 1053.3024 1053.238945 929.777849 0.000949395
17.09031 1061.915 1057.310778 929.995005 0.000941695
17.09911 1065.3392 1060.654817 930.208849 0.000938668
17.10792 1072.5209 1063.008959 930.419502 0.000932383
17.11673 1073.3251 1064.228192 930.626821 0.000931684
17.12554 1075.2905 1064.326347 930.830927 0.000929981
17.13434 1069.8813 1063.474223 931.031734 0.000934683
17.14315 1066.4098 1061.96124 931.22934 0.000937726
17.15196 1059.1816 1060.138555 931.423687 0.000944125
17.16077 1054.8516 1058.361418 931.614829 0.000948001
17.16957 1049.212 1056.946547 931.802716 0.000953096
17.17838 1046.0393 1056.141888 931.987448 0.000955987
17.18718 1042.4957 1056.120301 932.168958 0.000959237
17.19599 1042.2247 1056.968715 932.347347 0.000959486
17.20480 1041.2656 1058.685428 932.522576 0.00096037
17.21361 1042.4628 1061.184211 932.694707 0.000959267
17.22241 1045.7922 1064.289974 932.863706 0.000956213
17.23122 1049.9966 1067.747883 933.029677 0.000952384
17.24003 1053.1749 1071.232417 933.192573 0.00094951
17.24884 1056.5151 1074.391102 933.352515 0.000946508
17.25764 1060.4092 1076.863398 933.509427 0.000943032
17.26645 1063.9381 1078.352969 933.663432 0.000939904
17.27526 1066.8292 1078.674877 933.814496 0.000937357
17.28406 1067.7303 1077.780924 933.962724 0.000936566
17.29287 1067.1632 1075.753227 934.108087 0.000937064
17.30168 1064.8386 1072.767055 934.250708 0.000939109
17.31049 1060.9108 1069.043485 934.390532 0.000942586
17.31929 1054.7787 1064.79772 934.527682 0.000948066
17.32810 1048.1614 1060.218524 934.66214 0.000954052
17.33691 1040.9536 1055.441398 934.794015 0.000960658
17.34571 1035.49 1050.551645 934.923309 0.000965726
17.35452 1030.0975 1045.588011 935.050101 0.000970782
17.36333 1025.5841 1040.548496 935.174399 0.000975054
17.37214 1021.2133 1035.404222 935.29631 0.000979227
17.38094 1016.6089 1030.124645 935.415834 0.000983662
17.38975 1012.3913 1024.686377 935.533078 0.00098776
17.39856 1008.5949 1019.096938 935.648059 0.000991478
17.40737 1003.343 1013.395215 935.760859 0.000996668
17.41617 997.3866 1007.651252 935.871498 0.00100262
17.42498 991.07129 1001.949814 935.980085 0.001009009
17.43379 985.19427 996.38628 936.086632 0.001015028
17.44260 979.78491 991.046717 936.191258 0.001020632
17.45140 974.81744 986.011359 936.293955 0.001025833
17.46021 969.98102 981.340589 936.394821 0.001030948
17.46901 966.48016 977.079152 936.493942 0.001034682
17.47782 963.15521 973.259072 936.591336 0.001038254
17.48663 960.27667 969.89367 936.687113 0.001041367
17.49544 957.41217 966.98497 936.781305 0.001044482
17.50424 955.02271 964.521444 936.874 0.001047096
17.51305 953.31586 962.481063 936.965232 0.00104897
17.52186 952.03625 960.830957 937.055111 0.00105038
17.53066 951.33429 959.531853 937.143661 0.001051155
17.53947 951.17621 958.536729 937.231001 0.00105133
17.54828 950.92413 957.795207 937.317139 0.001051609
17.55709 950.45282 957.253439 937.402193 0.00105213
17.56589 950.45929 956.857705 937.486191 0.001052123
17.57470 950.12231 956.556147 937.56924 0.001052496
17.58351 950.61414 956.302628 937.65138 0.001051952
17.59232 950.32422 956.059748 937.732697 0.001052272
17.60112 950.07025 955.80244 937.813232 0.001052554
17.60993 950.67224 955.519315 937.89309 0.001051887
17.61874 950.99078 955.212756 937.972302 0.001051535
17.62754 950.18054 954.896269 938.050971 0.001052432
17.63635 950.0423 954.591514 938.129137 0.001052585
17.64516 950.3634 954.324141 938.206885 0.001052229
17.65396 950.64868 954.121519 938.284254 0.001051913
17.66277 949.77588 954.010157 938.361346 0.00105288
17.67158 950.01544 954.014751 938.438189 0.001052614
17.68039 950.81653 954.15736 938.514884 0.001051728
17.68919 951.15527 954.456692 938.591468 0.001051353
17.69800 950.9975 954.928048 938.668021 0.001051527
17.70681 952.36847 955.58264 938.744579 0.001050014
17.71562 954.59851 956.428263 938.821239 0.001047561
17.72442 956.94269 957.468298 938.898024 0.001044995
17.73323 958.82916 958.703407 938.97504 0.001042939
17.74204 960.47223 960.129216 939.05229 0.001041155
17.75085 961.92072 961.739328 939.129876 0.001039587
17.75965 964.29083 963.522316 939.207819 0.001037032
17.76846 967.63483 965.464758 939.286209 0.001033448
17.77727 971.39612 967.54899 939.365072 0.001029446
17.78607 973.88586 969.757514 939.444479 0.001026814
17.79488 975.80444 972.073585 939.524453 0.001024796
17.80369 978.67914 974.488408 939.60508 0.001021785
17.81249 981.98932 977.001153 939.686372 0.001018341
17.82130 984.26697 979.623431 939.768411 0.001015985
17.83011 986.39075 982.371404 939.851214 0.001013797
17.83892 988.83594 985.263809 939.934845 0.00101129
17.84772 991.85712 988.308229 940.019315 0.00100821
17.85653 994.87738 991.498421 940.104702 0.001005149
17.86534 997.39526 994.803719 940.191008 0.001002612
17.87415 1000.1895 998.170116 940.278316 0.000999811
17.88295 1003.0037 1001.512681 940.366603 0.000997005
17.89176 1006.3142 1004.72471 940.455951 0.000993725
17.90057 1008.9541 1007.675214 940.54635 0.000991125
17.90937 1011.9146 1010.224721 940.637871 0.000988226
17.91818 1013.971 1012.234919 940.7305 0.000986221
17.92699 1015.3912 1013.589732 940.824314 0.000984842
17.93579 1015.3709 1014.207521 940.919273 0.000984862
17.94460 1015.7679 1014.055809 941.015452 0.000984477
17.95341 1014.7325 1013.152061 941.112826 0.000985481
17.96222 1012.775 1011.559458 941.211457 0.000987386
17.97102 1010.0989 1009.377581 941.311327 0.000990002
17.97983 1007.8671 1006.727639 941.412472 0.000992194
17.98864 1003.6543 1003.738938 941.514868 0.000996359
17.99744 1000.1356 1000.534947 941.618547 0.000999864
18.00625 997.354 997.224134 941.723539 0.001002653
18.01506 994.93378 993.898947 941.829814 0.001005092
18.02387 991.99384 990.630982 941.937399 0.001008071
18.03267 989.86273 987.478482 942.046256 0.001010241
18.04148 987.85236 984.486106 942.156435 0.001012297
18.05029 985.36981 981.693699 942.267881 0.001014847
18.05909 982.58856 979.133785 942.380638 0.00101772
18.06790 981.23859 976.836731 942.494661 0.00101912
18.07671 980.03656 974.826024 942.609965 0.00102037
18.08552 978.31738 973.121398 942.726498 0.001022163
18.09432 977.24457 971.736775 942.8443 0.001023285
18.10313 977.4375 970.684384 942.963299 0.001023083
18.11194 977.23083 969.973935 943.083532 0.0010233
18.12074 976.46362 969.614719 943.204937 0.001024104
18.12955 976.58044 969.61398 943.327518 0.001023981
18.13836 976.90979 969.975117 943.45121 0.001023636
18.14717 977.60193 970.696145 943.576042 0.001022911
18.15597 978.89417 971.76708 943.701928 0.001021561
18.16478 980.05011 973.168999 943.82891 0.001020356
18.17359 981.03143 974.871132 943.956868 0.001019335
18.18240 982.45209 976.832308 944.08584 0.001017861
18.19120 984.19733 978.996986 944.215732 0.001016056
18.20001 986.31445 981.298681 944.346565 0.001013875
18.20882 988.68622 983.656752 944.478253 0.001011443
18.21763 991.05194 985.978529 944.610786 0.001009029
18.22643 993.76532 988.160779 944.744074 0.001006274
18.23524 997.15295 990.095497 944.878134 0.001002855
18.24404 999.95764 991.675005 945.012858 0.001000042
18.25285 1002.0323 992.807237 945.148258 0.000997972
18.26166 1004.1393 993.426787 945.284239 0.000995878
18.27047 1005.8156 993.508226 945.420781 0.000994218
18.27927 1007.1541 993.07138 945.557784 0.000992897
18.28808 1005.6097 992.178113 945.695256 0.000994422
18.29689 1002.0132 990.922592 945.833081 0.000997991
18.30570 998.35492 989.415777 945.971263 0.001001648
18.31450 995.78772 987.773942 946.109698 0.00100423
18.32331 992.9538 986.108325 946.248359 0.001007096
18.33212 989.51221 984.519704 946.387137 0.001010599
18.34092 986.31464 983.09433 946.526036 0.001013875
18.34973 984.04547 981.905083 946.66493 0.001016213
18.35854 982.81329 981.008092 946.803835 0.001017487
18.36735 982.23633 980.445613 946.942592 0.001018085
18.37615 982.51666 980.244246 947.081217 0.001017794
18.38496 982.94086 980.416698 947.21958 0.001017355
18.39377 983.97675 980.962542 947.357678 0.001016284
18.40257 985.12018 981.869276 947.495399 0.001015105
18.41138 985.98529 983.113964 947.632707 0.001014214
18.42019 987.9682 984.665654 947.769487 0.001012178
18.42900 990.28973 986.490116 947.905734 0.001009805
18.43780 992.44189 988.552118 948.041319 0.001007616
18.44661 995.2749 990.823963 948.176234 0.001004748
18.45542 999.10602 993.28683 948.310366 0.001000895
18.46423 1002.9536 995.934531 948.443676 0.000997055
18.47303 1005.5005 998.770625 948.576051 0.00099453
18.48184 1007.347 1001.805892 948.707483 0.000992707
18.49065 1010.6224 1005.047655 948.837844 0.000989489
18.49945 1014.1168 1008.499336 948.967125 0.00098608
18.50826 1018.431 1012.151834 949.095215 0.000981903
18.51707 1022.6963 1015.986796 949.222076 0.000977807
18.52587 1027.0785 1019.977215 949.347599 0.000973635
18.53468 1030.8007 1024.09408 949.471745 0.00097012
18.54349 1035.743 1028.307712 949.594477 0.00096549
18.55230 1039.8411 1032.586116 949.715689 0.000961685
18.56110 1043.6891 1036.892803 949.835344 0.00095814
18.56991 1047.1873 1041.17875 949.953338 0.000954939
18.57872 1051.9482 1045.378311 950.069663 0.000950617
18.58752 1056.9851 1049.398812 950.184203 0.000946087
18.59633 1061.9746 1053.129976 950.296965 0.000941642
18.60514 1066.2164 1056.442461 950.407811 0.000937896
18.61395 1070.576 1059.211289 950.516747 0.000934077
18.62275 1073.4823 1061.331171 950.623667 0.000931548
18.63156 1075.6503 1062.743741 950.728563 0.00092967
18.64037 1074.8931 1063.452001 950.831346 0.000930325
18.64918 1073.6088 1063.52688 950.931986 0.000931438
18.65798 1069.5609 1063.095064 951.030398 0.000934963
18.66679 1066.5651 1062.316813 951.126577 0.000937589
18.67560 1063.1178 1061.358622 951.220432 0.00094063
18.68440 1060.9028 1060.371651 951.311959 0.000942593
18.69321 1058.196 1059.476557 951.401081 0.000945005
18.70202 1055.5891 1058.751762 951.487776 0.000947338
18.71082 1053.5988 1058.230691 951.571974 0.000949128
18.71963 1053.3528 1057.901622 951.653673 0.00094935
18.72844 1052.3934 1057.70831 951.732801 0.000950215
18.73725 1052.3883 1057.558837 951.809357 0.00095022
18.74605 1052.6141 1057.334893 951.883281 0.000950016
18.75486 1053.0286 1056.905525 951.954559 0.000949642
18.76367 1052.8662 1056.137731 952.023139 0.000949788
18.77248 1053.7278 1054.942719 952.089024 0.000949012
18.78128 1053.299 1053.240395 952.152159 0.000949398
18.79009 1051.4103 1051.012622 952.212559 0.000951103
18.79890 1047.5571 1048.263421 952.270159 0.000954602
18.80770 1042.953 1045.026556 952.324977 0.000958816
18.81651 1037.9886 1041.355279 952.376971 0.000963402
18.82532 1033.5522 1037.311112 952.426151 0.000967537
18.83413 1028.4805 1032.964727 952.472489 0.000972308
18.84293 1023.0554 1028.387965 952.515986 0.000977464
18.85174 1017.7054 1023.657573 952.556621 0.000982603
18.86055 1012.727 1018.848172 952.594408 0.000987433
18.86935 1008.1819 1014.035824 952.629329 0.000991885
18.87816 1003.9713 1009.288297 952.661398 0.000996044
18.88697 999.85358 1004.670442 952.690609 0.001000146
18.89578 996.00934 1000.234639 952.716972 0.001004007
18.90458 992.31476 996.028918 952.740487 0.001007745
18.91339 988.63654 992.089008 952.761173 0.001011494
18.92220 985.91821 988.445352 952.779034 0.001014283
18.93100 982.79852 985.116839 952.794092 0.001017503
18.93981 979.51135 982.116256 952.806359 0.001020917
18.94862 976.76636 979.446012 952.815855 0.001023786
18.95743 974.83118 977.103091 952.8226 0.001025819
18.96623 973.03815 975.076475 952.826619 0.001027709
18.97504 971.14514 973.352293 952.827938 0.001029712
18.98385 969.28259 971.911455 952.826583 0.001031691
18.99265 967.94623 970.734054 952.822587 0.001033115
19.00146 967.37451 969.796491 952.815978 0.001033726
19.01027 965.75806 969.075083 952.806794 0.001035456
19.01908 964.33282 968.544405 952.795067 0.001036986
19.02788 964.02899 968.178959 952.780839 0.001037313
19.03669 964.48602 967.952608 952.764146 0.001036822
19.04550 964.5777 967.839621 952.745037 0.001036723
19.05431 964.44556 967.814589 952.723546 0.001036865
19.06311 964.24957 967.853604 952.699728 0.001037076
19.07192 964.64508 967.934746 952.673627 0.001036651
19.08073 964.61932 968.039251 952.64528 0.001036678
19.08953 964.47723 968.152311 952.614757 0.001036831
19.09834 964.39874 968.264356 952.582093 0.001036915
19.10715 964.63934 968.371518 952.547357 0.001036657
19.11595 964.67432 968.476744 952.510586 0.001036619
19.12476 965.01819 968.589862 952.47185 0.00103625
19.13357 965.5379 968.727196 952.431196 0.001035692
19.14238 965.91974 968.910691 952.388697 0.001035283
19.15118 965.75702 969.16636 952.344393 0.001035457
19.15999 965.78699 969.521854 952.298364 0.001035425
19.16880 966.0799 970.005462 952.250652 0.001035111
19.17760 967.10968 970.643944 952.201333 0.001034009
19.18641 968.80426 971.461658 952.150459 0.0010322
19.19522 970.29132 972.4794 952.098112 0.001030618
19.20403 971.82147 973.714846 952.044331 0.001028996
19.21283 973.60712 975.179742 951.989206 0.001027108
19.22164 975.64862 976.882253 951.932771 0.001024959
19.23045 978.24945 978.823115 951.875128 0.001022234
19.23926 981.68329 980.998383 951.81631 0.001018658
19.24806 985.53876 983.395852 951.756411 0.001014673
19.25687 989.14856 985.997456 951.695469 0.00101097
19.26568 991.82739 988.775041 951.633576 0.00100824
19.27448 994.68372 991.696248 951.570763 0.001005345
19.28329 997.85034 994.719873 951.507138 0.001002154
19.29210 1001.2847 997.804306 951.44273 0.000998717
19.30091 1004.0031 1000.906062 951.377633 0.000996013
19.30971 1007.3521 1003.987325 951.311881 0.000992702
19.31852 1010.5225 1007.013647 951.24556 0.000989587
19.32733 1013.388 1009.957956 951.178718 0.000986789
19.33613 1015.6639 1012.795579 951.11144 0.000984578
19.34494 1017.1757 1015.50169 951.043756 0.000983114
19.35375 1018.1624 1018.042151 950.975758 0.000982162
19.36256 1020.4549 1020.372763 950.907474 0.000979955
19.37136 1022.537 1022.433252 950.838986 0.00097796
19.38017 1023.5903 1024.150281 950.770335 0.000976953
19.38898 1024.7566 1025.442392 950.701601 0.000975841
19.39778 1026.8239 1026.228262 950.632808 0.000973877
19.40659 1028.5228 1026.438908 950.564039 0.000972268
19.41540 1028.7729 1026.03137 950.495308 0.000972032
19.42421 1028.4895 1024.99879 950.426712 0.0009723
19.43301 1026.8662 1023.373301 950.358261 0.000973837
19.44182 1022.6467 1021.222575 950.290033 0.000977855
19.45063 1018.3266 1018.637147 950.222043 0.000982003
19.45943 1013.8703 1015.71973 950.154358 0.000986319
19.46824 1009.3211 1012.571941 950.087005 0.000990765
19.47705 1004.1359 1009.288807 950.020047 0.000995881
19.48586 1000.2772 1005.944375 949.953493 0.000999723
19.49466 996.28192 1002.619545 949.887408 0.001003732
19.50347 992.58618 999.363383 949.821797 0.001007469
19.51228 989.50903 996.221995 949.756717 0.001010602
19.52109 987.01324 993.232257 949.692182 0.001013158
19.52989 985.08728 990.424654 949.628243 0.001015138
19.53870 982.75623 987.819329 949.564899 0.001017546
19.54751 980.86414 985.428912 949.502202 0.001019509
19.55631 978.85211 983.25494 949.440146 0.001021605
19.56512 977.21289 981.289477 949.378774 0.001023318
19.57393 975.96478 979.514651 949.31809 0.001024627
19.58273 974.77881 977.905486 949.258131 0.001025874
19.59154 973.21698 976.429749 949.198884 0.00102752
19.60035 971.79681 975.055159 949.140389 0.001029022
19.60916 970.55164 973.748922 949.082636 0.001030342
19.61796 969.86139 972.483789 949.025633 0.001031075
19.62677 968.6944 971.239896 948.969407 0.001032317
19.63558 968.08942 970.005035 948.913937 0.001032962
19.64438 967.66968 968.775995 948.85925 0.00103341
19.65319 966.60748 967.552305 948.805317 0.001034546
19.66200 965.05688 966.349333 948.752173 0.001036208
19.67081 964.32813 965.174133 948.699786 0.001036991
19.67961 964.20624 964.039689 948.648175 0.001037123
19.68842 963.60962 962.958195 948.59731 0.001037765
19.69723 962.3161 961.942239 948.547208 0.00103916
19.70604 961.07056 961.00294 948.497832 0.001040506
19.71484 960.12708 960.151763 948.449203 0.001041529
19.72365 959.9635 959.397855 948.401284 0.001041706
19.73246 960.11023 958.750428 948.354083 0.001041547
19.74126 960.09106 958.216997 948.307566 0.001041568
19.75007 959.91913 957.804388 948.261732 0.001041754
19.75888 959.80847 957.51833 948.216555 0.001041875
19.76769 959.86285 957.363637 948.172035 0.001041816
19.77649 960.45648 957.343964 948.128133 0.001041172
19.78530 960.2934 957.461899 948.084851 0.001041348
19.79411 960.38171 957.718929 948.042151 0.001041253
19.80291 960.64441 958.114915 948.000029 0.001040968
19.81172 961.07788 958.648184 947.958456 0.001040498
19.82053 961.34943 959.3147 947.917425 0.001040204
19.82934 961.48199 960.108822 947.876901 0.001040061
19.83814 962.90167 961.021331 947.83688 0.001038528
19.84695 964.2146 962.040893 947.797322 0.001037114
19.85576 965.4306 963.151694 947.758234 0.001035807
19.86456 966.81049 964.335577 947.719577 0.001034329
19.87337 967.17682 965.569291 947.681349 0.001033937
19.88218 967.23889 966.827524 947.643517 0.001033871
19.89099 968.42993 968.07992 947.60608 0.001032599
19.89979 969.95184 969.294771 947.569004 0.001030979
19.90860 970.87097 970.437173 947.5323 0.001030003
19.91741 971.9906 971.473104 947.495932 0.001028817
19.92621 973.28467 972.368253 947.459908 0.001027449
19.93502 973.79785 973.092723 947.4242 0.001026907
19.94383 972.94513 973.620537 947.388812 0.001027807
19.95264 972.34967 973.93098 947.353731 0.001028437
19.96144 972.40302 974.022065 947.318962 0.00102838
19.97025 972.51416 973.894731 947.284489 0.001028263
19.97906 971.84418 973.564639 947.250325 0.001028972
19.98786 971.18829 973.057902 947.216458 0.001029666
19.99667 971.43976 972.40831 947.182902 0.0010294
20.00548 970.65692 971.653456 947.149657 0.00103023
20.01429 969.65601 970.831784 947.116743 0.001031294
20.02309 969.05121 969.979456 947.084156 0.001031937
20.03190 968.48071 969.129253 947.051926 0.001032545
20.04071 967.90405 968.309033 947.020052 0.00103316
20.04951 966.76031 967.542918 946.988574 0.001034383
20.05832 966.47607 966.849293 946.957498 0.001034687
20.06713 966.50287 966.243025 946.926864 0.001034658
20.07594 966.41541 965.735575 946.896685 0.001034752
20.08474 966.49231 965.33609 946.867008 0.001034669
20.09355 967.14343 965.052388 946.837852 0.001033973
20.10236 967.63446 964.892414 946.809272 0.001033448
20.11117 967.78888 964.863664 946.781294 0.001033283
20.11997 968.15436 964.973618 946.753974 0.001032893
20.12878 968.84509 965.230261 946.727347 0.001032157
20.13759 968.24921 965.640548 946.701472 0.001032792
20.14639 968.05768 966.210979 946.676401 0.001032996
20.15520 969.37366 966.94828 946.652183 0.001031594
20.16401 970.50739 967.857756 946.628886 0.001030389
20.17281 971.6936 968.945285 946.606561 0.001029131
20.18162 973.1875 970.216263 946.585281 0.001027551
20.19043 974.66296 971.676047 946.565107 0.001025996
20.19924 975.50482 973.327795 946.546114 0.00102511
20.20804 976.75165 975.17549 946.528366 0.001023802
20.21685 978.37036 977.218316 946.511944 0.001022108
20.22566 980.20398 979.454905 946.496917 0.001020196
20.23447 982.50055 981.880353 946.483367 0.001017811
20.24327 984.29901 984.489023 946.471369 0.001015951
20.25208 986.35443 987.272307 946.461009 0.001013834
20.26089 988.68323 990.224702 946.452363 0.001011446
20.26969 991.52466 993.335933 946.445518 0.001008548
20.27850 994.5592 996.596628 946.440553 0.001005471
20.28731 997.63501 999.989245 946.437556 0.001002371
20.29612 1000.368 1003.492429 946.436607 0.000999632
20.30492 1002.7139 1007.071265 946.437792 0.000997293
20.31373 1005.6858 1010.684052 946.441194 0.000994346
20.32254 1009.5871 1014.273787 946.446895 0.000990504
20.33134 1013.4642 1017.77768 946.454978 0.000986715
20.34015 1017.8309 1021.123328 946.465519 0.000982481
20.34896 1021.8687 1024.241594 946.478601 0.000978599
20.35777 1025.269 1027.066549 946.494294 0.000975354
20.36657 1028.3789 1029.546819 946.512678 0.000972404
20.37538 1032.1342 1031.645005 946.533817 0.000968866
20.38419 1034.7614 1033.341437 946.557783 0.000966406
20.39299 1036.9246 1034.630194 946.584631 0.00096439
20.40180 1037.7361 1035.516856 946.61443 0.000963636
20.41061 1038.2515 1036.014913 946.647221 0.000963158
20.41942 1038.179 1036.141762 946.683068 0.000963225
20.42822 1037.1921 1035.918911 946.722002 0.000964142
20.43703 1035.677 1035.369071 946.764068 0.000965552
20.44584 1033.4463 1034.513033 946.809282 0.000967636
20.45464 1031.3562 1033.366879 946.857688 0.000969597
20.46345 1029.5973 1031.942898 946.909279 0.000971254
20.47226 1027.2128 1030.244098 946.964094 0.000973508
20.48107 1024.755 1028.274285 947.022092 0.000975843
20.48987 1022.9004 1026.035414 947.0833 0.000977612
20.49868 1021.4748 1023.539492 947.147666 0.000978977
20.50749 1019.104 1020.804344 947.215194 0.000981254
20.51629 1015.9636 1017.863703 947.285814 0.000984287
20.52510 1013.1668 1014.757332 947.359514 0.000987004
20.53391 1009.6978 1011.533353 947.436186 0.000990395
20.54272 1006.1267 1008.239231 947.515799 0.000993911
20.55152 1002.3282 1004.923303 947.598232 0.000997677
20.56033 998.77228 1001.626402 947.683424 0.001001229
20.56914 995.14417 998.386141 947.771238 0.00100488
20.57795 992.03827 995.231607 947.861573 0.001008026
20.58675 989.36682 992.186933 947.95426 0.001010747
20.59556 987.06207 989.267301 948.04919 0.001013108
20.60437 985.02655 986.483119 948.146159 0.001015201
20.61317 982.97986 983.837639 948.245031 0.001017315
20.62198 981.02661 981.332832 948.345581 0.00101934
20.63079 979.08099 978.967362 948.447626 0.001021366
20.63959 977.67957 976.739735 948.550909 0.00102283
20.64840 976.35559 974.648497 948.655244 0.001024217
20.65721 974.82855 972.694872 948.760329 0.001025821
20.66602 972.96155 970.879092 948.865962 0.00102779
20.67482 971.00665 969.203704 948.971789 0.001029859
20.68363 969.62439 967.669331 949.077554 0.001031327
20.69244 969.04449 966.276261 949.182974 0.001031944
20.70124 968.27252 965.025165 949.287678 0.001032767
20.71005 967.02496 963.914796 949.391378 0.001034099
20.71886 966.32214 962.944454 949.49369 0.001034852
20.72767 965.40601 962.112773 949.594275 0.001035834
20.73647 965.41754 961.419263 949.692727 0.001035821
20.74528 964.6413 960.86293 949.788706 0.001036655
20.75409 964.11725 960.443881 949.88177 0.001037218
20.76290 963.58887 960.162372 949.971566 0.001037787
20.77170 963.49664 960.020067 950.057619 0.001037886
20.78051 963.37042 960.018358 950.139553 0.001038022
20.78932 963.55914 960.159721 950.2169 0.001037819
20.79812 963.94617 960.446986 950.289261 0.001037402
20.80693 964.29913 960.883172 950.356163 0.001037023
20.81574 964.49774 961.471289 950.41718 0.001036809
20.82455 964.99493 962.213993 950.471842 0.001036275
20.83335 965.43707 963.113618 950.519725 0.0010358
20.84216 966.43597 964.170018 950.560359 0.00103473
20.85097 967.45288 965.384073 950.593316 0.001033642
20.85977 968.38464 966.752147 950.618146 0.001032648
20.86858 969.62286 968.269121 950.634415 0.001031329
20.87739 971.28979 969.926134 950.641694 0.001029559
20.88620 972.51654 971.712432 950.639569 0.00102826
20.89500 974.14136 973.612149 950.627636 0.001026545
20.90381 975.7713 975.607361 950.605498 0.00102483
20.91262 977.53564 977.673562 950.572796 0.001022981
20.92142 979.23297 979.784748 950.529159 0.001021207
20.93023 981.26874 981.908247 950.474275 0.001019089
20.93904 983.1347 984.00913 950.407814 0.001017155
20.94785 985.08545 986.046732 950.329527 0.00101514
20.95665 987.59033 987.980325 950.239111 0.001012566
20.96546 989.24457 989.766717 950.136415 0.001010872
20.97427 991.09576 991.36666 950.021199 0.001008984
20.98307 992.85028 992.743693 949.893374 0.001007201
20.99188 993.7171 993.869862 949.752776 0.001006323
21.00069 994.61554 994.724908 949.599394 0.001005414
21.00950 995.80322 995.297833 949.433179 0.001004214
21.01830 996.7832 995.58733 949.254233 0.001003227
21.02711 996.67285 995.599827 949.062565 0.001003338
21.03592 995.17212 995.349064 948.858407 0.001004851
21.04472 993.67963 994.853611 948.641873 0.001006361
21.05353 992.06421 994.136156 948.413304 0.001007999
21.06234 990.56378 993.220684 948.172975 0.001009526
21.07115 989.58441 992.133596 947.921371 0.001010525
21.07995 988.36218 990.90119 947.658843 0.001011775
21.08876 986.77765 989.551986 947.386048 0.0010134
21.09757 985.13116 988.114305 947.103437 0.001015093
21.10637 983.28802 986.618756 946.811893 0.001016996
21.11518 981.77863 985.093937 946.512005 0.00101856
21.12399 980.82611 983.56811 946.204754 0.001019549
21.13280 979.61737 982.064913 945.890916 0.001020807
21.14160 978.01648 980.605006 945.571628 0.001022478
21.15041 976.35516 979.202851 945.247781 0.001024217
21.15922 975.45056 977.869375 944.920749 0.001025167
21.16803 974.79205 976.609632 944.591575 0.00102586
21.17683 974.70325 975.426478 944.261719 0.001025953
21.18564 974.22577 974.319052 943.932402 0.001026456
21.19445 973.01617 973.286747 943.605192 0.001027732
21.20325 972.13477 972.326546 943.281529 0.001028664
21.21206 970.91364 971.437014 942.963098 0.001029958
21.22087 970.2049 970.615176 942.651467 0.00103071
21.22968 970.31647 969.857801 942.348248 0.001030592
21.23848 970.3244 969.161073 942.055276 0.001030583
21.24729 969.65582 968.52088 941.774251 0.001031294
21.25610 969.4884 967.932655 941.507055 0.001031472
21.26490 968.83923 967.392776 941.255367 0.001032163
21.27371 968.39899 966.900126 941.021103 0.001032632
21.28252 967.59998 966.455845 940.805945 0.001033485
21.29133 966.9068 966.064595 940.611736 0.001034226
21.30013 966.67456 965.733214 940.440135 0.001034474
21.30894 966.63727 965.470182 940.292854 0.001034514
21.31775 966.1676 965.283562 940.171373 0.001035017
21.32655 965.92804 965.179417 940.077197 0.001035274
21.33536 965.71686 965.160727 940.011589 0.0010355
21.34417 965.60126 965.226949 939.975718 0.001035624
21.35298 965.74957 965.371991 939.970513 0.001035465
21.36178 965.71655 965.585433 939.996682 0.001035501
21.37059 964.99347 965.852012 940.054669 0.001036276
21.37940 964.94568 966.152641 940.144581 0.001036328
21.38820 965.23956 966.464342 940.266238 0.001036012
21.39701 965.94147 966.761209 940.41893 0.001035259
21.40582 967.00305 967.01696 940.601657 0.001034123
21.41463 966.99597 967.205207 940.812728 0.00103413
21.42343 966.45355 967.302417 941.050091 0.001034711
21.43224 966.961 967.288634 941.310861 0.001034168
21.44105 966.70276 967.150125 941.591593 0.001034444
21.44985 965.89581 966.878617 941.887919 0.001035308
21.45866 965.62225 966.472299 942.194835 0.001035602
21.46747 965.45355 965.934324 942.50611 0.001035783
21.47628 964.70898 965.271079 942.814774 0.001036582
21.48508 964.32214 964.492368 943.112476 0.001036998
21.49389 963.8136 963.608875 943.389784 0.001037545
21.50270 963.38025 962.631588 943.635779 0.001038012
21.51150 962.52869 961.569969 943.838249 0.00103893
21.52031 961.34631 960.432515 943.983203 0.001040208
21.52912 960.32318 959.223579 944.055061 0.001041316
21.53793 959.97552 957.944983 944.036267 0
21.54673 959.76556 0 0 0
21.55554 959.95819 0 0 0
21.56435 959.84515 0 0 0
21.57315 959.55853 0 0 0
21.58196 959.07684 0 0 0
21.59077 958.94427 0 0 0
21.59958 959.65161 0 0 0
21.60838 959.74622 0 0 0
21.61719 958.89685 0 0 0
21.62600 958.61865 0 0 0
21.63481 958.59961 0 0 0
21.64361 958.10339 0 0 0
21.65242 958.18243 0 0 0
21.66123 957.66577 0 0 0
21.67003 956.82941 0 0 0
21.67884 955.50128 0 0 0
21.68765 954.36151 0 0 0
21.69646 953.71393 0 0 0
21.70526 953.14899 0 0 0
21.71407 952.33173 0 0 0
21.72288 951.60559 0 0 0
21.73168 950.65363 0 0 0
21.74049 950.36298 0 0 0
21.74930 950.15228 0 0 0
21.75810 949.09845 0 0 0
21.76691 947.79462 0 0 0
21.77572 947.45715 0 0 0
21.78453 947.1601 0 0 0
21.79333 946.69806 0 0 0
21.80214 946.72284 0 0 0
21.81095 946.88202 0 0 0
21.81976 946.27283 0 0 0
21.82856 944.98486 0 0 0
21.83737 944.36267 0 0 0
21.84618 944.42181 0 0 0
21.85498 943.82166 0 0 0
21.86379 943.15381 0 0 0
21.87260 943.10583 0 0 0
21.88141 943.08392 0 0 0
21.89021 942.5448 0 0 0
21.89902 942.12439 0 0 0
21.90783 941.6463 0 0 0
21.91663 941.2879 0 0 0
21.92544 940.30267 0 0 0
21.93425 940.18793 0 0 0
21.94306 940.53912 0 0 0
21.95186 940.44611 0 0 0
21.96067 940.00092 0 0 0
21.96948 940.05383 0 0 0
21.97828 940.14063 0 0 0
21.98709 939.90735 0 0 0
21.99590 940.34772 0 0 0
22.00471 940.46246 0 0 0
22.01351 940.92444 0 0 0
22.02232 941.34094 0 0 0
22.03113 941.84448 0 0 0
22.03993 942.23657 0 0 0
22.04874 941.93268 0 0 0
22.05755 941.13074 0 0 0
22.06636 941.32202 0 0 0
22.07516 941.65784 0 0 0
22.08397 941.96362 0 0 0
22.09278 941.76056 0 0 0
22.10159 941.95795 0 0 0
22.11039 942.59229 0 0 0
22.11920 943.09772 0 0 0
22.12801 943.88391 0 0 0
22.13681 944.06372 0 0 0
22.14562 943.78778 0 0 0
22.15443 943.6001 0 0 0
22.16324 944.21808 0 0 0
22.17204 944.96613 0 0 0
22.18085 945.14868 0 0 0
22.18966 944.99536 0 0 0
22.19846 944.78516 0 0 0
22.20727 945.56256 0 0 0
22.21608 946.83514 0 0 0
22.22489 947.02911 0 0 0
22.23369 946.99121 0 0 0
22.24250 947.31494 0 0 0
22.25131 948.28894 0 0 0
22.26011 949.12347 0 0 0
22.26892 949.40894 0 0 0
22.27773 949.34387 0 0 0
22.28654 949.46765 0 0 0
22.29534 950.51544 0 0 0
22.30415 951.65869 0 0 0
22.31296 952.6095 0 0 0
22.32176 953.75635 0 0 0
22.33057 954.61768 0 0 0
22.33938 954.92468 0 0 0
22.34819 955.31091 0 0 0
22.35699 956.59302 0 0 0
22.36580 957.62067 0 0 0
22.37461 959.03955 0 0 0
22.38341 960.3811 0 0 0
22.39222 961.21851 0 0 0
22.40103 962.69513 0 0 0
22.40984 964.92719 0 0 0
22.41864 966.87146 0 0 0
22.42745 968.10846 0 0 0
22.43626 969.01428 0 0 0
22.44506 970.65784 0 0 0
22.45387 972.01855 0 0 0
22.46268 973.09076 0 0 0
22.47149 974.65381 0 0 0
22.48029 975.75513 0 0 0
22.48910 976.61987 0 0 0
22.49791 977.4906 0 0 0
22.50671 979.10455 0 0 0
22.51552 981.85864 0 0 0
22.52433 983.91473 0 0 0
22.53314 985.25232 0 0 0
22.54194 986.82605 0 0 0
22.55075 988.20758 0 0 0
22.55956 989.71588 0 0 0
22.56837 990.3432 0 0 0
22.57717 990.52905 0 0 0
22.58598 991.05328 0 0 0
22.59479 990.43787 0 0 0
22.60359 988.8067 0 0 0
22.61240 987.54077 0 0 0
22.62121 985.74109 0 0 0
22.63001 983.71295 0 0 0
22.63882 981.91833 0 0 0
22.64763 980.35608 0 0 0
22.65644 978.61548 0 0 0
22.66524 977.17969 0 0 0
22.67405 975.35382 0 0 0
22.68286 973.16296 0 0 0
22.69167 971.42108 0 0 0
22.70047 969.10724 0 0 0
22.70928 966.3479 0 0 0
22.71809 964.02374 0 0 0
22.72689 962.40436 0 0 0
22.73570 960.82721 0 0 0
22.74451 959.49951 0 0 0
22.75332 958.17078 0 0 0
22.76212 957.2168 0 0 0
22.77093 956.04193 0 0 0
22.77974 954.14026 0 0 0
22.78854 952.97607 0 0 0
22.79735 951.89343 0 0 0
22.80616 951.63416 0 0 0
22.81497 951.06897 0 0 0
22.82377 949.79633 0 0 0
22.83258 948.79218 0 0 0
22.84139 948.49054 0 0 0
22.85019 947.44305 0 0 0
22.85900 947.11804 0 0 0
22.86781 947.56519 0 0 0
22.87662 946.68103 0 0 0
22.88542 945.46118 0 0 0
22.89423 945.35358 0 0 0
22.90304 945.63336 0 0 0
22.91184 945.70178 0 0 0
22.92065 945.00446 0 0 0
22.92946 944.46515 0 0 0
22.93827 945.10999 0 0 0
22.94707 945.63782 0 0 0
22.95588 945.24133 0 0 0
22.96469 944.50171 0 0 0
22.97349 944.53162 0 0 0
22.98230 944.36951 0 0 0
22.99111 944.54303 0 0 0
22.99992 944.40369 0 0 0
23.00872 944.16309 0 0 0
23.01753 943.49872 0 0 0
23.02634 943.7467 0 0 0
23.03514 944.10614 0 0 0
23.04395 943.99353 0 0 0
23.05276 944.57532 0 0 0
23.06157 946.02948 0 0 0
23.07037 946.27112 0 0 0
23.07918 945.94299 0 0 0
23.08799 946.34277 0 0 0
23.09679 946.06201 0 0 0
23.10560 946.1142 0 0 0
23.11441 947.10455 0 0 0
23.12322 947.69269 0 0 0
23.13202 948.20428 0 0 0
23.14083 948.8924 0 0 0
23.14964 950.03168 0 0 0
23.15845 951.40698 0 0 0
23.16725 951.6297 0 0 0
23.17606 951.89093 0 0 0
23.18487 951.7287 0 0 0
23.19367 951.95331 0 0 0
23.20248 953.1106 0 0 0
23.21129 953.97858 0 0 0
23.22010 954.01776 0 0 0
23.22890 954.53473 0 0 0
23.23771 954.86676 0 0 0
23.24652 955.65875 0 0 0
23.25532 956.61981 0 0 0
23.26413 957.30176 0 0 0
23.27294 957.89825 0 0 0
23.28175 958.57123 0 0 0
23.29055 958.69391 0 0 0
23.29936 959.22351 0 0 0
23.30817 959.53033 0 0 0
23.31697 959.8324 0 0 0
23.32578 960.61731 0 0 0
23.33459 960.93018 0 0 0
23.34340 959.69525 0 0 0
23.35220 958.34857 0 0 0
23.36101 957.88922 0 0 0
23.36982 957.28284 0 0 0
23.37862 957.18481 0 0 0
23.38743 957.69336 0 0 0
23.39624 957.50476 0 0 0
23.40505 956.98096 0 0 0
23.41385 957.14417 0 0 0
23.42266 957.11536 0 0 0
23.43147 956.80267 0 0 0
23.44027 956.33179 0 0 0
23.44908 956.37012 0 0 0
23.45789 956.31439 0 0 0
23.46670 956.26099 0 0 0
23.47550 955.69318 0 0 0
23.48431 954.95563 0 0 0
23.49312 954.30945 0 0 0
23.50192 953.72699 0 0 0
23.51073 953.1203 0 0 0
23.51954 952.7229 0 0 0
23.52835 952.11804 0 0 0
23.53715 951.47217 0 0 0
23.54596 951.3111 0 0 0
23.55477 950.49597 0 0 0
23.56357 949.51465 0 0 0
23.57238 949.0932 0 0 0
23.58119 948.79889 0 0 0
23.59000 948.83545 0 0 0
23.59880 948.34113 0 0 0
23.60761 947.44135 0 0 0
23.61642 948.03448 0 0 0
23.62523 948.89502 0 0 0
23.63403 949.03406 0 0 0
23.64284 949.80798 0 0 0
23.65165 949.84332 0 0 0
23.66045 948.53784 0 0 0
23.66926 948.19202 0 0 0
23.67807 948.80011 0 0 0
23.68687 948.71112 0 0 0
23.69568 948.10602 0 0 0
23.70449 947.82806 0 0 0
23.71330 947.48981 0 0 0
23.72210 947.24414 0 0 0
23.73091 947.76361 0 0 0
23.73972 948.46045 0 0 0
23.74853 949.08203 0 0 0
23.75733 950.02759 0 0 0
23.76614 950.48468 0 0 0
23.77495 949.90057 0 0 0
23.78375 950.51208 0 0 0
23.79256 951.54041 0 0 0
23.80137 951.83417 0 0 0
23.81018 952.58984 0 0 0
23.81898 953.75519 0 0 0
23.82779 954.69952 0 0 0
23.83660 954.99329 0 0 0
23.84540 955.88214 0 0 0
23.85421 956.91663 0 0 0
23.86302 957.35364 0 0 0
23.87183 957.90778 0 0 0
23.88063 958.99316 0 0 0
23.88944 959.60748 0 0 0
23.89825 960.18494 0 0 0
23.90705 960.22778 0 0 0
23.91586 959.92957 0 0 0
23.92467 960.52509 0 0 0
23.93348 960.93005 0 0 0
23.94228 961.0824 0 0 0
23.95109 961.03577 0 0 0
23.95990 960.56006 0 0 0
23.96870 960.62366 0 0 0
23.97751 961.76581 0 0 0
23.98632 961.23187 0 0 0
23.99513 959.43799 0 0 0
24.00393 959.10681 0 0 0
24.01274 959.77991 0 0 0
24.02155 959.32269 0 0 0
24.03035 959.43372 0 0 0
24.03916 960.10645 0 0 0
24.04797 960.17157 0 0 0
24.05678 959.63531 0 0 0
24.06558 960.06091 0 0 0
24.07439 960.55798 0 0 0
24.08320 960.60602 0 0 0
24.09201 960.37793 0 0 0
24.10081 960.78979 0 0 0
24.10962 961.14001 0 0 0
24.11842 961.29626 0 0 0
24.12723 962.14667 0 0 0
24.13604 964.27222 0 0 0
24.14485 965.66919 0 0 0
24.15365 965.9494 0 0 0
24.16246 966.99402 0 0 0
24.17127 968.88116 0 0 0
24.18008 970.91278 0 0 0
24.18888 971.92688 0 0 0
24.19769 973.16742 0 0 0
24.20650 974.62109 0 0 0
24.21531 975.84558 0 0 0
24.22411 977.55713 0 0 0
24.23292 978.31097 0 0 0
24.24173 978.88916 0 0 0
24.25053 980.46875 0 0 0
24.25934 981.52234 0 0 0
24.26815 981.66772 0 0 0
24.27696 981.36157 0 0 0
24.28576 981.83923 0 0 0
24.29457 983.06445 0 0 0
24.30338 983.51709 0 0 0
24.31218 984.45557 0 0 0
24.32099 984.31549 0 0 0
24.32980 983.28424 0 0 0
24.33861 981.32581 0 0 0
24.34741 978.66656 0 0 0
24.35622 977.67261 0 0 0
24.36503 977.2594 0 0 0
24.37383 975.40656 0 0 0
24.38264 972.52435 0 0 0
24.39145 970.54041 0 0 0
24.40026 970.19513 0 0 0
24.40906 969.33661 0 0 0
24.41787 967.65497 0 0 0
24.42668 965.35406 0 0 0
24.43548 962.94366 0 0 0
24.44429 961.12744 0 0 0
24.45310 959.98846 0 0 0
24.46191 959.54218 0 0 0
24.47071 958.85748 0 0 0
24.47952 957.6665 0 0 0
24.48833 957.12103 0 0 0
24.49713 956.84326 0 0 0
24.50594 956.13568 0 0 0
24.51475 955.42987 0 0 0
24.52356 955.01593 0 0 0
24.53236 955.62036 0 0 0
24.54117 956.10376 0 0 0
24.54998 956.06384 0 0 0
24.55878 956.82458 0 0 0
24.56759 956.6662 0 0 0
24.57640 957.45227 0 0 0
24.58520 958.06476 0 0 0
24.59401 958.57037 0 0 0
24.60282 959.87085 0 0 0
24.61163 960.58588 0 0 0
24.62043 960.58417 0 0 0
24.62924 961.25403 0 0 0
24.63805 962.50891 0 0 0
24.64686 962.58038 0 0 0
24.65566 963.22021 0 0 0
24.66447 963.48486 0 0 0
24.67328 963.4812 0 0 0
24.68209 964.36566 0 0 0
24.69089 965.6051 0 0 0
24.69970 966.49078 0 0 0
24.70851 967.61078 0 0 0
24.71731 968.78754 0 0 0
24.72612 969.37317 0 0 0
24.73493 968.68542 0 0 0
24.74373 967.46649 0 0 0
24.75254 966.79877 0 0 0
24.76135 965.27734 0 0 0
24.77016 963.28461 0 0 0
24.77896 961.93823 0 0 0
24.78777 960.66949 0 0 0
24.79658 958.44775 0 0 0
24.80539 955.51044 0 0 0
24.81419 952.70911 0 0 0
24.82300 950.61432 0 0 0
24.83181 948.84991 0 0 0
24.84061 947.21484 0 0 0
24.84942 946.1001 0 0 0
24.85823 944.85925 0 0 0
24.86704 942.96173 0 0 0
24.87584 941.12726 0 0 0
24.88465 939.53009 0 0 0
24.89346 937.44293 0 0 0
24.90226 936.68359 0 0 0
24.91107 936.52032 0 0 0
24.91988 936.76007 0 0 0
24.92869 936.6073 0 0 0
24.93749 935.09845 0 0 0
24.94630 934.22748 0 0 0
24.95511 934.28394 0 0 0
24.96392 934.17603 0 0 0
24.97272 933.79218 0 0 0
24.98153 933.66681 0 0 0
24.99034 934.30237 0 0 0
24.99914 934.45209 0 0 0
25.00795 934.55084 0 0 0
25.01676 935.69714 0 0 0
25.02556 936.57581 0 0 0
25.03437 936.8103 0 0 0
25.04318 936.04822 0 0 0
25.05198 935.75323 0 0 0
25.06079 936.56281 0 0 0
25.06960 937.24182 0 0 0
25.07841 937.80865 0 0 0
25.08721 938.76251 0 0 0
25.09602 940.02734 0 0 0
25.10483 940.74658 0 0 0
25.11364 941.82623 0 0 0
25.12244 942.37042 0 0 0
25.13125 942.74561 0 0 0
25.14006 943.03473 0 0 0
25.14887 943.13727 0 0 0
25.15767 942.88531 0 0 0
25.16648 942.2135 0 0 0
25.17528 941.91107 0 0 0
25.18409 941.82043 0 0 0
25.19290 941.64288 0 0 0
25.20171 941.75659 0 0 0
25.21051 941.71704 0 0 0
25.21932 941.19086 0 0 0
25.22813 940.80707 0 0 0
25.23694 939.25452 0 0 0
25.24574 938.45319 0 0 0
25.25455 938.9801 0 0 0
25.26336 939.56799 0 0 0
25.27217 939.3197 0 0 0
25.28097 939.16803 0 0 0
25.28978 938.79474 0 0 0
25.29859 938.32019 0 0 0
25.30739 937.50183 0 0 0
25.31620 935.78156 0 0 0
25.32501 934.66162 0 0 0
25.33382 934.00641 0 0 0
25.34262 933.52808 0 0 0
25.35143 933.72198 0 0 0
25.36024 933.85992 0 0 0
25.36904 932.82489 0 0 0
25.37785 931.99622 0 0 0
25.38666 931.48199 0 0 0
25.39547 930.96979 0 0 0
25.40427 930.74634 0 0 0
25.41308 930.06921 0 0 0
25.42189 930.12341 0 0 0
25.43070 930.22913 0 0 0
25.43950 930.90149 0 0 0
25.44831 930.56592 0 0 0
25.45712 929.53546 0 0 0
25.46592 929.8219 0 0 0
25.47473 931.45129 0 0 0
25.48354 932.13635 0 0 0
25.49234 932.09601 0 0 0
25.50115 932.94458 0 0 0
25.50996 933.57343 0 0 0
25.51876 934.80688 0 0 0
25.52757 935.33612 0 0 0
25.53638 935.85126 0 0 0
25.54519 936.20496 0 0 0
25.55399 936.93689 0 0 0
25.56280 937.41144 0 0 0
25.57161 937.60132 0 0 0
25.58042 937.46967 0 0 0
25.58922 938.14465 0 0 0
25.59803 939.24402 0 0 0
25.60684 939.08679 0 0 0
25.61564 939.13898 0 0 0
25.62445 939.26929 0 0 0
25.63326 939.46631 0 0 0
25.64206 940.32007 0 0 0
25.65087 941.06226 0 0 0
25.65968 940.82495 0 0 0
25.66849 941.05933 0 0 0
25.67729 941.54993 0 0 0
25.68610 941.67346 0 0 0
25.69491 941.56561 0 0 0
25.70372 940.61078 0 0 0
25.71252 939.76202 0 0 0
25.72133 938.79303 0 0 0
25.73014 937.88361 0 0 0
25.73895 936.97675 0 0 0
25.74775 934.89331 0 0 0
25.75656 933.21741 0 0 0
25.76537 932.01813 0 0 0
25.77417 930.28223 0 0 0
25.78298 928.77435 0 0 0
25.79179 928.69818 0 0 0
25.80059 927.83362 0 0 0
25.80940 926.29858 0 0 0
25.81821 926.44153 0 0 0
25.82702 925.55188 0 0 0
25.83582 923.48352 0 0 0
25.84463 922.68311 0 0 0
25.85344 922.72955 0 0 0
25.86225 922.6236 0 0 0
25.87105 921.45056 0 0 0
25.87986 920.53925 0 0 0
25.88867 920.72626 0 0 0
25.89747 920.86066 0 0 0
25.90628 920.36816 0 0 0
25.91509 919.13385 0 0 0
25.92390 918.7359 0 0 0
25.93270 919.04688 0 0 0
25.94151 918.85022 0 0 0
25.95032 919.28119 0 0 0
25.95912 920.41895 0 0 0
25.96793 920.46625 0 0 0
25.97674 919.96832 0 0 0
25.98555 919.65991 0 0 0
25.99435 919.93353 0 0 0
26.00316 921.73682 0 0 0
26.01197 922.46301 0 0 0
26.02078 922.04474 0 0 0
26.02958 921.85693 0 0 0
26.03839 922.34204 0 0 0
26.04719 922.80524 0 0 0
26.05600 923.20941 0 0 0
26.06481 923.7627 0 0 0
26.07362 923.8952 0 0 0
26.08242 924.39185 0 0 0
26.09123 925.08392 0 0 0
26.10004 925.617 0 0 0
26.10884 924.9115 0 0 0
26.11765 924.16321 0 0 0
26.12646 924.56543 0 0 0
26.13527 924.31085 0 0 0
26.14407 923.09247 0 0 0
26.15288 922.14532 0 0 0
26.16169 922.24554 0 0 0
26.17050 922.31799 0 0 0
26.17930 922.07153 0 0 0
26.18811 921.93921 0 0 0
26.19692 921.17438 0 0 0
26.20573 921.25665 0 0 0
26.21453 921.7074 0 0 0
26.22334 921.99573 0 0 0
26.23214 922.22504 0 0 0
26.24095 921.23236 0 0 0
26.24976 920.31714 0 0 0
26.25857 921.00378 0 0 0
26.26737 922.54858 0 0 0
26.27618 923.2229 0 0 0
26.28499 923.10797 0 0 0
26.29380 923.34052 0 0 0
26.30260 923.20142 0 0 0
26.31141 923.47589 0 0 0
26.32022 924.00507 0 0 0
26.32903 924.22021 0 0 0
26.33783 925.00287 0 0 0
26.34664 925.31909 0 0 0
26.35545 925.37823 0 0 0
26.36425 925.59485 0 0 0
26.37306 925.95667 0 0 0
26.38187 926.47784 0 0 0
26.39068 926.99213 0 0 0
26.39948 927.42896 0 0 0
26.40829 928.33685 0 0 0
26.41710 929.15326 0 0 0
26.42590 929.81793 0 0 0
26.43471 930.62128 0 0 0
26.44352 930.82886 0 0 0
26.45233 930.32245 0 0 0
26.46113 930.01459 0 0 0
26.46994 930.55798 0 0 0
26.47875 930.69952 0 0 0
26.48756 929.84052 0 0 0
26.49636 930.04529 0 0 0
26.50517 930.15643 0 0 0
26.51397 929.08411 0 0 0
26.52278 928.15149 0 0 0
26.53159 928.32587 0 0 0
26.54040 928.50031 0 0 0
26.54920 928.44409 0 0 0
26.55801 928.10797 0 0 0
26.56682 927.15399 0 0 0
26.57563 926.86639 0 0 0
26.58443 926.90283 0 0 0
26.59324 926.90271 0 0 0
26.60205 926.58728 0 0 0
26.61085 926.38928 0 0 0
26.61966 926.29932 0 0 0
26.62847 927.01215 0 0 0
26.63728 928.85187 0 0 0
26.64608 928.60938 0 0 0
26.65489 926.70123 0 0 0
26.66370 926.87769 0 0 0
26.67250 927.64178 0 0 0
26.68131 927.64832 0 0 0
26.69012 927.96228 0 0 0
26.69892 928.61536 0 0 0
26.70773 928.0979 0 0 0
26.71654 927.77551 0 0 0
26.72535 927.79938 0 0 0
26.73415 926.32324 0 0 0
26.74296 925.04419 0 0 0
26.75177 924.89343 0 0 0
26.76058 924.99402 0 0 0
26.76938 924.21027 0 0 0
26.77819 923.34424 0 0 0
26.78700 922.43774 0 0 0
26.79581 921.62811 0 0 0
26.80461 921.24103 0 0 0
26.81342 920.75769 0 0 0
26.82223 920.18195 0 0 0
26.83103 919.28412 0 0 0
26.83984 919.18774 0 0 0
26.84865 918.71509 0 0 0
26.85745 919.37927 0 0 0
26.86626 919.49408 0 0 0
26.87507 918.91125 0 0 0
26.88388 918.58667 0 0 0
26.89268 917.37909 0 0 0
26.90149 917.50671 0 0 0
26.91030 917.34918 0 0 0
26.91911 916.68054 0 0 0
26.92791 917.26782 0 0 0
26.93672 917.51117 0 0 0
26.94553 916.6806 0 0 0
26.95433 916.26282 0 0 0
26.96314 916.2951 0 0 0
26.97195 916.38275 0 0 0
26.98075 915.27771 0 0 0
26.98956 914.95001 0 0 0
26.99837 915.30884 0 0 0
27.00718 915.04712 0 0 0
27.01598 915.3681 0 0 0
27.02479 915.37469 0 0 0
27.03360 916.08063 0 0 0
27.04241 916.44684 0 0 0
27.05121 915.01599 0 0 0
27.06002 914.60199 0 0 0
27.06883 915.68311 0 0 0
27.07764 916.30182 0 0 0
27.08644 915.61084 0 0 0
27.09525 914.77032 0 0 0
27.10405 914.42078 0 0 0
27.11286 913.44666 0 0 0
27.12167 912.36334 0 0 0
27.13048 911.71204 0 0 0
27.13928 911.71985 0 0 0
27.14809 911.789 0 0 0
27.15690 911.12073 0 0 0
27.16570 910.68939 0 0 0
27.17451 910.15021 0 0 0
27.18332 908.5957 0 0 0
27.19213 907.56787 0 0 0
27.20093 907.82172 0 0 0
27.20974 907.28101 0 0 0
27.21855 906.75098 0 0 0
27.22736 907.0376 0 0 0
27.23616 907.31836 0 0 0
27.24497 907.79785 0 0 0
27.25378 907.55029 0 0 0
27.26259 906.74072 0 0 0
27.27139 907.08093 0 0 0
27.28020 907.3382 0 0 0
27.28900 907.07166 0 0 0
27.29781 906.38544 0 0 0
27.30662 906.1084 0 0 0
27.31543 906.20154 0 0 0
27.32423 906.41998 0 0 0
27.33304 906.98785 0 0 0
27.34185 906.86639 0 0 0
27.35066 907.36395 0 0 0
27.35946 907.91162 0 0 0
27.36827 907.51941 0 0 0
27.37708 907.49188 0 0 0
27.38588 907.28223 0 0 0
27.39469 907.99585 0 0 0
27.40350 909.08014 0 0 0
27.41231 908.98193 0 0 0
27.42111 907.99756 0 0 0
27.42992 907.35828 0 0 0
27.43873 907.54962 0 0 0
27.44753 907.15796 0 0 0
27.45634 906.67413 0 0 0
27.46515 908.32874 0 0 0
27.47396 910.09827 0 0 0
27.48276 909.914 0 0 0
27.49157 910.03131 0 0 0
27.50038 909.4859 0 0 0
27.50919 908.23065 0 0 0
27.51799 908.67853 0 0 0
27.52680 909.8761 0 0 0
27.53561 910.31311 0 0 0
27.54442 910.87439 0 0 0
27.55322 912.1557 0 0 0
27.56203 912.44409 0 0 0
27.57083 912.35333 0 0 0
27.57964 911.78143 0 0 0
27.58845 911.36774 0 0 0
27.59726 912.17499 0 0 0
27.60606 912.99878 0 0 0
27.61487 913.33679 0 0 0
27.62368 912.68707 0 0 0
27.63249 911.89362 0 0 0
27.64129 911.83496 0 0 0
27.65010 911.97137 0 0 0
27.65891 910.67792 0 0 0
27.66771 909.74805 0 0 0
27.67652 909.4895 0 0 0
27.68533 908.84857 0 0 0
27.69414 907.73169 0 0 0
27.70294 907.2995 0 0 0
27.71175 907.44818 0 0 0
27.72056 906.6416 0 0 0
27.72936 905.88586 0 0 0
27.73817 906.13733 0 0 0
27.74698 905.45795 0 0 0
27.75578 904.79279 0 0 0
27.76459 904.47729 0 0 0
27.77340 904.14264 0 0 0
27.78221 904.45697 0 0 0
27.79101 905.01593 0 0 0
27.79982 905.4574 0 0 0
27.80863 904.55225 0 0 0
27.81744 903.06989 0 0 0
27.82624 901.7395 0 0 0
27.83505 901.81921 0 0 0
27.84386 901.54517 0 0 0
27.85266 900.46155 0 0 0
27.86147 899.33679 0 0 0
27.87028 898.80939 0 0 0
27.87909 898.66174 0 0 0
27.88789 898.651 0 0 0
27.89670 897.40247 0 0 0
27.90551 896.81433 0 0 0
27.91431 897.79376 0 0 0
27.92312 897.52594 0 0 0
27.93193 897.54132 0 0 0
27.94074 897.6424 0 0 0
27.94954 897.61841 0 0 0
27.95835 898.16443 0 0 0
27.96716 898.18317 0 0 0
27.97596 897.4848 0 0 0
27.98477 896.76471 0 0 0
27.99358 896.70367 0 0 0
28.00239 896.80878 0 0 0
28.01119 897.75006 0 0 0
28.02000 897.72034 0 0 0
28.02881 896.67395 0 0 0
28.03761 897.24304 0 0 0
28.04642 897.89978 0 0 0
28.05523 898.67175 0 0 0
28.06404 898.80133 0 0 0
28.07284 899.21112 0 0 0
28.08165 899.99188 0 0 0
28.09046 899.69879 0 0 0
28.09927 900.73059 0 0 0
28.10807 901.0791 0 0 0
28.11688 899.32324 0 0 0
28.12569 898.43182 0 0 0
28.13450 899.58301 0 0 0
28.14330 900.29218 0 0 0
28.15211 900.42645 0 0 0
28.16091 901.14563 0 0 0
28.16972 901.50275 0 0 0
28.17853 902.01575 0 0 0
28.18734 900.83337 0 0 0
28.19614 900.99756 0 0 0
28.20495 902.61151 0 0 0
28.21376 902.90704 0 0 0
28.22256 902.49255 0 0 0
28.23137 902.86285 0 0 0
28.24018 904.40601 0 0 0
28.24899 904.98206 0 0 0
28.25779 904.56995 0 0 0
28.26660 905.04785 0 0 0
28.27541 906.26062 0 0 0
28.28422 906.37207 0 0 0
28.29302 906.20331 0 0 0
28.30183 906.35138 0 0 0
28.31064 906.74854 0 0 0
28.31945 907.78754 0 0 0
28.32825 908.41479 0 0 0
28.33706 908.86816 0 0 0
28.34586 907.07269 0 0 0
28.35467 889.68665 0 0 0
28.36348 882.80933 0 0 0
28.37229 892.26056 0 0 0
28.38109 895.88208 0 0 0
28.38990 898.10223 0 0 0
28.39871 899.01147 0 0 0
28.40752 899.22174 0 0 0
28.41632 898.11798 0 0 0
28.42513 897.19824 0 0 0
28.43394 897.71295 0 0 0
28.44274 896.71191 0 0 0
28.45155 896.3866 0 0 0
28.46036 897.09906 0 0 0
28.46917 897.04004 0 0 0
28.47797 897.16962 0 0 0
28.48678 897.76807 0 0 0
28.49559 897.02899 0 0 0
28.50439 895.10156 0 0 0
28.51320 895.1734 0 0 0
28.52201 895.87244 0 0 0
28.53082 895.98334 0 0 0
28.53962 896.71704 0 0 0
28.54843 897.21478 0 0 0
28.55724 895.80737 0 0 0
28.56605 895.19055 0 0 0
28.57485 895.11194 0 0 0
28.58366 894.9325 0 0 0
28.59247 894.72235 0 0 0
28.60127 894.93683 0 0 0
28.61008 896.05157 0 0 0
28.61889 896.50531 0 0 0
28.62769 896.73944 0 0 0
28.63650 896.38763 0 0 0
28.64531 894.83185 0 0 0
28.65412 895.12427 0 0 0
28.66292 895.99469 0 0 0
28.67173 896.66241 0 0 0
28.68054 896.4906 0 0 0
28.68935 896.02655 0 0 0
28.69815 895.40961 0 0 0
28.70696 895.03265 0 0 0
28.71577 896.96301 0 0 0
28.72458 897.02124 0 0 0
28.73338 896.12653 0 0 0
28.74219 895.64709 0 0 0
28.75100 895.04504 0 0 0
28.75980 895.20428 0 0 0
28.76861 895.8042 0 0 0
28.77742 895.51196 0 0 0
28.78622 895.3996 0 0 0
28.79503 895.62189 0 0 0
28.80384 895.10181 0 0 0
28.81264 894.86438 0 0 0
28.82145 894.56555 0 0 0
28.83026 894.17407 0 0 0
28.83907 893.73975 0 0 0
28.84787 892.96973 0 0 0
28.85668 892.54291 0 0 0
28.86549 894.29797 0 0 0
28.87430 895.00507 0 0 0
28.88310 893.33636 0 0 0
28.89191 893.45062 0 0 0
28.90072 893.72461 0 0 0
28.90952 894.1413 0 0 0
28.91833 894.87042 0 0 0
28.92714 893.36182 0 0 0
28.93595 891.88904 0 0 0
28.94475 892.21326 0 0 0
28.95356 889.74042 0 0 0
28.96237 888.41327 0 0 0
28.97117 889.34937 0 0 0
28.97998 888.34906 0 0 0
28.98879 888.09003 0 0 0
28.99760 888.55969 0 0 0
29.00640 888.53912 0 0 0
29.01521 888.11115 0 0 0
29.02402 887.67596 0 0 0
29.03282 887.81854 0 0 0
29.04163 888.0036 0 0 0
29.05044 887.49994 0 0 0
29.05925 886.44281 0 0 0
29.06805 887.49939 0 0 0
29.07686 889.47656 0 0 0
29.08567 890.01624 0 0 0
29.09447 888.79608 0 0 0
29.10328 887.00311 0 0 0
29.11209 886.42938 0 0 0
29.12090 886.39734 0 0 0
29.12970 887.302 0 0 0
29.13851 887.67847 0 0 0
29.14732 887.77094 0 0 0
29.15613 886.90015 0 0 0
29.16493 886.65674 0 0 0
29.17374 887.71149 0 0 0
29.18255 888.82941 0 0 0
29.19136 889.16034 0 0 0
29.20016 888.35742 0 0 0
29.20897 888.50684 0 0 0
29.21777 889.37018 0 0 0
29.22658 890.89111 0 0 0
29.23539 891.41663 0 0 0
29.24420 892.14429 0 0 0
29.25300 893.92426 0 0 0
29.26181 894.05658 0 0 0
29.27062 893.76532 0 0 0
29.27942 893.89337 0 0 0
29.28823 893.28607 0 0 0
29.29704 894.15601 0 0 0
29.30585 895.80609 0 0 0
29.31465 897.44159 0 0 0
29.32346 899.07593 0 0 0
29.33227 900.24377 0 0 0
29.34108 901.4444 0 0 0
29.34988 901.54639 0 0 0
29.35869 901.65088 0 0 0
29.36750 904.11279 0 0 0
29.37630 905.23779 0 0 0
29.38511 905.05548 0 0 0
29.39392 904.83887 0 0 0
29.40273 904.81433 0 0 0
29.41153 905.9895 0 0 0
29.42034 907.28339 0 0 0
29.42915 908.27368 0 0 0
29.43795 908.01154 0 0 0
29.44676 907.64911 0 0 0
29.45557 908.27063 0 0 0
29.46438 908.63025 0 0 0
29.47318 907.85071 0 0 0
29.48199 905.7995 0 0 0
29.49080 905.37817 0 0 0
29.49960 906.32269 0 0 0
29.50841 905.48358 0 0 0
29.51722 903.25842 0 0 0
29.52603 902.80957 0 0 0
29.53483 903.34937 0 0 0
29.54364 902.30249 0 0 0
29.55245 901.28851 0 0 0
29.56125 902.01691 0 0 0
29.57006 900.76251 0 0 0
29.57887 899.27637 0 0 0
29.58768 897.95154 0 0 0
29.59648 896.61121 0 0 0
29.60529 895.77106 0 0 0
29.61410 895.20483 0 0 0
29.62291 895.40533 0 0 0
29.63171 894.33453 0 0 0
29.64052 894.62244 0 0 0
29.64933 893.54858 0 0 0
29.65813 891.7124 0 0 0
29.66694 891.94806 0 0 0
29.67575 891.4198 0 0 0
29.68455 891.1377 0 0 0
29.69336 891.6402 0 0 0
29.70217 892.28735 0 0 0
29.71098 895.08771 0 0 0
29.71978 903.81317 0 0 0
29.72859 903.03754 0 0 0
29.73740 895.79834 0 0 0
29.74621 894.33319 0 0 0
29.75501 892.24207 0 0 0
29.76382 890.28735 0 0 0
29.77263 890.69507 0 0 0
29.78143 891.17126 0 0 0
29.79024 890.04785 0 0 0
29.79905 888.59119 0 0 0
29.80786 888.48175 0 0 0
29.81666 889.20862 0 0 0
29.82547 891.43622 0 0 0
29.83428 891.81104 0 0 0
29.84308 890.72162 0 0 0
29.85189 891.98248 0 0 0
29.86070 890.86285 0 0 0
29.86951 889.80383 0 0 0
29.87831 890.5589 0 0 0
29.88712 889.31903 0 0 0
29.89593 890.15619 0 0 0
29.90473 890.56708 0 0 0
29.91354 890.76605 0 0 0
29.92235 890.54291 0 0 0
29.93116 890.42291 0 0 0
29.93996 892.00525 0 0 0
29.94877 893.09222 0 0 0
29.95758 893.39923 0 0 0
29.96638 893.00134 0 0 0
29.97519 892.52209 0 0 0
29.98400 891.7066 0 0 0
29.99281 890.68756 0 0 0
30.00161 890.24805 0 0 0
30.01042 892.14679 0 0 0
30.01923 893.11969 0 0 0
30.02803 892.41516 0 0 0
30.03684 893.28986 0 0 0
30.04565 894.17682 0 0 0
30.05446 895.14886 0 0 0
30.06326 895.58514 0 0 0
30.07207 894.0824 0 0 0
30.08088 893.60291 0 0 0
30.08968 894.70795 0 0 0
30.09849 893.32837 0 0 0
30.10730 892.63977 0 0 0
30.11611 894.57111 0 0 0
30.12491 895.02832 0 0 0
30.13372 894.06897 0 0 0
30.14253 894.06396 0 0 0
30.15133 895.30701 0 0 0
30.16014 894.44342 0 0 0
30.16895 894.91833 0 0 0
30.17776 896.68604 0 0 0
30.18656 897.80469 0 0 0
30.19537 897.38434 0 0 0
30.20418 897.60797 0 0 0
30.21299 899.42944 0 0 0
30.22179 899.77332 0 0 0
30.23060 900.97534 0 0 0
30.23941 902.77039 0 0 0
30.24821 901.45239 0 0 0
30.25702 899.57361 0 0 0
30.26583 899.11963 0 0 0
30.27463 899.33038 0 0 0
30.28344 900.50073 0 0 0
30.29225 903.01746 0 0 0
30.30106 904.18097 0 0 0
30.30986 903.96155 0 0 0
30.31867 903.1687 0 0 0
30.32748 902.47675 0 0 0
30.33629 903.18256 0 0 0
30.34509 904.57764 0 0 0
30.35390 906.09467 0 0 0
30.36271 906.62848 0 0 0
30.37151 907.1236 0 0 0
30.38032 908.04291 0 0 0
30.38913 907.90057 0 0 0
30.39794 905.2196 0 0 0
30.40674 904.89185 0 0 0
30.41555 905.38971 0 0 0
30.42436 903.82764 0 0 0
30.43316 902.85535 0 0 0
30.44197 903.67249 0 0 0
30.45078 903.28265 0 0 0
30.45959 901.78516 0 0 0
30.46839 902.18878 0 0 0
30.47720 902.04437 0 0 0
30.48601 899.08661 0 0 0
30.49481 897.86713 0 0 0
30.50362 898.8515 0 0 0
30.51243 899.82068 0 0 0
30.52124 897.24597 0 0 0
30.53004 896.39941 0 0 0
30.53885 895.77118 0 0 0
30.54766 895.65424 0 0 0
30.55646 896.29053 0 0 0
30.56527 896.2453 0 0 0
30.57408 897.69604 0 0 0
30.58289 896.68616 0 0 0
30.59169 893.93042 0 0 0
30.60050 889.90759 0 0 0
30.60931 887.29034 0 0 0
30.61811 888.7016 0 0 0
30.62692 893.02026 0 0 0
30.63573 892.37811 0 0 0
30.64454 891.20618 0 0 0
30.65334 889.96631 0 0 0
30.66215 888.43988 0 0 0
30.67096 889.13586 0 0 0
30.67977 888.57684 0 0 0
30.68857 889.44794 0 0 0
30.69738 889.89502 0 0 0
30.70619 890.27808 0 0 0
30.71499 889.60583 0 0 0
30.72380 887.04022 0 0 0
30.73261 885.50159 0 0 0
30.74141 886.33441 0 0 0
30.75022 886.41174 0 0 0
30.75903 884.44324 0 0 0
30.76784 884.74774 0 0 0
30.77664 885.35913 0 0 0
30.78545 884.0708 0 0 0
30.79426 885.34656 0 0 0
30.80307 886.94849 0 0 0
30.81187 887.37854 0 0 0
30.82068 885.09491 0 0 0
30.82949 882.62549 0 0 0
30.83829 882.30737 0 0 0
30.84710 882.31378 0 0 0
30.85591 883.93518 0 0 0
30.86472 885.12561 0 0 0
30.87352 885.61414 0 0 0
30.88233 885.04333 0 0 0
30.89114 884.89655 0 0 0
30.89994 886.9259 0 0 0
30.90875 887.71741 0 0 0
30.91756 887.92224 0 0 0
30.92637 887.2475 0 0 0
30.93517 884.84698 0 0 0
30.94398 883.57825 0 0 0
30.95279 882.81732 0 0 0
30.96159 882.43146 0 0 0
30.97040 883.87146 0 0 0
30.97921 885.04785 0 0 0
30.98802 886.0011 0 0 0
30.99682 884.46429 0 0 0
31.00563 884.95715 0 0 0
31.01444 887.0343 0 0 0
31.02324 885.60938 0 0 0
31.03205 883.58289 0 0 0
31.04086 885.84558 0 0 0
31.04967 885.38763 0 0 0
31.05847 883.2854 0 0 0
31.06728 883.61804 0 0 0
31.07609 883.25952 0 0 0
31.08489 882.31189 0 0 0
31.09370 882.49573 0 0 0
31.10251 881.97113 0 0 0
31.11132 879.67725 0 0 0
31.12012 878.9696 0 0 0
31.12893 880.02753 0 0 0
31.13774 881.41229 0 0 0
31.14654 881.22742 0 0 0
31.15535 880.2049 0 0 0
31.16416 880.90356 0 0 0
31.17297 880.17719 0 0 0
31.18177 878.43817 0 0 0
31.19058 877.65204 0 0 0
31.19939 875.63593 0 0 0
31.20819 875.02856 0 0 0
31.21700 875.86548 0 0 0
31.22581 877.39307 0 0 0
31.23462 878.04401 0 0 0
31.24342 874.74585 0 0 0
31.25223 873.4574 0 0 0
31.26104 872.0578 0 0 0
31.26985 870.94489 0 0 0
31.27865 871.99982 0 0 0
31.28746 872.73206 0 0 0
31.29627 871.18744 0 0 0
31.30507 869.23077 0 0 0
31.31388 871.60602 0 0 0
31.32269 873.69745 0 0 0
31.33150 872.1604 0 0 0
31.34030 870.28894 0 0 0
31.34911 870.7926 0 0 0
31.35792 870.00421 0 0 0
31.36672 868.21387 0 0 0
31.37553 870.25513 0 0 0
31.38434 869.80554 0 0 0
31.39315 867.78241 0 0 0
31.40195 868.4187 0 0 0
31.41076 868.68451 0 0 0
31.41957 868.4765 0 0 0
31.42837 867.84222 0 0 0
31.43718 865.19104 0 0 0
31.44599 865.68628 0 0 0
31.45480 866.05988 0 0 0
31.46360 864.01129 0 0 0
31.47241 862.59692 0 0 0
31.48122 864.49866 0 0 0
31.49002 863.83344 0 0 0
31.49883 862.89587 0 0 0
31.50764 864.30719 0 0 0
31.51645 865.18109 0 0 0
31.52525 865.79364 0 0 0
31.53406 866.74121 0 0 0
31.54287 866.05579 0 0 0
31.55167 864.35052 0 0 0
31.56048 863.34216 0 0 0
31.56929 862.43774 0 0 0
31.57810 865.85144 0 0 0
31.58690 866.8587 0 0 0
31.59571 865.61975 0 0 0
31.60452 863.60535 0 0 0
31.61332 860.47546 0 0 0
31.62213 860.77063 0 0 0
31.63094 861.94305 0 0 0
31.63975 862.80621 0 0 0
31.64855 861.55975 0 0 0
31.65736 862.35474 0 0 0
31.66617 865.41107 0 0 0
31.67497 865.23755 0 0 0
31.68378 864.03113 0 0 0
31.69259 864.10938 0 0 0
31.70140 862.02155 0 0 0
31.71020 859.93719 0 0 0
31.71901 861.52588 0 0 0
31.72782 863.93768 0 0 0
31.73663 863.90332 0 0 0
31.74543 863.23083 0 0 0
31.75424 863.8764 0 0 0
31.76305 859.1048 0 0 0
31.77185 857.09406 0 0 0
31.78066 857.25513 0 0 0
31.78947 860.71094 0 0 0
31.79828 862.66925 0 0 0
31.80708 861.24548 0 0 0
31.81589 861.47522 0 0 0
31.82470 862.31995 0 0 0
31.83350 859.17902 0 0 0
31.84231 856.79193 0 0 0
31.85112 859.29559 0 0 0
31.85993 859.00934 0 0 0
31.86873 857.05359 0 0 0
31.87754 857.79865 0 0 0
31.88635 859.21271 0 0 0
31.89515 856.75311 0 0 0
31.90396 855.31305 0 0 0
31.91277 855.9585 0 0 0
31.92158 857.98553 0 0 0
31.93038 855.35303 0 0 0
31.93919 855.7287 0 0 0
31.94800 855.8786 0 0 0
31.95680 854.61615 0 0 0
31.96561 856.9267 0 0 0
31.97442 856.0755 0 0 0
31.98323 855.83734 0 0 0
31.99203 852.81305 0 0 0
32.00084 847.76953 0 0 0
32.00965 849.80884 0 0 0
32.01846 852.78833 0 0 0
32.02726 851.40839 0 0 0
32.03607 849.08746 0 0 0
32.04488 848.9375 0 0 0
32.05368 848.52472 0 0 0
32.06249 848.06335 0 0 0
32.07130 850.31036 0 0 0
32.08011 849.22784 0 0 0
32.08891 847.48901 0 0 0
32.09772 846.29907 0 0 0
32.10652 845.64856 0 0 0
32.11533 845.76813 0 0 0
32.12414 845.14221 0 0 0
32.13295 840.95251 0 0 0
32.14175 838.34363 0 0 0
32.15056 839.46362 0 0 0
32.15937 836.43433 0 0 0
32.16817 837.41565 0 0 0
32.17698 834.99158 0 0 0
32.18579 835.74255 0 0 0
32.19460 837.85492 0 0 0
32.20340 837.13751 0 0 0
32.21221 832.92242 0 0 0
32.22102 835.44202 0 0 0
32.22983 841.82446 0 0 0
32.23863 841.0094 0 0 0
32.24744 836.40662 0 0 0
32.25625 834.36102 0 0 0
32.26506 837.6413 0 0 0
32.27386 836.93451 0 0 0
32.28267 833.80511 0 0 0
32.29148 830.97522 0 0 0
32.30029 835.02307 0 0 0
32.30909 839.30835 0 0 0
32.31790 838.21289 0 0 0
32.32671 837.64606 0 0 0
32.33551 831.14716 0 0 0
32.34432 828.67511 0 0 0
32.35313 831.13904 0 0 0
32.36194 830.74023 0 0 0
32.37074 833.26617 0 0 0
32.37955 837.07001 0 0 0
32.38835 837.50281 0 0 0
32.39716 838.06171 0 0 0
32.40597 839.64166 0 0 0
32.41478 834.0163 0 0 0
32.42358 827.73047 0 0 0
32.43239 832.89771 0 0 0
32.44120 828.13684 0 0 0
32.45000 827.08813 0 0 0
32.45881 828.69238 0 0 0
32.46762 827.09155 0 0 0
32.47643 829.86993 0 0 0
32.48523 823.57593 0 0 0
32.49404 820.26349 0 0 0
32.50285 821.86176 0 0 0
32.51165 824.77228 0 0 0
32.52046 830.79816 0 0 0
32.52927 825.38727 0 0 0
32.53808 819.1358 0 0 0
32.54688 816.92786 0 0 0
32.55569 810.80865 0 0 0
32.56450 805.43304 0 0 0
32.57331 806.23706 0 0 0
32.58211 802.18359 0 0 0
32.59092 797.97174 0 0 0
32.59973 802.6546 0 0 0
32.60854 805.34448 0 0 0
32.61734 811.68646 0 0 0
32.62615 816.45734 0 0 0
32.63496 808.20093 0 0 0
32.64376 798.68909 0 0 0
32.65257 785.21893 0 0 0
32.66138 788.41455 0 0 0
32.67018 793.91534 0 0 0
32.67899 790.07776 0 0 0
32.68780 786.66382 0 0 0
32.69661 778.53424 0 0 0
32.70541 765.36365 0 0 0
32.71422 763.37311 0 0 0
32.72303 760.42126 0 0 0
32.73183 744.82355 0 0 0
32.74064 728.97382 0 0 0
32.74945 718.32941 0 0 0
32.75825 730.24902 0 0 0
32.76706 729.28113 0 0 0
32.77587 704.43622 0 0 0
32.78468 684.28247 0 0 0
32.79348 676.43457 0 0 0
32.80229 659.91101 0 0 0
32.81110 619.28363 0 0 0
32.81991 570.33649 0 0 0
32.82871 526.60278 0 0 0
32.83752 481.62006 0 0 0
32.84633 417.92966 0 0 0
32.85514 287.73654 0 0 0
32.86394 182.80505 0 0 0
32.87275 176.87062 0 0 0
32.88156 179.50885 0 0 0
32.89037 187.2113 0 0 0
32.89917 184.80186 0 0 0
32.90798 183.2502 0 0 0
32.91679 195.93633 0 0 0
32.92559 199.92911 0 0 0
32.93440 197.06973 0 0 0
32.94321 192.14857 0 0 0
32.95202 175.56285 0 0 0
32.96082 159.80153 0 0 0
32.96963 164.28108 0 0 0
32.97844 171.64404 0 0 0
32.98724 175.22717 0 0 0
32.99605 177.27281 0 0 0
33.00486 175.1562 0 0 0
33.01366 177.83481 0 0 0
33.02247 177.63028 0 0 0
33.03128 172.38467 0 0 0
33.04008 167.54811 0 0 0
33.04889 169.23761 0 0 0
33.05770 174.06123 0 0 0
33.06650 174.55009 0 0 0
33.07531 177.59155 0 0 0
33.08412 175.76154 0 0 0
33.09293 178.98088 0 0 0
33.10173 180.92552 0 0 0
33.11054 183.34714 0 0 0
33.11935 189.87758 0 0 0
33.12816 189.79678 0 0 0
33.13696 184.53033 0 0 0
33.14577 178.58418 0 0 0
33.15458 185.02477 0 0 0
33.16339 187.8136 0 0 0
33.17219 187.18835 0 0 0
33.18100 191.40164 0 0 0
33.18981 179.38519 0 0 0
33.19862 170.40953 0 0 0
33.20742 172.22023 0 0 0
33.21623 179.68686 0 0 0
33.22504 190.91341 0 0 0
33.23385 186.05882 0 0 0
33.24265 184.48698 0 0 0
33.25146 190.60481 0 0 0
33.26026 188.02136 0 0 0
33.26907 184.74249 0 0 0
33.27788 187.77742 0 0 0
33.28669 195.45448 0 0 0
33.29549 204.85068 0 0 0
33.30430 200.39024 0 0 0
33.31311 182.48402 0 0 0
33.32191 181.10214 0 0 0
33.33072 177.9599 0 0 0
33.33953 175.33229 0 0 0
33.34833 174.06369 0 0 0
33.35714 177.12891 0 0 0
33.36595 181.70193 0 0 0
33.37476 188.33931 0 0 0
33.38356 201.83093 0 0 0
33.39237 202.78087 0 0 0
33.40118 190.24881 0 0 0
33.40999 185.5004 0 0 0
33.41879 190.27069 0 0 0
33.42760 186.49498 0 0 0
33.43641 173.67477 0 0 0
33.44522 167.50069 0 0 0
33.45402 172.15878 0 0 0
33.46283 181.12704 0 0 0
33.47164 182.39069 0 0 0
33.48045 184.89922 0 0 0
33.48925 183.69363 0 0 0
33.49806 189.01263 0 0 0
33.50687 191.50818 0 0 0
33.51568 192.38116 0 0 0
33.52448 191.63327 0 0 0
33.53329 196.02083 0 0 0
33.54210 203.36722 0 0 0
33.55090 199.9881 0 0 0
33.55971 196.48471 0 0 0
33.56852 195.36932 0 0 0
33.57732 192.87492 0 0 0
33.58613 187.63997 0 0 0
33.59494 184.16174 0 0 0
33.60375 176.11116 0 0 0
33.61255 168.40785 0 0 0
33.62136 177.46107 0 0 0
33.63016 181.97469 0 0 0
33.63897 187.08687 0 0 0
33.64778 192.50958 0 0 0
33.65659 189.16954 0 0 0
33.66539 184.31789 0 0 0
33.67420 189.08237 0 0 0
33.68301 194.56033 0 0 0
33.69181 181.53281 0 0 0
33.70062 168.87117 0 0 0
33.70943 167.88254 0 0 0
33.71824 173.07047 0 0 0
33.72704 178.95111 0 0 0
33.73585 177.59789 0 0 0
33.74466 179.46231 0 0 0
33.75347 183.26648 0 0 0
33.76227 179.3177 0 0 0
33.77108 171.13812 0 0 0
33.77989 176.41377 0 0 0
33.78870 188.73907 0 0 0
33.79750 200.12633 0 0 0
33.80631 192.56114 0 0 0
33.81512 188.21326 0 0 0
33.82393 190.36858 0 0 0
33.83273 189.7095 0 0 0
33.84154 185.07748 0 0 0
33.85035 180.62939 0 0 0
33.85915 181.34729 0 0 0
33.86796 182.45694 0 0 0
33.87677 178.04802 0 0 0
33.88557 177.21176 0 0 0
33.89438 188.94426 0 0 0
33.90319 197.68756 0 0 0
33.91199 187.4935 0 0 0
33.92080 183.52007 0 0 0
33.92961 182.78954 0 0 0
33.93842 179.69962 0 0 0
33.94722 175.80391 0 0 0
33.95603 172.76801 0 0 0
33.96484 175.25992 0 0 0
33.97364 180.31143 0 0 0
33.98245 184.9444 0 0 0
33.99126 193.01712 0 0 0
34.00007 196.98587 0 0 0
34.00887 196.45558 0 0 0
34.01768 198.58592 0 0 0
34.02649 189.33685 0 0 0
34.03530 175.70757 0 0 0
34.04410 174.80167 0 0 0
34.05291 182.02823 0 0 0
34.06172 194.45096 0 0 0
34.07053 198.83916 0 0 0
34.07933 196.50443 0 0 0
34.08814 198.32587 0 0 0
34.09695 200.94116 0 0 0
34.10575 192.45543 0 0 0
34.11456 184.3474 0 0 0
34.12337 198.06529 0 0 0
34.13217 209.52267 0 0 0
34.14098 208.25375 0 0 0
34.14979 201.13579 0 0 0
34.15860 196.62457 0 0 0
34.16740 200.57632 0 0 0
34.17621 209.08244 0 0 0
34.18502 207.99365 0 0 0
34.19382 190.76418 0 0 0
34.20263 188.26674 0 0 0
34.21144 187.07433 0 0 0
34.22024 187.5383 0 0 0
34.22905 193.67508 0 0 0
34.23786 199.99858 0 0 0
34.24667 196.07608 0 0 0
34.25547 180.2518 0 0 0
34.26428 179.41167 0 0 0
34.27309 185.03403 0 0 0
34.28189 185.27525 0 0 0
34.29070 196.84505 0 0 0
34.29951 205.55064 0 0 0
34.30832 211.68492 0 0 0
34.31712 200.38916 0 0 0
34.32593 186.05948 0 0 0
34.33474 190.31049 0 0 0
34.34355 205.82356 0 0 0
34.35235 201.80861 0 0 0
34.36116 194.06544 0 0 0
34.36997 202.31923 0 0 0
34.37878 208.47284 0 0 0
34.38758 202.50165 0 0 0
34.39639 196.52548 0 0 0
34.40520 197.54453 0 0 0
34.41401 203.06317 0 0 0
34.42281 192.8764 0 0 0
34.43162 184.72177 0 0 0
34.44043 190.07367 0 0 0
34.44923 192.39491 0 0 0
34.45804 190.70001 0 0 0
34.46685 197.20465 0 0 0
34.47566 203.29916 0 0 0
34.48446 206.70108 0 0 0
34.49327 207.92528 0 0 0
34.50207 202.81146 0 0 0
34.51088 198.58875 0 0 0
34.51969 202.75453 0 0 0
34.52850 217.34941 0 0 0
34.53730 219.34007 0 0 0
34.54611 222.5134 0 0 0
34.55492 218.2043 0 0 0
34.56372 204.3831 0 0 0
34.57253 194.87132 0 0 0
34.58134 192.57144 0 0 0
34.59015 194.24098 0 0 0
34.59895 196.79636 0 0 0
34.60776 199.59076 0 0 0
34.61657 202.15712 0 0 0
34.62538 201.49078 0 0 0
34.63418 188.90579 0 0 0
34.64299 180.55905 0 0 0
34.65180 176.06732 0 0 0
34.66060 182.09691 0 0 0
34.66941 206.33899 0 0 0
34.67822 218.92638 0 0 0
34.68703 214.25739 0 0 0
34.69583 199.11739 0 0 0
34.70464 185.73077 0 0 0
34.71345 190.9343 0 0 0
34.72226 191.26944 0 0 0
34.73106 208.88702 0 0 0
34.73987 213.31224 0 0 0
34.74868 220.28145 0 0 0
34.75748 219.35129 0 0 0
34.76629 211.56528 0 0 0
34.77510 211.507 0 0 0
34.78390 216.86267 0 0 0
34.79271 224.556 0 0 0
34.80152 246.32486 0 0 0
34.81033 244.28421 0 0 0
34.81913 236.34851 0 0 0
34.82794 225.68503 0 0 0
34.83675 217.06265 0 0 0
34.84555 221.88159 0 0 0
34.85436 221.62502 0 0 0
34.86317 222.53003 0 0 0
34.87197 230.42334 0 0 0
34.88078 232.00703 0 0 0
34.88959 224.49524 0 0 0
34.89840 213.41382 0 0 0
34.90720 210.14433 0 0 0
34.91601 221.95177 0 0 0
34.92482 215.02831 0 0 0
34.93363 205.84195 0 0 0
34.94243 208.12663 0 0 0
34.95124 212.82121 0 0 0
34.96005 218.77191 0 0 0
34.96886 214.39009 0 0 0
34.97766 210.57536 0 0 0
34.98647 210.95575 0 0 0
34.99528 210.68585 0 0 0
35.00409 209.84926 0 0 0
35.01289 208.74094 0 0 0
35.02170 209.21275 0 0 0
35.03051 214.68341 0 0 0
35.03931 215.58426 0 0 0
35.04812 215.83601 0 0 0
35.05693 208.71063 0 0 0
35.06573 210.61334 0 0 0
35.07454 220.65665 0 0 0
35.08335 226.80533 0 0 0
35.09215 219.26294 0 0 0
35.10096 204.8791 0 0 0
35.10977 207.22432 0 0 0
35.11858 214.07881 0 0 0
35.12738 209.422 0 0 0
35.13619 208.26567 0 0 0
35.14500 219.50339 0 0 0
35.15380 223.52687 0 0 0
35.16261 220.60994 0 0 0
35.17142 212.99609 0 0 0
35.18023 204.08417 0 0 0
35.18903 199.89888 0 0 0
35.19784 208.34351 0 0 0
35.20665 212.85912 0 0 0
35.21545 210.47696 0 0 0
35.22426 221.34254 0 0 0
loop_
_gsas_i100_meas
1.54
9.14
4.55
0.73
7.18
2.47
100.00
5.55
55.52
32.18
56.21
20.39
1.42
0.26
47.50
36.93
1.33
41.99
22.43
20.83
4.68
0.01
1.06
7.92
3.80
37.38
3.84
38.09
5.97
0.85
1.43
0.00
0.16
6.47
1.46
0.22
4.12
3.85
6.53
12.02
23.48
5.19
4.30
0.02
3.74
0.39
0.00
0.25
16.80
0.18
3.51
5.65
0.92
11.53
6.82
12.75
1.20
2.92
4.33
0.11
18.58
5.56
0.00
0.32
2.34
0.89
1.53
3.84
3.82
0.73
2.23
4.42
0.64
12.79
0.30
1.57
0.00
3.25
3.45
0.32
1.26
8.74
0.00
10.71
0.26
9.27
8.95
16.08
1.58
1.15
0.61
5.00
1.79
0.39
0.69
2.84
6.70
0.04
0.30
2.82
1.54
0.53
1.93
0.84
0.06
7.96
0.65
2.88
0.30
4.58
2.20
13.98
1.07
9.91
2.10
2.98
1.29
0.07
0.02
0.35
0.05
0.85
0.19
0.72
0.00
3.79
11.15
1.83
0.85
1.38
0.03
0.05
0.00
0.02
0.98
3.63
0.79
0.12
0.13
0.36
2.40
0.00
0.03
8.59
4.96
0.00
1.15
0.17
6.63
0.15
1.23
1.98
0.08
0.32
0.07
1.50
1.57
1.48
2.32
0.47
2.29
0.31
0.55
1.23
0.03
1.04
1.32
0.32
0.74
2.21
0.78
