#------------------------------------------------------------------------------
#$Date: 2021-03-05 03:44:48 +0200 (Fri, 05 Mar 2021) $
#$Revision: 262565 $
#$URL: file:///home/coder/svn-repositories/cod/cif/7/24/19/7241975.cif $
#------------------------------------------------------------------------------
#
# This file is available in the Crystallography Open Database (COD),
# http://www.crystallography.net/
#
# All data on this site have been placed in the public domain by the
# contributors.
#
data_7241975
loop_
_publ_author_name
'Abe, Haruka'
'Kobayashi, Takahiro'
'Hoshino, Norihisa'
'Takeda, Takashi'
'Suzuki, Yasutaka'
'Kawamata, Jun'
'Akutagawa, Tomoyuki'
_publ_section_title
;
 Dynamic structural reconstruction of
 (guanidinium+)2(benzene-1,4-disulfonate2&#x2212;) host crystal by guest
 adsorption
;
_journal_issue                   5
_journal_name_full               CrystEngComm
_journal_page_first              1149
_journal_page_last               1157
_journal_paper_doi               10.1039/D0CE01616K
_journal_volume                  23
_journal_year                    2021
_chemical_formula_moiety         '2(C H6 N3)+, (C6 H4 O6 S2)2-, 3(C4 H4 S)'
_chemical_formula_sum            'C20 H28 N6 O6 S5'
_chemical_formula_weight         608.78
_space_group_crystal_system      monoclinic
_space_group_IT_number           14
_space_group_name_Hall           '-P 2yn'
_space_group_name_H-M_alt        'P 1 21/n 1'
_atom_sites_solution_hydrogens   geom
_atom_sites_solution_primary     direct
_atom_sites_solution_secondary   difmap
_audit_creation_method           SHELXL-2018/3
_audit_update_record
;
2020-10-29 deposited with the CCDC.	2020-12-21 downloaded from the CCDC.
;
_cell_angle_alpha                90
_cell_angle_beta                 90.488(6)
_cell_angle_gamma                90
_cell_formula_units_Z            2
_cell_length_a                   7.6230(3)
_cell_length_b                   16.8745(8)
_cell_length_c                   11.8090(6)
_cell_measurement_reflns_used    10020
_cell_measurement_temperature    100(2)
_cell_measurement_theta_max      68.24
_cell_measurement_theta_min      3.75
_cell_volume                     1518.99(12)
_computing_cell_refinement       'RAPID AUTO (Rigaku, 2011)'
_computing_data_collection       'RAPID AUTO (Rigaku, 2011)'
_computing_data_reduction        'RAPID AUTO (Rigaku, 2011)'
_computing_molecular_graphics    'Mercury (CCDC, 2016)'
_computing_publication_material  'CrystalStructure 4.3 (Rigaku, 2019)'
_computing_structure_refinement  'SHELXL-2018/3 (Sheldrick, 2018)'
_computing_structure_solution    'SHELXS-2013 (Sheldrick, 2013)'
_diffrn_ambient_temperature      100(2)
_diffrn_detector_area_resol_mean 10.000
_diffrn_measured_fraction_theta_full 0.992
_diffrn_measured_fraction_theta_max 0.990
_diffrn_measurement_device_type  'Rigaku R-AXIS RAPID'
_diffrn_measurement_method       \w
_diffrn_radiation_type           CuK\a
_diffrn_radiation_wavelength     1.54187
_diffrn_reflns_av_R_equivalents  0.0615
_diffrn_reflns_av_unetI/netI     0.0526
_diffrn_reflns_Laue_measured_fraction_full 0.992
_diffrn_reflns_Laue_measured_fraction_max 0.990
_diffrn_reflns_limit_h_max       9
_diffrn_reflns_limit_h_min       -9
_diffrn_reflns_limit_k_max       20
_diffrn_reflns_limit_k_min       -20
_diffrn_reflns_limit_l_max       14
_diffrn_reflns_limit_l_min       -14
_diffrn_reflns_number            16375
_diffrn_reflns_point_group_measured_fraction_full 0.992
_diffrn_reflns_point_group_measured_fraction_max 0.990
_diffrn_reflns_theta_full        67.687
_diffrn_reflns_theta_max         68.245
_diffrn_reflns_theta_min         4.570
_diffrn_source                   'rotating-anode X-ray tube'
_exptl_absorpt_coefficient_mu    3.888
_exptl_absorpt_correction_T_max  1.0000
_exptl_absorpt_correction_T_min  0.5831
_exptl_absorpt_correction_type   empirical
_exptl_absorpt_process_details   'ABSCOR (Rigaku, 2011)'
_exptl_crystal_colour            colorless
_exptl_crystal_density_diffrn    1.331
_exptl_crystal_description       needle
_exptl_crystal_F_000             636
_exptl_crystal_size_max          0.100
_exptl_crystal_size_mid          0.100
_exptl_crystal_size_min          0.010
_refine_diff_density_max         0.668
_refine_diff_density_min         -0.646
_refine_diff_density_rms         0.092
_refine_ls_extinction_method     none
_refine_ls_goodness_of_fit_ref   1.083
_refine_ls_hydrogen_treatment    constr
_refine_ls_matrix_type           full
_refine_ls_number_parameters     100
_refine_ls_number_reflns         2751
_refine_ls_number_restraints     0
_refine_ls_restrained_S_all      1.083
_refine_ls_R_factor_all          0.1118
_refine_ls_R_factor_gt           0.0950
_refine_ls_shift/su_max          0.000
_refine_ls_shift/su_mean         0.000
_refine_ls_structure_factor_coef Fsqd
_refine_ls_weighting_details
'w=1/[\s^2^(Fo^2^)+(0.1849P)^2^+1.1864P] where P=(Fo^2^+2Fc^2^)/3'
_refine_ls_weighting_scheme      calc
_refine_ls_wR_factor_gt          0.2899
_refine_ls_wR_factor_ref         0.3084
_reflns_Friedel_coverage         0.000
_reflns_number_gt                2043
_reflns_number_total             2751
_reflns_threshold_expression     'I > 2\s(I)'
_cod_data_source_file            d0ce01616k2.cif
_cod_data_source_block           p21n_sq_CCDC1
_cod_depositor_comments
'Adding full bibliography for 7241968--7241975.cif.'
_cod_original_sg_symbol_H-M      'P 21/n'
_cod_database_code               7241975
_shelx_shelxl_version_number     2018/3
_shelx_space_group_comment
;
The symmetry employed for this shelxl refinement is uniquely defined
by the following loop, which should always be used as a source of
symmetry information in preference to the above space-group names.
They are only intended as comments.
;
_shelx_estimated_absorpt_t_min   0.697
_shelx_estimated_absorpt_t_max   0.962
_shelx_res_file
;
TITL 200902_G2BDS_thiophene2
    p21n_sq.res
    created by SHELXL-2018/3 at 16:24:24 on 28-Oct-2020
REM  Yadorkari-X generated
CELL 1.54187 7.6230 16.8745 11.8090 90.0000 90.4880 90.0000
ZERR 2.0 0.0003 0.0008 0.0006 0.0000 0.0060 0.0000
LATT 1
SYMM 1/2-X,1/2+Y,1/2-Z
REM  SPGR P21/n monoclinic
SFAC C H N O S
UNIT 40 56 12 12 10
SIZE 0.10 0.10 0.01
TEMP -173.0
L.S. 10
FMAP 2
PLAN -5
ACTA
CONF
BOND$H
OMIT   3   2   0
OMIT   4   3   0
OMIT   4   6   0
OMIT  -4   6   1
OMIT  -4   8   1
OMIT  -2   0   2
OMIT  -2   1   2
OMIT  -3   2   2
OMIT   1   3   2
OMIT  -3   0   3
OMIT  -4   1   3
OMIT  -3   2   3
OMIT  -5   1   4
OMIT  -3   1   4
OMIT   2   2   4
OMIT   1   3   4
OMIT  -4  12   4
OMIT  -2   6   5
OMIT   0   4   6
OMIT   0   1   7

ABIN
WGHT    0.184900    1.186400
FVAR       0.19328
S1    5    0.469462    0.185116    0.019946    11.00000    0.03922    0.06859 =
         0.06247    0.00128    0.00954    0.00077
O1    4    0.466475    0.216175   -0.094626    11.00000    0.04257    0.07254 =
         0.06744    0.00704    0.00596   -0.00006
O2    4    0.626370    0.208354    0.082550    11.00000    0.04006    0.07581 =
         0.06530   -0.00670    0.01038   -0.00478
O3    4    0.310113    0.201932    0.081346    11.00000    0.03923    0.07424 =
         0.06851   -0.00348    0.00604    0.00339
N1    3    0.467574    0.277806    0.480927    11.00000    0.03821    0.07622 =
         0.06195   -0.01113    0.01323   -0.00061
AFIX  93
H1    2    0.567968    0.284881    0.516852    11.00000   -1.20000
H2    2    0.368034    0.283974    0.517081    11.00000   -1.20000
AFIX   0
N2    3    0.616647    0.248490    0.317461    11.00000    0.04087    0.07828 =
         0.07778   -0.01666    0.00960   -0.00093
AFIX  93
H3    2    0.717064    0.255561    0.353363    11.00000   -1.20000
H4    2    0.615749    0.235246    0.245382    11.00000   -1.20000
AFIX   0
N3    3    0.313629    0.244753    0.318769    11.00000    0.04259    0.07274 =
         0.06972   -0.01585    0.00996   -0.00239
AFIX  93
H5    2    0.214401    0.249406    0.355725    11.00000   -1.20000
H6    2    0.312371    0.231502    0.246693    11.00000   -1.20000
AFIX   0
C1    1    0.408179    0.033485    0.091989    11.00000    0.04529    0.07224 =
         0.06078   -0.00381    0.01536    0.00215
AFIX  43
H7    2    0.346613    0.056781    0.153167    11.00000   -1.20000
AFIX   0
C2    1    0.571982    0.047922   -0.084505    11.00000    0.05343    0.06242 =
         0.05912    0.00367    0.01488   -0.00148
AFIX  43
H8    2    0.619853    0.081184   -0.141319    11.00000   -1.20000
AFIX   0
C3    1    0.482350    0.081116    0.005763    11.00000    0.03151    0.06759 =
         0.05791    0.00226    0.01437    0.00060
C4    1    0.466283    0.257816    0.372123    11.00000    0.04462    0.05404 =
         0.06441   -0.00068    0.00583    0.00217

HKLF 4




REM  200902_G2BDS_thiophene2
REM wR2 = 0.3084, GooF = S = 1.083, Restrained GooF = 1.083 for all data
REM R1 = 0.0950 for 2043 Fo > 4sig(Fo) and 0.1118 for all 2751 data
REM 100 parameters refined using 0 restraints

END

WGHT      0.1849      1.1864

REM Highest difference peak  0.668,  deepest hole -0.646,  1-sigma level  0.092
Q1    1   0.0594  0.9503  0.3081  11.00000  0.05    0.67
Q2    1  -0.0215  1.1029  0.2511  11.00000  0.05    0.63
Q3    1  -0.0643  0.9612  0.1838  11.00000  0.05    0.47
Q4    1  -0.1001  1.0429  0.1645  11.00000  0.05    0.45
Q5    1   0.0869  1.0346  0.3411  11.00000  0.05    0.39
;
_shelx_res_checksum              51196
_shelx_fab_file
;
    0    0    2    -56.40      0.00
    0    0    4     13.23      0.00
    0    0    6     11.21      0.00
    0    0    8      1.20      0.00
    0    0   10     -0.95      0.00
    0    0   12      3.69      0.00
    0    0   14     -0.99      0.00
    0    1    1    -79.00      0.00
    0    1    2    -12.77      0.00
    0    1    3     -8.06      0.00
    0    1    4      0.09      0.00
    0    1    5      1.42      0.00
    0    1    6     -0.74      0.00
    0    1    7     -0.92      0.00
    0    1    8      3.61      0.00
    0    1    9     -3.74      0.00
    0    1   10     -0.73      0.00
    0    1   11     -0.71      0.00
    0    1   12     -0.76      0.00
    0    1   13     -0.92      0.00
    0    1   14      0.72      0.00
    0    2    0    177.64      0.00
    0    2    1     -9.57      0.00
    0    2    2    -26.53      0.00
    0    2    3     16.81      0.00
    0    2    4     -1.05      0.00
    0    2    5     -6.99      0.00
    0    2    6     10.84      0.00
    0    2    7      6.23      0.00
    0    2    8     -8.89      0.00
    0    2    9    -11.50      0.00
    0    2   10      2.81      0.00
    0    2   11      3.67      0.00
    0    2   12      1.10      0.00
    0    2   13     -1.45      0.00
    0    2   14     -0.98      0.00
    0    3    1    -15.45      0.00
    0    3    2     -9.45      0.00
    0    3    3     -2.55      0.00
    0    3    4     -1.89      0.00
    0    3    5      6.40      0.00
    0    3    6     -2.26      0.00
    0    3    7      5.53      0.00
    0    3    8      7.36      0.00
    0    3    9     -0.26      0.00
    0    3   10      0.48      0.00
    0    3   11     -0.27      0.00
    0    3   12     -1.81      0.00
    0    3   13     -0.79      0.00
    0    3   14      0.60      0.00
    0    4    0      4.61      0.00
    0    4    1      5.78      0.00
    0    4    2      4.06      0.00
    0    4    3     -1.30      0.00
    0    4    4    -19.05      0.00
    0    4    5      0.78      0.00
    0    4    6      5.77      0.00
    0    4    7      2.31      0.00
    0    4    8    -11.92      0.00
    0    4    9    -11.88      0.00
    0    4   10      2.91      0.00
    0    4   11      4.05      0.00
    0    4   12     -0.64      0.00
    0    4   13     -0.87      0.00
    0    5    1      7.78      0.00
    0    5    2     -3.97      0.00
    0    5    3      2.08      0.00
    0    5    4      2.06      0.00
    0    5    5     10.02      0.00
    0    5    6     -3.68      0.00
    0    5    7      1.37      0.00
    0    5    8      7.35      0.00
    0    5    9      2.93      0.00
    0    5   10      0.07      0.00
    0    5   11     -0.05      0.00
    0    5   12     -1.65      0.00
    0    5   13      0.19      0.00
    0    6    0    -32.53      0.00
    0    6    1     26.86      0.00
    0    6    2      6.38      0.00
    0    6    3    -22.47      0.00
    0    6    4    -15.13      0.00
    0    6    5     11.88      0.00
    0    6    6      2.50      0.00
    0    6    7     -1.85      0.00
    0    6    8     -2.67      0.00
    0    6    9     -5.61      0.00
    0    6   10     -0.55      0.00
    0    6   11      2.85      0.00
    0    6   12     -0.42      0.00
    0    6   13      0.36      0.00
    0    7    1     13.70      0.00
    0    7    2      0.67      0.00
    0    7    3      1.24      0.00
    0    7    4      5.28      0.00
    0    7    5      7.04      0.00
    0    7    6     -3.06      0.00
    0    7    7     -4.37      0.00
    0    7    8      3.09      0.00
    0    7    9      2.83      0.00
    0    7   10     -1.35      0.00
    0    7   11      1.75      0.00
    0    7   12     -1.18      0.00
    0    7   13      0.16      0.00
    0    8    0    -32.33      0.00
    0    8    1     16.36      0.00
    0    8    2      1.00      0.00
    0    8    3    -25.85      0.00
    0    8    4     -1.04      0.00
    0    8    5      8.97      0.00
    0    8    6     -5.69      0.00
    0    8    7      0.34      0.00
    0    8    8      5.55      0.00
    0    8    9     -0.27      0.00
    0    8   10     -3.80      0.00
    0    8   11      2.06      0.00
    0    8   12      0.61      0.00
    0    8   13     -0.51      0.00
    0    9    1      7.86      0.00
    0    9    2     10.14      0.00
    0    9    3      3.00      0.00
    0    9    4      2.35      0.00
    0    9    5      6.29      0.00
    0    9    6     -0.36      0.00
    0    9    7     -2.06      0.00
    0    9    8     -0.67      0.00
    0    9    9      2.69      0.00
    0    9   10     -1.99      0.00
    0    9   11      1.38      0.00
    0    9   12      0.07      0.00
    0   10    0    -16.41      0.00
    0   10    1     -2.01      0.00
    0   10    2      6.41      0.00
    0   10    3     -5.73      0.00
    0   10    4      3.70      0.00
    0   10    5     -3.23      0.00
    0   10    6    -13.20      0.00
    0   10    7      3.15      0.00
    0   10    8      9.21      0.00
    0   10    9      0.17      0.00
    0   10   10     -3.73      0.00
    0   10   11      1.61      0.00
    0   10   12      0.49      0.00
    0   11    1     -4.81      0.00
    0   11    2      6.07      0.00
    0   11    3      0.96      0.00
    0   11    4     -2.17      0.00
    0   11    5      3.46      0.00
    0   11    6      1.14      0.00
    0   11    7      0.37      0.00
    0   11    8     -2.22      0.00
    0   11    9      1.91      0.00
    0   11   10     -2.00      0.00
    0   11   11     -0.20      0.00
    0   12    0    -10.76      0.00
    0   12    1     -9.31      0.00
    0   12    2     12.22      0.00
    0   12    3      6.90      0.00
    0   12    4      1.55      0.00
    0   12    5     -6.43      0.00
    0   12    6     -9.20      0.00
    0   12    7      4.76      0.00
    0   12    8      5.65      0.00
    0   12    9     -0.71      0.00
    0   12   10     -0.68      0.00
    0   12   11      0.90      0.00
    0   13    1     -5.70      0.00
    0   13    2      4.27      0.00
    0   13    3     -0.35      0.00
    0   13    4     -4.12      0.00
    0   13    5      0.25      0.00
    0   13    6      1.21      0.00
    0   13    7      0.42      0.00
    0   13    8     -2.26      0.00
    0   13    9      0.75      0.00
    0   13   10     -0.77      0.00
    0   14    0     -6.95      0.00
    0   14    1     -5.54      0.00
    0   14    2      7.48      0.00
    0   14    3      5.25      0.00
    0   14    4     -2.44      0.00
    0   14    5     -3.25      0.00
    0   14    6     -1.81      0.00
    0   14    7      0.80      0.00
    0   14    8     -0.51      0.00
    0   14    9      1.38      0.00
    0   14   10     -0.60      0.00
    0   15    1     -2.48      0.00
    0   15    2      0.99      0.00
    0   15    3      1.02      0.00
    0   15    4     -3.58      0.00
    0   15    5     -2.07      0.00
    0   15    6      1.59      0.00
    0   15    7      0.59      0.00
    0   15    8     -0.61      0.00
    0   15    9      0.81      0.00
    0   16    0      0.36      0.00
    0   16    1     -0.47      0.00
    0   16    2     -1.22      0.00
    0   16    3      1.93      0.00
    0   16    4      0.63      0.00
    0   16    5      0.36      0.00
    0   16    6      0.65      0.00
    0   16    7     -2.56      0.00
    0   16    8     -0.62      0.00
    0   17    1     -0.29      0.00
    0   17    2     -0.61      0.00
    0   17    3      1.86      0.00
    0   17    4     -0.23      0.00
    0   17    5     -2.44      0.00
    0   17    6      0.16      0.00
    0   17    7      0.18      0.00
    0   18    0      3.02      0.00
    0   18    1      0.24      0.00
    0   18    2     -3.75      0.00
    0   18    3      0.39      0.00
    0   18    4      2.39      0.00
    0   18    5      0.04      0.00
    0   18    6      0.17      0.00
    0   19    1     -0.12      0.00
    0   19    2     -1.28      0.00
    0   19    3      0.98      0.00
    0   19    4      0.47      0.00
    0   20    0      2.14      0.00
    0   20    1      0.60      0.00
    0   20    2     -2.14      0.00
   -1    0   13     -0.51      0.00
   -1    0   11      2.35      0.00
   -1    0    9     -1.18      0.00
   -1    0    7     -1.48      0.00
   -1    0    5    -19.57      0.00
   -1    0    3     13.61      0.00
   -1    0    1     40.14      0.00
    1    0    1     80.56      0.00
    1    0    3     34.22      0.00
    1    0    5     -2.01      0.00
    1    0    7     -2.77      0.00
    1    0    9      0.06      0.00
    1    0   11      2.59      0.00
    1    0   13      1.06      0.00
   -1    1   14      0.31      0.00
   -1    1   13     -1.61      0.00
   -1    1   12     -0.76      0.00
   -1    1   11      4.86      0.00
   -1    1   10      1.12      0.00
   -1    1    9     -5.18      0.00
   -1    1    8    -10.91      0.00
   -1    1    7      8.77      0.00
   -1    1    6     12.15      0.00
   -1    1    5     -3.45      0.00
   -1    1    4     34.87      0.00
   -1    1    3      2.42      0.00
   -1    1    2   -116.42      0.00
   -1    1    1    -17.90      0.00
    1    1    0     67.09      0.00
    1    1    1    -22.44      0.00
    1    1    2    -77.53      0.00
    1    1    3      0.18      0.00
    1    1    4    -23.28      0.00
    1    1    5    -11.67      0.00
    1    1    6     23.28      0.00
    1    1    7      8.98      0.00
    1    1    8     -4.60      0.00
    1    1    9     -3.76      0.00
    1    1   10     -1.78      0.00
    1    1   11      1.38      0.00
    1    1   12      0.17      0.00
    1    1   13     -1.00      0.00
    1    1   14      1.26      0.00
   -1    2   14      0.83      0.00
   -1    2   13     -0.30      0.00
   -1    2   12     -0.52      0.00
   -1    2   11      0.97      0.00
   -1    2   10     -3.33      0.00
   -1    2    9      0.30      0.00
   -1    2    8     -2.68      0.00
   -1    2    7     -2.92      0.00
   -1    2    6     -4.41      0.00
   -1    2    5    -10.72      0.00
   -1    2    4     -1.91      0.00
   -1    2    3      2.12      0.00
   -1    2    2     12.18      0.00
   -1    2    1     27.32      0.00
    1    2    0     12.54      0.00
    1    2    1     48.12      0.00
    1    2    2      6.63      0.00
    1    2    3     24.72      0.00
    1    2    4     19.21      0.00
    1    2    5     -6.21      0.00
    1    2    6     -5.07      0.00
    1    2    7     -2.67      0.00
    1    2    8     -0.76      0.00
    1    2    9     -1.78      0.00
    1    2   10     -0.76      0.00
    1    2   11      1.71      0.00
    1    2   12     -0.80      0.00
    1    2   13     -0.22      0.00
    1    2   14     -0.37      0.00
   -1    3   13     -3.03      0.00
   -1    3   12     -2.06      0.00
   -1    3   11      6.53      0.00
   -1    3   10      4.29      0.00
   -1    3    9     -5.60      0.00
   -1    3    8    -11.45      0.00
   -1    3    7     10.72      0.00
   -1    3    6     17.81      0.00
   -1    3    5      1.45      0.00
   -1    3    4     10.11      0.00
   -1    3    3     -1.73      0.00
   -1    3    2    -34.28      0.00
   -1    3    1    -13.39      0.00
    1    3    0     20.39      0.00
    1    3    1    -16.68      0.00
    1    3    2    -21.23      0.00
    1    3    3    -12.47      0.00
    1    3    4    -14.00      0.00
    1    3    5    -16.67      0.00
    1    3    6     20.96      0.00
    1    3    7     14.83      0.00
    1    3    8     -6.98      0.00
    1    3    9     -5.02      0.00
    1    3   10      1.83      0.00
    1    3   11      1.10      0.00
    1    3   12      0.76      0.00
    1    3   13     -0.01      0.00
   -1    4   13     -0.21      0.00
   -1    4   12     -0.85      0.00
   -1    4   11     -0.11      0.00
   -1    4   10     -2.44      0.00
   -1    4    9      0.78      0.00
   -1    4    8      0.14      0.00
   -1    4    7     -5.36      0.00
   -1    4    6    -11.21      0.00
   -1    4    5      0.07      0.00
   -1    4    4      0.08      0.00
   -1    4    3    -12.30      0.00
   -1    4    2      9.72      0.00
   -1    4    1      2.66      0.00
    1    4    0      9.17      0.00
    1    4    1      3.46      0.00
    1    4    2      9.63      0.00
    1    4    3      2.64      0.00
    1    4    4     16.29      0.00
    1    4    5     -3.31      0.00
    1    4    6     -6.40      0.00
    1    4    7     -4.30      0.00
    1    4    8     -0.89      0.00
    1    4    9     -2.80      0.00
    1    4   10     -0.70      0.00
    1    4   11     -0.74      0.00
    1    4   12     -1.47      0.00
    1    4   13     -0.43      0.00
   -1    5   13     -1.88      0.00
   -1    5   12     -1.89      0.00
   -1    5   11      3.90      0.00
   -1    5   10      2.03      0.00
   -1    5    9     -2.29      0.00
   -1    5    8     -1.59      0.00
   -1    5    7      1.05      0.00
   -1    5    6     13.29      0.00
   -1    5    5     11.52      0.00
   -1    5    4     -7.21      0.00
   -1    5    3    -13.80      0.00
   -1    5    2     21.36      0.00
   -1    5    1     15.18      0.00
    1    5    0     -4.21      0.00
    1    5    1     15.25      0.00
    1    5    2     17.46      0.00
    1    5    3    -25.91      0.00
    1    5    4    -14.71      0.00
    1    5    5     -1.78      0.00
    1    5    6     15.47      0.00
    1    5    7      9.02      0.00
    1    5    8     -5.15      0.00
    1    5    9     -3.73      0.00
    1    5   10      4.04      0.00
    1    5   11      2.55      0.00
    1    5   12      0.15      0.00
    1    5   13      0.23      0.00
   -1    6   13     -0.34      0.00
   -1    6   12      0.11      0.00
   -1    6   11      0.57      0.00
   -1    6   10     -3.00      0.00
   -1    6    9      0.43      0.00
   -1    6    8      4.81      0.00
   -1    6    7     -4.33      0.00
   -1    6    6     -9.29      0.00
   -1    6    5      3.41      0.00
   -1    6    4      3.92      0.00
   -1    6    3    -13.16      0.00
   -1    6    2      2.17      0.00
   -1    6    1    -11.64      0.00
    1    6    0      5.73      0.00
    1    6    1    -10.49      0.00
    1    6    2      2.50      0.00
    1    6    3    -10.23      0.00
    1    6    4      4.98      0.00
    1    6    5      2.86      0.00
    1    6    6     -4.34      0.00
    1    6    7     -3.70      0.00
    1    6    8     -0.01      0.00
    1    6    9     -2.18      0.00
    1    6   10     -0.52      0.00
    1    6   11     -1.06      0.00
    1    6   12     -1.97      0.00
    1    6   13      0.20      0.00
   -1    7   13     -0.14      0.00
   -1    7   12      0.11      0.00
   -1    7   11      1.61      0.00
   -1    7   10      0.01      0.00
   -1    7    9     -1.68      0.00
   -1    7    8      2.73      0.00
   -1    7    7     -5.32      0.00
   -1    7    6     -0.08      0.00
   -1    7    5     17.58      0.00
   -1    7    4     -3.76      0.00
   -1    7    3    -20.08      0.00
   -1    7    2     28.94      0.00
   -1    7    1     25.08      0.00
    1    7    0     -7.17      0.00
    1    7    1     23.59      0.00
    1    7    2     17.37      0.00
    1    7    3    -20.90      0.00
    1    7    4      2.98      0.00
    1    7    5     11.26      0.00
    1    7    6     -1.22      0.00
    1    7    7      2.04      0.00
    1    7    8      4.65      0.00
    1    7    9     -3.03      0.00
    1    7   10      0.14      0.00
    1    7   11      1.87      0.00
    1    7   12      1.34      0.00
    1    7   13      0.01      0.00
   -1    8   12      0.23      0.00
   -1    8   11     -0.92      0.00
   -1    8   10     -0.89      0.00
   -1    8    9     -0.20      0.00
   -1    8    8      5.61      0.00
   -1    8    7     -3.04      0.00
   -1    8    6     -2.63      0.00
   -1    8    5      2.56      0.00
   -1    8    4     -2.06      0.00
   -1    8    3     -9.04      0.00
   -1    8    2     -3.62      0.00
   -1    8    1     -9.50      0.00
    1    8    0     -1.13      0.00
    1    8    1     -4.94      0.00
    1    8    2     -2.56      0.00
    1    8    3    -14.03      0.00
    1    8    4     -4.97      0.00
    1    8    5      2.19      0.00
    1    8    6     -4.12      0.00
    1    8    7     -3.58      0.00
    1    8    8      2.32      0.00
    1    8    9      0.21      0.00
    1    8   10      0.50      0.00
    1    8   11     -0.37      0.00
    1    8   12      0.15      0.00
   -1    9   12      0.97      0.00
   -1    9   11      0.42      0.00
   -1    9   10     -1.16      0.00
   -1    9    9     -3.21      0.00
   -1    9    8      6.91      0.00
   -1    9    7     -4.29      0.00
   -1    9    6     -6.41      0.00
   -1    9    5      7.66      0.00
   -1    9    4      3.84      0.00
   -1    9    3     -5.40      0.00
   -1    9    2     20.06      0.00
   -1    9    1     12.62      0.00
    1    9    0    -10.19      0.00
    1    9    1     12.65      0.00
    1    9    2      4.99      0.00
    1    9    3     -2.65      0.00
    1    9    4     19.44      0.00
    1    9    5      8.15      0.00
    1    9    6    -10.19      0.00
    1    9    7      1.11      0.00
    1    9    8     10.78      0.00
    1    9    9     -3.28      0.00
    1    9   10     -2.02      0.00
    1    9   11      0.09      0.00
    1    9   12     -0.02      0.00
   -1   10   12     -0.50      0.00
   -1   10   11     -0.82      0.00
   -1   10   10      0.22      0.00
   -1   10    9     -1.15      0.00
   -1   10    8      3.69      0.00
   -1   10    7     -1.90      0.00
   -1   10    6      4.12      0.00
   -1   10    5     -2.06      0.00
   -1   10    4     -6.65      0.00
   -1   10    3     -2.90      0.00
   -1   10    2     -2.26      0.00
   -1   10    1     -3.06      0.00
    1   10    0     -2.93      0.00
    1   10    1      0.92      0.00
    1   10    2     -1.55      0.00
    1   10    3     -4.93      0.00
    1   10    4     -7.21      0.00
    1   10    5      0.72      0.00
    1   10    6     -1.39      0.00
    1   10    7     -3.75      0.00
    1   10    8      1.76      0.00
    1   10    9      0.66      0.00
    1   10   10     -0.33      0.00
    1   10   11      0.76      0.00
    1   10   12      1.03      0.00
   -1   11   11      0.17      0.00
   -1   11   10     -3.53      0.00
   -1   11    9     -3.87      0.00
   -1   11    8      7.71      0.00
   -1   11    7     -0.49      0.00
   -1   11    6     -4.88      0.00
   -1   11    5     -6.32      0.00
   -1   11    4      2.34      0.00
   -1   11    3      7.80      0.00
   -1   11    2     13.29      0.00
   -1   11    1     -3.46      0.00
    1   11    0    -16.29      0.00
    1   11    1     -1.87      0.00
    1   11    2     -2.30      0.00
    1   11    3      8.86      0.00
    1   11    4     11.82      0.00
    1   11    5     -2.00      0.00
    1   11    6     -7.83      0.00
    1   11    7      2.51      0.00
    1   11    8      7.65      0.00
    1   11    9     -3.00      0.00
    1   11   10     -0.59      0.00
    1   11   11      0.36      0.00
   -1   12   11      0.58      0.00
   -1   12   10     -0.17      0.00
   -1   12    9      1.53      0.00
   -1   12    8     -0.75      0.00
   -1   12    7     -0.44      0.00
   -1   12    6      4.63      0.00
   -1   12    5     -3.00      0.00
   -1   12    4     -4.83      0.00
   -1   12    3      1.19      0.00
   -1   12    2      1.81      0.00
   -1   12    1      2.82      0.00
    1   12    0     -1.28      0.00
    1   12    1      4.11      0.00
    1   12    2      2.17      0.00
    1   12    3      3.56      0.00
    1   12    4     -5.53      0.00
    1   12    5     -1.21      0.00
    1   12    6      1.53      0.00
    1   12    7     -1.51      0.00
    1   12    8      0.41      0.00
    1   12    9     -0.47      0.00
    1   12   10     -1.10      0.00
    1   12   11      1.33      0.00
   -1   13   10     -1.86      0.00
   -1   13    9      0.19      0.00
   -1   13    8      1.77      0.00
   -1   13    7      1.93      0.00
   -1   13    6     -1.55      0.00
   -1   13    5     -5.37      0.00
   -1   13    4     -1.01      0.00
   -1   13    3      6.32      0.00
   -1   13    2      6.98      0.00
   -1   13    1     -7.65      0.00
    1   13    0    -20.13      0.00
    1   13    1     -6.48      0.00
    1   13    2      0.50      0.00
    1   13    3      6.46      0.00
    1   13    4      1.52      0.00
    1   13    5     -2.36      0.00
    1   13    6     -2.37      0.00
    1   13    7      0.90      0.00
    1   13    8      1.04      0.00
    1   13    9      1.19      0.00
    1   13   10      0.21      0.00
   -1   14   10     -1.18      0.00
   -1   14    9      0.71      0.00
   -1   14    8     -3.72      0.00
   -1   14    7     -0.17      0.00
   -1   14    6      1.84      0.00
   -1   14    5     -0.71      0.00
   -1   14    4     -3.05      0.00
   -1   14    3      1.46      0.00
   -1   14    2      1.84      0.00
   -1   14    1      4.08      0.00
    1   14    0     -1.69      0.00
    1   14    1      2.64      0.00
    1   14    2      6.11      0.00
    1   14    3      4.78      0.00
    1   14    4     -4.38      0.00
    1   14    5     -2.36      0.00
    1   14    6      1.05      0.00
    1   14    7     -0.90      0.00
    1   14    8     -2.21      0.00
    1   14    9      0.90      0.00
    1   14   10     -0.20      0.00
   -1   15    9      2.78      0.00
   -1   15    8     -1.78      0.00
   -1   15    7     -0.07      0.00
   -1   15    6      0.07      0.00
   -1   15    5     -0.65      0.00
   -1   15    4     -1.73      0.00
   -1   15    3      1.46      0.00
   -1   15    2      1.76      0.00
   -1   15    1     -2.88      0.00
    1   15    0     -8.82      0.00
    1   15    1     -3.40      0.00
    1   15    2      1.12      0.00
    1   15    3      0.44      0.00
    1   15    4     -2.93      0.00
    1   15    5      0.30      0.00
    1   15    6     -0.03      0.00
    1   15    7     -1.87      0.00
    1   15    8     -1.03      0.00
    1   15    9      4.34      0.00
   -1   16    8     -1.05      0.00
   -1   16    7      0.78      0.00
   -1   16    6     -0.39      0.00
   -1   16    5      0.05      0.00
   -1   16    4      0.60      0.00
   -1   16    3      0.89      0.00
   -1   16    2     -0.79      0.00
   -1   16    1      0.50      0.00
    1   16    0     -1.66      0.00
    1   16    1     -0.42      0.00
    1   16    2      3.66      0.00
    1   16    3      4.12      0.00
    1   16    4     -0.91      0.00
    1   16    5     -0.60      0.00
    1   16    6      1.15      0.00
    1   16    7     -0.34      0.00
    1   16    8     -1.84      0.00
   -1   17    7     -0.48      0.00
   -1   17    6     -1.53      0.00
   -1   17    5      0.97      0.00
   -1   17    4      0.99      0.00
   -1   17    3     -1.21      0.00
   -1   17    2     -2.07      0.00
   -1   17    1     -0.58      0.00
    1   17    0      0.77      0.00
    1   17    1     -0.93      0.00
    1   17    2     -1.94      0.00
    1   17    3     -1.35      0.00
    1   17    4      0.05      0.00
    1   17    5      0.84      0.00
    1   17    6     -0.13      0.00
    1   17    7     -2.08      0.00
   -1   18    6     -1.22      0.00
   -1   18    5     -0.75      0.00
   -1   18    4      1.02      0.00
   -1   18    3      1.61      0.00
   -1   18    2      0.72      0.00
   -1   18    1     -0.27      0.00
    1   18    0      0.12      0.00
    1   18    1     -0.50      0.00
    1   18    2      0.82      0.00
    1   18    3      1.29      0.00
    1   18    4      1.27      0.00
    1   18    5     -0.87      0.00
    1   18    6     -1.17      0.00
   -1   19    4      1.68      0.00
   -1   19    3     -0.51      0.00
   -1   19    2     -2.32      0.00
   -1   19    1      0.50      0.00
    1   19    0      2.82      0.00
    1   19    1      0.15      0.00
    1   19    2     -1.50      0.00
    1   19    3     -1.03      0.00
    1   19    4     -0.14      0.00
   -1   20    1     -1.21      0.00
    1   20    0      0.09      0.00
    1   20    1     -0.82      0.00
   -2    0   12      2.62      0.00
   -2    0   10      6.72      0.00
   -2    0    8     -4.42      0.00
   -2    0    6     -7.88      0.00
   -2    0    4     20.51      0.00
   -2    0    2    -61.30      0.00
    2    0    0    106.72      0.00
    2    0    2     31.89      0.00
    2    0    4      3.46      0.00
    2    0    6     11.47      0.00
    2    0    8     -1.03      0.00
    2    0   10     -4.38      0.00
    2    0   12      4.33      0.00
   -2    1   13     -0.59      0.00
   -2    1   12     -0.69      0.00
   -2    1   11     -0.55      0.00
   -2    1   10      0.88      0.00
   -2    1    9     -6.30      0.00
   -2    1    8      1.13      0.00
   -2    1    7      7.16      0.00
   -2    1    6      5.66      0.00
   -2    1    5    -17.21      0.00
   -2    1    4     -3.48      0.00
   -2    1    3     11.38      0.00
   -2    1    2      4.62      0.00
   -2    1    1    -22.14      0.00
    2    1    0      0.98      0.00
    2    1    1    -41.43      0.00
    2    1    2    -15.04      0.00
    2    1    3    -21.12      0.00
    2    1    4     -5.30      0.00
    2    1    5     -9.49      0.00
    2    1    6     -3.48      0.00
    2    1    7      5.20      0.00
    2    1    8      2.62      0.00
    2    1    9      0.54      0.00
    2    1   10      0.44      0.00
    2    1   11     -1.74      0.00
    2    1   12     -0.90      0.00
    2    1   13      0.97      0.00
   -2    2   13     -1.80      0.00
   -2    2   12      0.87      0.00
   -2    2   11      5.03      0.00
   -2    2   10      8.04      0.00
   -2    2    9     -8.19      0.00
   -2    2    8    -10.12      0.00
   -2    2    7     -1.69      0.00
   -2    2    6     -4.18      0.00
   -2    2    5     -2.06      0.00
   -2    2    4     14.08      0.00
   -2    2    3     -0.68      0.00
   -2    2    2    -52.12      0.00
   -2    2    1    -11.74      0.00
    2    2    0     67.41      0.00
    2    2    1      1.48      0.00
    2    2    2     31.63      0.00
    2    2    3     26.61      0.00
    2    2    4     -1.73      0.00
    2    2    5      0.56      0.00
    2    2    6     14.93      0.00
    2    2    7      7.75      0.00
    2    2    8     -6.15      0.00
    2    2    9     -7.49      0.00
    2    2   10     -3.20      0.00
    2    2   11      1.64      0.00
    2    2   12      1.73      0.00
    2    2   13     -0.56      0.00
   -2    3   13     -0.08      0.00
   -2    3   12     -1.21      0.00
   -2    3   11     -0.65      0.00
   -2    3   10     -0.58      0.00
   -2    3    9     -0.57      0.00
   -2    3    8      7.47      0.00
   -2    3    7      1.41      0.00
   -2    3    6      4.51      0.00
   -2    3    5      2.99      0.00
   -2    3    4     -4.17      0.00
   -2    3    3      7.58      0.00
   -2    3    2      7.60      0.00
   -2    3    1      1.87      0.00
    2    3    0      2.24      0.00
    2    3    1    -22.41      0.00
    2    3    2    -23.64      0.00
    2    3    3    -11.75      0.00
    2    3    4     -8.22      0.00
    2    3    5     -6.08      0.00
    2    3    6    -10.13      0.00
    2    3    7      3.82      0.00
    2    3    8      3.31      0.00
    2    3    9      0.57      0.00
    2    3   10      1.31      0.00
    2    3   11      0.44      0.00
    2    3   12     -1.45      0.00
    2    3   13      0.39      0.00
   -2    4   13     -1.47      0.00
   -2    4   12     -0.76      0.00
   -2    4   11      5.54      0.00
   -2    4   10      5.53      0.00
   -2    4    9     -6.14      0.00
   -2    4    8     -8.18      0.00
   -2    4    7     -5.63      0.00
   -2    4    6      6.05      0.00
   -2    4    5     -3.77      0.00
   -2    4    4     -2.33      0.00
   -2    4    3      0.25      0.00
   -2    4    2    -21.57      0.00
   -2    4    1      3.05      0.00
    2    4    0      3.20      0.00
    2    4    1     17.10      0.00
    2    4    2     22.33      0.00
    2    4    3     17.51      0.00
    2    4    4    -16.64      0.00
    2    4    5     -2.83      0.00
    2    4    6     15.06      0.00
    2    4    7     12.90      0.00
    2    4    8     -7.78      0.00
    2    4    9     -8.54      0.00
    2    4   10     -1.55      0.00
    2    4   11      1.14      0.00
    2    4   12      0.75      0.00
    2    4   13     -0.03      0.00
   -2    5   13      0.51      0.00
   -2    5   12     -0.38      0.00
   -2    5   11     -1.46      0.00
   -2    5   10     -3.25      0.00
   -2    5    9      2.41      0.00
   -2    5    8      9.08      0.00
   -2    5    7     -4.99      0.00
   -2    5    6      0.69      0.00
   -2    5    5      8.38      0.00
   -2    5    4      0.15      0.00
   -2    5    3     -1.08      0.00
   -2    5    2      3.61      0.00
   -2    5    1     15.68      0.00
    2    5    0     -0.24      0.00
    2    5    1      2.85      0.00
    2    5    2    -13.39      0.00
    2    5    3     -1.56      0.00
    2    5    4     -3.32      0.00
    2    5    5     -0.01      0.00
    2    5    6     -6.86      0.00
    2    5    7      2.40      0.00
    2    5    8      1.77      0.00
    2    5    9     -0.28      0.00
    2    5   10      2.18      0.00
    2    5   11      0.98      0.00
    2    5   12     -0.97      0.00
    2    5   13      0.16      0.00
   -2    6   13     -1.79      0.00
   -2    6   12      0.20      0.00
   -2    6   11      2.41      0.00
   -2    6   10      0.43      0.00
   -2    6    9     -0.79      0.00
   -2    6    8     -1.87      0.00
   -2    6    7     -7.64      0.00
   -2    6    6      8.96      0.00
   -2    6    5      2.82      0.00
   -2    6    4    -11.51      0.00
   -2    6    3     -9.13      0.00
   -2    6    2      7.31      0.00
   -2    6    1     15.17      0.00
    2    6    0    -25.75      0.00
    2    6    1     26.82      0.00
    2    6    2      4.23      0.00
    2    6    3     -9.40      0.00
    2    6    4    -11.13      0.00
    2    6    5      2.28      0.00
    2    6    6      4.16      0.00
    2    6    7      4.68      0.00
    2    6    8     -2.30      0.00
    2    6    9     -5.54      0.00
    2    6   10     -1.21      0.00
    2    6   11     -0.49      0.00
    2    6   12     -0.02      0.00
    2    6   13      1.30      0.00
   -2    7   13     -0.61      0.00
   -2    7   12      1.22      0.00
   -2    7   11     -0.53      0.00
   -2    7   10     -3.44      0.00
   -2    7    9      3.68      0.00
   -2    7    8      4.45      0.00
   -2    7    7     -3.45      0.00
   -2    7    6     -2.54      0.00
   -2    7    5      2.52      0.00
   -2    7    4      4.48      0.00
   -2    7    3     -0.12      0.00
   -2    7    2      1.23      0.00
   -2    7    1     12.82      0.00
    2    7    0     -4.45      0.00
    2    7    1     13.79      0.00
    2    7    2      1.08      0.00
    2    7    3     -2.13      0.00
    2    7    4      1.05      0.00
    2    7    5      4.53      0.00
    2    7    6      0.39      0.00
    2    7    7     -1.38      0.00
    2    7    8      0.48      0.00
    2    7    9      3.05      0.00
    2    7   10      2.30      0.00
    2    7   11      0.83      0.00
    2    7   12     -0.73      0.00
   -2    8   12     -1.16      0.00
   -2    8   11      0.92      0.00
   -2    8   10     -3.93      0.00
   -2    8    9      2.45      0.00
   -2    8    8     -1.11      0.00
   -2    8    7     -3.48      0.00
   -2    8    6     -1.07      0.00
   -2    8    5      9.44      0.00
   -2    8    4    -10.75      0.00
   -2    8    3    -15.59      0.00
   -2    8    2     10.23      0.00
   -2    8    1     10.50      0.00
    2    8    0    -18.62      0.00
    2    8    1     12.61      0.00
    2    8    2    -11.92      0.00
    2    8    3    -17.35      0.00
    2    8    4      9.80      0.00
    2    8    5      0.28      0.00
    2    8    6    -10.84      0.00
    2    8    7      1.38      0.00
    2    8    8      3.55      0.00
    2    8    9     -2.40      0.00
    2    8   10     -2.08      0.00
    2    8   11      0.16      0.00
    2    8   12     -0.22      0.00
   -2    9   12      1.03      0.00
   -2    9   11      0.74      0.00
   -2    9   10     -2.79      0.00
   -2    9    9      3.40      0.00
   -2    9    8     -1.18      0.00
   -2    9    7      0.48      0.00
   -2    9    6     -3.83      0.00
   -2    9    5      1.22      0.00
   -2    9    4      0.77      0.00
   -2    9    3      7.23      0.00
   -2    9    2      2.52      0.00
   -2    9    1      3.66      0.00
    2    9    0     -2.43      0.00
    2    9    1     10.29      0.00
    2    9    2      7.44      0.00
    2    9    3     -3.91      0.00
    2    9    4      5.68      0.00
    2    9    5      8.19      0.00
    2    9    6      2.41      0.00
    2    9    7     -0.15      0.00
    2    9    8      0.94      0.00
    2    9    9      2.21      0.00
    2    9   10     -0.98      0.00
    2    9   11      0.20      0.00
    2    9   12      0.75      0.00
   -2   10   12     -2.49      0.00
   -2   10   11      1.64      0.00
   -2   10   10     -4.24      0.00
   -2   10    9      0.49      0.00
   -2   10    8      0.86      0.00
   -2   10    7      3.80      0.00
   -2   10    6     -4.70      0.00
   -2   10    5      1.77      0.00
   -2   10    4     -8.84      0.00
   -2   10    3     -3.52      0.00
   -2   10    2      8.60      0.00
   -2   10    1     -0.60      0.00
    2   10    0     -7.47      0.00
    2   10    1     -2.65      0.00
    2   10    2    -10.71      0.00
    2   10    3     -5.07      0.00
    2   10    4     14.06      0.00
    2   10    5     -6.47      0.00
    2   10    6    -12.76      0.00
    2   10    7      1.51      0.00
    2   10    8      4.41      0.00
    2   10    9     -1.28      0.00
    2   10   10     -1.71      0.00
    2   10   11      0.22      0.00
   -2   11   11      0.19      0.00
   -2   11   10     -0.27      0.00
   -2   11    9      0.21      0.00
   -2   11    8     -5.16      0.00
   -2   11    7      1.65      0.00
   -2   11    6      1.66      0.00
   -2   11    5      0.96      0.00
   -2   11    4     -4.92      0.00
   -2   11    3      3.87      0.00
   -2   11    2      3.35      0.00
   -2   11    1     -0.31      0.00
    2   11    0     -0.25      0.00
    2   11    1     -1.36      0.00
    2   11    2      5.30      0.00
    2   11    3     -3.27      0.00
    2   11    4      2.28      0.00
    2   11    5      2.77      0.00
    2   11    6      3.28      0.00
    2   11    7      0.35      0.00
    2   11    8      1.70      0.00
    2   11    9      0.27      0.00
    2   11   10     -1.89      0.00
    2   11   11      1.08      0.00
   -2   12   11      0.02      0.00
   -2   12   10     -1.07      0.00
   -2   12    9     -1.23      0.00
   -2   12    8      2.79      0.00
   -2   12    7      4.24      0.00
   -2   12    6     -3.12      0.00
   -2   12    5     -4.49      0.00
   -2   12    4     -2.89      0.00
   -2   12    3      6.03      0.00
   -2   12    2     12.04      0.00
   -2   12    1     -7.04      0.00
    2   12    0     -5.31      0.00
    2   12    1     -6.58      0.00
    2   12    2      1.79      0.00
    2   12    3      4.56      0.00
    2   12    4      9.11      0.00
    2   12    5     -4.99      0.00
    2   12    6     -3.37      0.00
    2   12    7      1.54      0.00
    2   12    8      0.98      0.00
    2   12    9     -0.45      0.00
    2   12   10     -1.29      0.00
    2   12   11     -0.43      0.00
   -2   13   10      0.32      0.00
   -2   13    9     -0.24      0.00
   -2   13    8     -3.39      0.00
   -2   13    7      0.28      0.00
   -2   13    6      2.70      0.00
   -2   13    5      0.33      0.00
   -2   13    4     -4.66      0.00
   -2   13    3      0.00      0.00
   -2   13    2      0.45      0.00
   -2   13    1     -1.68      0.00
    2   13    0     -2.92      0.00
    2   13    1     -7.78      0.00
    2   13    2      3.53      0.00
    2   13    3     -0.13      0.00
    2   13    4     -2.68      0.00
    2   13    5     -2.06      0.00
    2   13    6      2.46      0.00
    2   13    7     -0.72      0.00
    2   13    8     -0.90      0.00
    2   13    9     -0.12      0.00
    2   13   10      0.21      0.00
   -2   14    9      0.33      0.00
   -2   14    8      1.45      0.00
   -2   14    7      0.74      0.00
   -2   14    6      0.22      0.00
   -2   14    5     -2.49      0.00
   -2   14    4     -0.90      0.00
   -2   14    3      5.23      0.00
   -2   14    2      8.85      0.00
   -2   14    1     -4.43      0.00
    2   14    0     -4.39      0.00
    2   14    1     -1.51      0.00
    2   14    2      5.80      0.00
    2   14    3      4.39      0.00
    2   14    4      3.09      0.00
    2   14    5      0.18      0.00
    2   14    6     -1.07      0.00
    2   14    7     -1.69      0.00
    2   14    8     -1.56      0.00
    2   14    9      1.32      0.00
   -2   15    9      0.50      0.00
   -2   15    8     -2.01      0.00
   -2   15    7     -2.58      0.00
   -2   15    6      1.05      0.00
   -2   15    5      0.38      0.00
   -2   15    4     -1.14      0.00
   -2   15    3      0.02      0.00
   -2   15    2     -2.21      0.00
   -2   15    1      0.25      0.00
    2   15    0     -3.81      0.00
    2   15    1     -5.44      0.00
    2   15    2      1.03      0.00
    2   15    3      2.29      0.00
    2   15    4     -4.41      0.00
    2   15    5     -1.18      0.00
    2   15    6      1.53      0.00
    2   15    7      0.24      0.00
    2   15    8      0.31      0.00
    2   15    9      0.59      0.00
   -2   16    8      1.32      0.00
   -2   16    7     -1.11      0.00
   -2   16    6      1.40      0.00
   -2   16    5      0.48      0.00
   -2   16    4     -0.19      0.00
   -2   16    3      0.52      0.00
   -2   16    2      1.80      0.00
   -2   16    1     -0.82      0.00
    2   16    0     -0.69      0.00
    2   16    1     -0.02      0.00
    2   16    2      2.03      0.00
    2   16    3      1.89      0.00
    2   16    4      1.54      0.00
    2   16    5      3.76      0.00
    2   16    6     -0.01      0.00
    2   16    7     -3.87      0.00
    2   16    8     -1.14      0.00
   -2   17    7     -1.93      0.00
   -2   17    6      0.09      0.00
   -2   17    5     -2.13      0.00
   -2   17    4      0.33      0.00
   -2   17    3      0.78      0.00
   -2   17    2     -1.04      0.00
   -2   17    1     -0.40      0.00
    2   17    0     -0.44      0.00
    2   17    1     -2.11      0.00
    2   17    2     -0.25      0.00
    2   17    3      0.78      0.00
    2   17    4     -1.41      0.00
    2   17    5     -0.60      0.00
    2   17    6     -0.73      0.00
    2   17    7     -1.30      0.00
   -2   18    5      0.32      0.00
   -2   18    4      2.22      0.00
   -2   18    3      0.36      0.00
   -2   18    2     -1.95      0.00
   -2   18    1      0.58      0.00
    2   18    0      1.51      0.00
    2   18    1      0.32      0.00
    2   18    2     -0.56      0.00
    2   18    3      0.34      0.00
    2   18    4     -0.07      0.00
    2   18    5      1.27      0.00
   -2   19    4     -0.12      0.00
   -2   19    3      0.25      0.00
   -2   19    2     -1.47      0.00
   -2   19    1      0.89      0.00
    2   19    0     -0.63      0.00
    2   19    1     -0.07      0.00
    2   19    2     -1.68      0.00
    2   19    3      0.89      0.00
   -3    0   13     -1.63      0.00
   -3    0   11      7.14      0.00
   -3    0    9     -0.25      0.00
   -3    0    7      6.81      0.00
   -3    0    5     -4.36      0.00
   -3    0    3     20.72      0.00
   -3    0    1     -1.60      0.00
    3    0    1     18.55      0.00
    3    0    3     24.05      0.00
    3    0    5      4.93      0.00
    3    0    7     -1.61      0.00
    3    0    9     -0.51      0.00
    3    0   11     -0.23      0.00
    3    0   13      1.51      0.00
   -3    1   13     -1.47      0.00
   -3    1   12     -4.24      0.00
   -3    1   11      2.00      0.00
   -3    1   10      1.51      0.00
   -3    1    9     -0.48      0.00
   -3    1    8     -5.47      0.00
   -3    1    7      2.14      0.00
   -3    1    6     -3.30      0.00
   -3    1    5      0.16      0.00
   -3    1    4    -15.14      0.00
   -3    1    3      5.59      0.00
   -3    1    2    -40.73      0.00
   -3    1    1     -2.02      0.00
    3    1    0     16.48      0.00
    3    1    1     -6.76      0.00
    3    1    2    -13.22      0.00
    3    1    3     -1.31      0.00
    3    1    4    -35.26      0.00
    3    1    5    -12.17      0.00
    3    1    6      8.05      0.00
    3    1    7      4.41      0.00
    3    1    8      5.32      0.00
    3    1    9     -2.55      0.00
    3    1   10     -3.16      0.00
    3    1   11      1.04      0.00
    3    1   12      1.39      0.00
    3    1   13     -0.41      0.00
   -3    2   13     -0.30      0.00
   -3    2   12      0.70      0.00
   -3    2   11      3.25      0.00
   -3    2   10     -1.48      0.00
   -3    2    9      2.26      0.00
   -3    2    8     -2.97      0.00
   -3    2    7      3.65      0.00
   -3    2    6      2.68      0.00
   -3    2    5     -6.16      0.00
   -3    2    4     -7.47      0.00
   -3    2    3      1.57      0.00
   -3    2    2     -4.10      0.00
   -3    2    1     -0.25      0.00
    3    2    0      1.84      0.00
    3    2    1     10.98      0.00
    3    2    2      3.70      0.00
    3    2    3     19.36      0.00
    3    2    4     18.97      0.00
    3    2    5      3.60      0.00
    3    2    6      3.64      0.00
    3    2    7      0.82      0.00
    3    2    8      0.91      0.00
    3    2    9     -0.68      0.00
    3    2   10     -1.40      0.00
    3    2   11     -0.56      0.00
    3    2   12     -0.36      0.00
    3    2   13      0.12      0.00
   -3    3   13     -3.20      0.00
   -3    3   12     -3.11      0.00
   -3    3   11      3.44      0.00
   -3    3   10      5.39      0.00
   -3    3    9     -0.90      0.00
   -3    3    8     -7.85      0.00
   -3    3    7      5.02      0.00
   -3    3    6     -2.95      0.00
   -3    3    5      3.20      0.00
   -3    3    4     17.23      0.00
   -3    3    3      3.66      0.00
   -3    3    2    -18.79      0.00
   -3    3    1     -4.47      0.00
    3    3    0      3.03      0.00
    3    3    1    -10.58      0.00
    3    3    2      8.40      0.00
    3    3    3     -4.90      0.00
    3    3    4    -30.22      0.00
    3    3    5    -25.83      0.00
    3    3    6      8.02      0.00
    3    3    7     10.54      0.00
    3    3    8      0.19      0.00
    3    3    9     -5.32      0.00
    3    3   10     -0.73      0.00
    3    3   11      0.46      0.00
    3    3   12      1.56      0.00
    3    3   13      0.52      0.00
   -3    4   13      0.84      0.00
   -3    4   12      1.83      0.00
   -3    4   11     -0.70      0.00
   -3    4   10     -2.50      0.00
   -3    4    9      2.72      0.00
   -3    4    8      0.76      0.00
   -3    4    7     -0.09      0.00
   -3    4    6     -4.67      0.00
   -3    4    5      2.02      0.00
   -3    4    4     -8.61      0.00
   -3    4    3    -12.62      0.00
   -3    4    2     10.13      0.00
   -3    4    1      0.85      0.00
    3    4    0      8.13      0.00
    3    4    1     -5.78      0.00
    3    4    2      5.23      0.00
    3    4    3      9.32      0.00
    3    4    4     20.46      0.00
    3    4    5      0.83      0.00
    3    4    6      2.21      0.00
    3    4    7      3.88      0.00
    3    4    8     -0.03      0.00
    3    4    9     -2.22      0.00
    3    4   10      0.88      0.00
    3    4   11     -0.87      0.00
    3    4   12     -1.45      0.00
    3    4   13      0.10      0.00
   -3    5   13     -2.50      0.00
   -3    5   12     -1.46      0.00
   -3    5   11      0.75      0.00
   -3    5   10      4.74      0.00
   -3    5    9      1.51      0.00
   -3    5    8     -5.64      0.00
   -3    5    7     -3.10      0.00
   -3    5    6      1.33      0.00
   -3    5    5      9.95      0.00
   -3    5    4      0.13      0.00
   -3    5    3     -6.66      0.00
   -3    5    2      6.43      0.00
   -3    5    1     11.55      0.00
    3    5    0      0.43      0.00
    3    5    1      5.15      0.00
    3    5    2     17.57      0.00
    3    5    3    -10.82      0.00
    3    5    4    -16.75      0.00
    3    5    5    -15.09      0.00
    3    5    6      3.94      0.00
    3    5    7      7.40      0.00
    3    5    8     -0.75      0.00
    3    5    9     -3.56      0.00
    3    5   10      1.64      0.00
    3    5   11     -0.87      0.00
    3    5   12      1.27      0.00
   -3    6   12      2.70      0.00
   -3    6   11     -1.24      0.00
   -3    6   10     -5.05      0.00
   -3    6    9      2.98      0.00
   -3    6    8      5.50      0.00
   -3    6    7     -2.35      0.00
   -3    6    6     -3.28      0.00
   -3    6    5     10.77      0.00
   -3    6    4     -3.83      0.00
   -3    6    3     -6.98      0.00
   -3    6    2     -1.94      0.00
   -3    6    1     -0.58      0.00
    3    6    0      3.89      0.00
    3    6    1     -7.03      0.00
    3    6    2      4.40      0.00
    3    6    3     -3.65      0.00
    3    6    4      4.49      0.00
    3    6    5      2.19      0.00
    3    6    6      2.42      0.00
    3    6    7      1.00      0.00
    3    6    8     -1.29      0.00
    3    6    9     -1.46      0.00
    3    6   10      2.05      0.00
    3    6   11     -1.36      0.00
    3    6   12     -2.01      0.00
   -3    7   12      0.49      0.00
   -3    7   11      0.28      0.00
   -3    7   10     -1.63      0.00
   -3    7    9      2.41      0.00
   -3    7    8     -1.38      0.00
   -3    7    7     -9.19      0.00
   -3    7    6      1.62      0.00
   -3    7    5      9.41      0.00
   -3    7    4    -14.17      0.00
   -3    7    3     -5.53      0.00
   -3    7    2     17.28      0.00
   -3    7    1     15.90      0.00
    3    7    0      2.37      0.00
    3    7    1     14.03      0.00
    3    7    2      3.15      0.00
    3    7    3    -10.03      0.00
    3    7    4      5.23      0.00
    3    7    5      0.63      0.00
    3    7    6     -3.21      0.00
    3    7    7      3.33      0.00
    3    7    8     -0.04      0.00
    3    7    9     -0.80      0.00
    3    7   10      1.81      0.00
    3    7   11     -1.31      0.00
    3    7   12      1.53      0.00
   -3    8   12      0.98      0.00
   -3    8   11      0.58      0.00
   -3    8   10     -3.41      0.00
   -3    8    9      1.10      0.00
   -3    8    8      5.74      0.00
   -3    8    7     -0.30      0.00
   -3    8    6     -0.13      0.00
   -3    8    5      1.31      0.00
   -3    8    4     -0.69      0.00
   -3    8    3     -1.76      0.00
   -3    8    2     -6.14      0.00
   -3    8    1     -6.00      0.00
    3    8    0     -3.71      0.00
    3    8    1      2.11      0.00
    3    8    2      1.60      0.00
    3    8    3    -12.02      0.00
    3    8    4     -3.90      0.00
    3    8    5      4.00      0.00
    3    8    6     -2.43      0.00
    3    8    7     -2.26      0.00
    3    8    8      0.11      0.00
    3    8    9     -0.33      0.00
    3    8   10      1.23      0.00
    3    8   11     -0.90      0.00
    3    8   12     -0.76      0.00
   -3    9   11      0.86      0.00
   -3    9   10     -5.44      0.00
   -3    9    9     -0.59      0.00
   -3    9    8      3.05      0.00
   -3    9    7     -5.36      0.00
   -3    9    6     -0.36      0.00
   -3    9    5      1.96      0.00
   -3    9    4     -7.90      0.00
   -3    9    3     -3.62      0.00
   -3    9    2     13.80      0.00
   -3    9    1      3.05      0.00
    3    9    0      6.58      0.00
    3    9    1      6.54      0.00
    3    9    2     -9.87      0.00
    3    9    3      0.99      0.00
    3    9    4     16.69      0.00
    3    9    5      3.48      0.00
    3    9    6     -7.07      0.00
    3    9    7      4.34      0.00
    3    9    8      2.61      0.00
    3    9    9     -0.45      0.00
    3    9   10      0.48      0.00
    3    9   11     -0.80      0.00
   -3   10   11      0.74      0.00
   -3   10   10      1.95      0.00
   -3   10    9     -1.18      0.00
   -3   10    8      0.86      0.00
   -3   10    7      0.02      0.00
   -3   10    6      5.22      0.00
   -3   10    5     -1.60      0.00
   -3   10    4     -1.21      0.00
   -3   10    3     -0.09      0.00
   -3   10    2     -0.13      0.00
   -3   10    1     -7.72      0.00
    3   10    0     -1.57      0.00
    3   10    1      4.47      0.00
    3   10    2     -1.86      0.00
    3   10    3     -7.57      0.00
    3   10    4     -4.47      0.00
    3   10    5      0.95      0.00
    3   10    6     -3.42      0.00
    3   10    7     -1.41      0.00
    3   10    8      1.60      0.00
    3   10    9     -1.95      0.00
    3   10   10     -0.45      0.00
    3   10   11      0.51      0.00
   -3   11   11     -1.63      0.00
   -3   11   10     -1.44      0.00
   -3   11    9     -1.18      0.00
   -3   11    8      1.87      0.00
   -3   11    7     -1.85      0.00
   -3   11    6      1.53      0.00
   -3   11    5     -5.48      0.00
   -3   11    4     -3.09      0.00
   -3   11    3      2.77      0.00
   -3   11    2     11.15      0.00
   -3   11    1     -3.28      0.00
    3   11    0      1.43      0.00
    3   11    1     -1.61      0.00
    3   11    2    -11.10      0.00
    3   11    3      6.74      0.00
    3   11    4     12.98      0.00
    3   11    5      0.61      0.00
    3   11    6     -5.56      0.00
    3   11    7      2.41      0.00
    3   11    8      2.69      0.00
    3   11    9     -0.63      0.00
    3   11   10      0.08      0.00
   -3   12   10      2.76      0.00
   -3   12    9     -0.33      0.00
   -3   12    8     -3.48      0.00
   -3   12    7     -0.57      0.00
   -3   12    6      7.16      0.00
   -3   12    5     -1.03      0.00
   -3   12    4     -2.31      0.00
   -3   12    3     -1.68      0.00
   -3   12    2     -0.71      0.00
   -3   12    1     -0.38      0.00
    3   12    0     -2.35      0.00
    3   12    1      1.68      0.00
    3   12    2      2.13      0.00
    3   12    3      1.21      0.00
    3   12    4     -3.66      0.00
    3   12    5     -0.32      0.00
    3   12    6      1.53      0.00
    3   12    7     -0.40      0.00
    3   12    8      1.31      0.00
    3   12    9     -2.28      0.00
    3   12   10     -0.74      0.00
   -3   13    9      0.62      0.00
   -3   13    8     -0.69      0.00
   -3   13    7      2.21      0.00
   -3   13    6      2.75      0.00
   -3   13    5     -6.47      0.00
   -3   13    4      1.56      0.00
   -3   13    3      5.53      0.00
   -3   13    2      9.19      0.00
   -3   13    1     -6.58      0.00
    3   13    0     -5.48      0.00
    3   13    1     -4.56      0.00
    3   13    2     -3.65      0.00
    3   13    3      3.35      0.00
    3   13    4      3.96      0.00
    3   13    5     -0.81      0.00
    3   13    6     -0.59      0.00
    3   13    7     -1.15      0.00
    3   13    8     -0.86      0.00
    3   13    9      0.41      0.00
   -3   14    9      0.83      0.00
   -3   14    8     -2.12      0.00
   -3   14    7      0.33      0.00
   -3   14    6      1.62      0.00
   -3   14    5     -0.79      0.00
   -3   14    4     -1.12      0.00
   -3   14    3     -1.25      0.00
   -3   14    2      0.56      0.00
   -3   14    1      3.11      0.00
    3   14    0     -3.46      0.00
    3   14    1     -2.23      0.00
    3   14    2      3.84      0.00
    3   14    3      4.94      0.00
    3   14    4     -0.97      0.00
    3   14    5     -0.35      0.00
    3   14    6      2.15      0.00
    3   14    7     -0.80      0.00
    3   14    8      0.26      0.00
    3   14    9     -1.16      0.00
   -3   15    8     -1.59      0.00
   -3   15    7     -0.31      0.00
   -3   15    6      1.34      0.00
   -3   15    5     -0.66      0.00
   -3   15    4     -0.64      0.00
   -3   15    3      1.20      0.00
   -3   15    2      5.03      0.00
   -3   15    1     -3.27      0.00
    3   15    0     -3.24      0.00
    3   15    1     -1.57      0.00
    3   15    2     -0.37      0.00
    3   15    3     -1.12      0.00
    3   15    4      0.24      0.00
    3   15    5      0.74      0.00
    3   15    6      1.34      0.00
    3   15    7     -2.78      0.00
    3   15    8     -0.81      0.00
   -3   16    7      0.20      0.00
   -3   16    6      0.30      0.00
   -3   16    5      1.09      0.00
   -3   16    4      0.44      0.00
   -3   16    3      0.53      0.00
   -3   16    2     -2.22      0.00
   -3   16    1      1.83      0.00
    3   16    0     -3.07      0.00
    3   16    1     -1.01      0.00
    3   16    2      3.02      0.00
    3   16    3      3.16      0.00
    3   16    4      0.33      0.00
    3   16    5      0.79      0.00
    3   16    6      1.10      0.00
    3   16    7     -0.40      0.00
   -3   17    6     -0.92      0.00
   -3   17    5      0.40      0.00
   -3   17    4     -0.72      0.00
   -3   17    3     -0.29      0.00
   -3   17    2     -0.90      0.00
   -3   17    1      0.72      0.00
    3   17    0     -0.13      0.00
    3   17    1      0.55      0.00
    3   17    2     -0.29      0.00
    3   17    3     -2.87      0.00
    3   17    4     -1.80      0.00
    3   17    5      2.00      0.00
    3   17    6      0.19      0.00
   -3   18    4      1.07      0.00
   -3   18    3      0.92      0.00
   -3   18    2     -1.68      0.00
   -3   18    1      0.62      0.00
    3   18    0      0.11      0.00
    3   18    1     -1.63      0.00
    3   18    2      0.39      0.00
    3   18    3      1.48      0.00
    3   18    4      0.96      0.00
   -3   19    2     -2.11      0.00
   -3   19    1      1.40      0.00
    3   19    0      1.76      0.00
    3   19    1      0.37      0.00
   -4    0   12     -2.48      0.00
   -4    0   10      2.97      0.00
   -4    0    8      3.84      0.00
   -4    0    6      3.17      0.00
   -4    0    4     12.94      0.00
   -4    0    2    -37.27      0.00
    4    0    0      4.40      0.00
    4    0    2     30.22      0.00
    4    0    4     -6.15      0.00
    4    0    6      2.58      0.00
    4    0    8      3.13      0.00
    4    0   10     -2.08      0.00
    4    0   12      2.06      0.00
   -4    1   12     -0.32      0.00
   -4    1   11      1.36      0.00
   -4    1   10     -0.23      0.00
   -4    1    9     -2.73      0.00
   -4    1    8     -1.50      0.00
   -4    1    7      3.08      0.00
   -4    1    6      5.91      0.00
   -4    1    5    -21.75      0.00
   -4    1    4     -3.58      0.00
   -4    1    3      4.43      0.00
   -4    1    2      2.41      0.00
   -4    1    1      2.30      0.00
    4    1    0      1.85      0.00
    4    1    1     -8.40      0.00
    4    1    2     -9.79      0.00
    4    1    3     -7.88      0.00
    4    1    4     -0.75      0.00
    4    1    5     -7.15      0.00
    4    1    6     -4.92      0.00
    4    1    7     -2.47      0.00
    4    1    8      0.64      0.00
    4    1    9      3.20      0.00
    4    1   10     -1.11      0.00
    4    1   11     -2.41      0.00
    4    1   12     -0.04      0.00
   -4    2   12     -2.41      0.00
   -4    2   11      3.65      0.00
   -4    2   10      4.09      0.00
   -4    2    9     -1.03      0.00
   -4    2    8      2.32      0.00
   -4    2    7     -1.53      0.00
   -4    2    6     -4.66      0.00
   -4    2    5     -1.90      0.00
   -4    2    4     14.24      0.00
   -4    2    3      1.29      0.00
   -4    2    2    -29.56      0.00
   -4    2    1     -2.45      0.00
    4    2    0     -6.48      0.00
    4    2    1     -2.09      0.00
    4    2    2     27.09      0.00
    4    2    3     20.34      0.00
    4    2    4     -7.11      0.00
    4    2    5     -4.21      0.00
    4    2    6      4.78      0.00
    4    2    7     12.14      0.00
    4    2    8      3.32      0.00
    4    2    9     -2.61      0.00
    4    2   10     -2.92      0.00
    4    2   11      0.65      0.00
    4    2   12      2.08      0.00
   -4    3   12     -0.91      0.00
   -4    3   11     -0.81      0.00
   -4    3   10     -1.73      0.00
   -4    3    9     -0.97      0.00
   -4    3    8      1.37      0.00
   -4    3    7      0.01      0.00
   -4    3    6      9.11      0.00
   -4    3    5     -2.35      0.00
   -4    3    4     -9.32      0.00
   -4    3    3     -0.34      0.00
   -4    3    2      8.20      0.00
   -4    3    1      9.64      0.00
    4    3    0      5.31      0.00
    4    3    1     -3.96      0.00
    4    3    2    -16.54      0.00
    4    3    3      1.22      0.00
    4    3    4     -4.03      0.00
    4    3    5     -8.95      0.00
    4    3    6     -9.77      0.00
    4    3    7     -0.62      0.00
    4    3    8     -1.79      0.00
    4    3    9      0.23      0.00
    4    3   10     -0.28      0.00
    4    3   11      0.08      0.00
    4    3   12     -0.41      0.00
   -4    4   12     -3.06      0.00
   -4    4   11      3.65      0.00
   -4    4   10      4.72      0.00
   -4    4    9      0.26      0.00
   -4    4    8     -2.35      0.00
   -4    4    7     -6.72      0.00
   -4    4    6     -0.12      0.00
   -4    4    5      0.64      0.00
   -4    4    4      5.34      0.00
   -4    4    3      1.06      0.00
   -4    4    2     -9.82      0.00
   -4    4    1      1.66      0.00
    4    4    0    -15.76      0.00
    4    4    1      4.13      0.00
    4    4    2     17.33      0.00
    4    4    3     18.75      0.00
    4    4    4     -8.66      0.00
    4    4    5     -4.08      0.00
    4    4    6      8.28      0.00
    4    4    7     14.94      0.00
    4    4    8      0.95      0.00
    4    4    9     -1.93      0.00
    4    4   10     -1.18      0.00
    4    4   11     -1.23      0.00
    4    4   12      0.32      0.00
   -4    5   12      0.59      0.00
   -4    5   11     -1.86      0.00
   -4    5   10     -4.18      0.00
   -4    5    9      3.27      0.00
   -4    5    8      3.28      0.00
   -4    5    7     -6.89      0.00
   -4    5    6      2.99      0.00
   -4    5    5      4.22      0.00
   -4    5    4     -4.82      0.00
   -4    5    3     -6.91      0.00
   -4    5    2      4.61      0.00
   -4    5    1     11.47      0.00
    4    5    0     -2.05      0.00
    4    5    1      0.44      0.00
    4    5    2     -5.47      0.00
    4    5    3      5.13      0.00
    4    5    4     -6.50      0.00
    4    5    5     -5.52      0.00
    4    5    6     -5.32      0.00
    4    5    7     -0.05      0.00
    4    5    8     -3.75      0.00
    4    5    9     -1.33      0.00
    4    5   10      2.71      0.00
    4    5   11      1.32      0.00
    4    5   12     -1.21      0.00
   -4    6   12     -0.25      0.00
   -4    6   11      0.57      0.00
   -4    6   10      0.44      0.00
   -4    6    9      3.98      0.00
   -4    6    8     -1.51      0.00
   -4    6    7     -8.22      0.00
   -4    6    6      8.68      0.00
   -4    6    5      7.09      0.00
   -4    6    4     -2.37      0.00
   -4    6    3     -4.53      0.00
   -4    6    2      2.54      0.00
   -4    6    1      0.96      0.00
    4    6    0     -4.63      0.00
    4    6    1     11.03      0.00
    4    6    2     -1.14      0.00
    4    6    3      4.55      0.00
    4    6    4     -2.63      0.00
    4    6    5     -3.82      0.00
    4    6    6      3.93      0.00
    4    6    7      8.52      0.00
    4    6    8      0.46      0.00
    4    6    9     -0.47      0.00
    4    6   10     -0.38      0.00
    4    6   11     -2.12      0.00
    4    6   12     -0.42      0.00
   -4    7   11     -0.68      0.00
   -4    7   10     -5.48      0.00
   -4    7    9      2.00      0.00
   -4    7    8      3.13      0.00
   -4    7    7     -4.11      0.00
   -4    7    6     -3.68      0.00
   -4    7    5     -1.90      0.00
   -4    7    4      1.78      0.00
   -4    7    3     -2.85      0.00
   -4    7    2      0.19      0.00
   -4    7    1      1.06      0.00
    4    7    0     -9.01      0.00
    4    7    1     10.64      0.00
    4    7    2      2.63      0.00
    4    7    3     -1.62      0.00
    4    7    4     -2.03      0.00
    4    7    5      2.82      0.00
    4    7    6      0.65      0.00
    4    7    7     -2.09      0.00
    4    7    8     -1.20      0.00
    4    7    9     -0.79      0.00
    4    7   10      1.66      0.00
    4    7   11      0.54      0.00
   -4    8   11      0.72      0.00
   -4    8   10     -3.49      0.00
   -4    8    9      2.28      0.00
   -4    8    8      0.92      0.00
   -4    8    7     -2.74      0.00
   -4    8    6      6.11      0.00
   -4    8    5      7.56      0.00
   -4    8    4     -8.12      0.00
   -4    8    3     -7.13      0.00
   -4    8    2      4.86      0.00
   -4    8    1     -2.09      0.00
    4    8    0      0.98      0.00
    4    8    1      8.31      0.00
    4    8    2    -14.44      0.00
    4    8    3     -3.81      0.00
    4    8    4      6.53      0.00
    4    8    5     -4.38      0.00
    4    8    6     -2.76      0.00
    4    8    7      1.52      0.00
    4    8    8      0.54      0.00
    4    8    9      2.15      0.00
    4    8   10     -0.92      0.00
    4    8   11     -1.42      0.00
   -4    9   11      0.91      0.00
   -4    9   10     -0.65      0.00
   -4    9    9     -1.27      0.00
   -4    9    8     -0.17      0.00
   -4    9    7      1.09      0.00
   -4    9    6     -1.98      0.00
   -4    9    5     -2.13      0.00
   -4    9    4     -1.13      0.00
   -4    9    3      4.22      0.00
   -4    9    2      1.75      0.00
   -4    9    1     -3.04      0.00
    4    9    0     -3.79      0.00
    4    9    1     13.19      0.00
    4    9    2      4.14      0.00
    4    9    3     -5.34      0.00
    4    9    4      3.07      0.00
    4    9    5      4.17      0.00
    4    9    6      1.75      0.00
    4    9    7     -0.79      0.00
    4    9    8      0.47      0.00
    4    9    9     -0.90      0.00
    4    9   10     -0.03      0.00
    4    9   11     -0.27      0.00
   -4   10   10     -3.44      0.00
   -4   10    9      0.50      0.00
   -4   10    8      1.32      0.00
   -4   10    7      2.80      0.00
   -4   10    6      3.43      0.00
   -4   10    5      1.73      0.00
   -4   10    4     -6.83      0.00
   -4   10    3     -0.94      0.00
   -4   10    2      2.04      0.00
   -4   10    1     -2.08      0.00
    4   10    0      3.25      0.00
    4   10    1     -0.40      0.00
    4   10    2    -14.28      0.00
    4   10    3     -1.51      0.00
    4   10    4     10.59      0.00
    4   10    5     -4.50      0.00
    4   10    6     -5.39      0.00
    4   10    7      0.67      0.00
    4   10    8     -0.50      0.00
    4   10    9      0.35      0.00
    4   10   10      0.39      0.00
   -4   11   10      2.80      0.00
   -4   11    9     -1.02      0.00
   -4   11    8     -3.41      0.00
   -4   11    7      0.15      0.00
   -4   11    6      1.34      0.00
   -4   11    5     -1.94      0.00
   -4   11    4     -3.76      0.00
   -4   11    3      2.85      0.00
   -4   11    2     -0.32      0.00
   -4   11    1     -0.83      0.00
    4   11    0      0.26      0.00
    4   11    1      3.39      0.00
    4   11    2      2.62      0.00
    4   11    3     -3.62      0.00
    4   11    4      2.15      0.00
    4   11    5      1.17      0.00
    4   11    6      0.44      0.00
    4   11    7      0.93      0.00
    4   11    8      3.17      0.00
    4   11    9     -2.24      0.00
    4   11   10     -1.66      0.00
   -4   12    9     -0.43      0.00
   -4   12    8      0.37      0.00
   -4   12    7      4.28      0.00
   -4   12    6      2.49      0.00
   -4   12    5     -2.34      0.00
   -4   12    4      1.42      0.00
   -4   12    3      5.56      0.00
   -4   12    2      3.03      0.00
   -4   12    1     -3.63      0.00
    4   12    0      2.97      0.00
    4   12    1     -4.25      0.00
    4   12    2     -6.40      0.00
    4   12    3      2.08      0.00
    4   12    4      8.02      0.00
    4   12    5     -2.44      0.00
    4   12    6     -1.21      0.00
    4   12    7     -0.14      0.00
    4   12    8     -2.40      0.00
    4   12    9     -0.49      0.00
   -4   13    9      0.63      0.00
   -4   13    8     -0.70      0.00
   -4   13    7     -1.84      0.00
   -4   13    6      1.10      0.00
   -4   13    5     -1.15      0.00
   -4   13    4     -2.96      0.00
   -4   13    3     -0.11      0.00
   -4   13    2     -0.93      0.00
   -4   13    1      3.05      0.00
    4   13    0     -1.50      0.00
    4   13    1     -3.19      0.00
    4   13    2      2.76      0.00
    4   13    3     -0.17      0.00
    4   13    4      0.68      0.00
    4   13    5     -1.32      0.00
    4   13    6     -0.13      0.00
    4   13    7      0.91      0.00
    4   13    8      1.43      0.00
   -4   14    8     -0.93      0.00
   -4   14    7      2.85      0.00
   -4   14    6      1.44      0.00
   -4   14    5     -4.01      0.00
   -4   14    4      0.86      0.00
   -4   14    3      5.23      0.00
   -4   14    2      3.37      0.00
   -4   14    1     -2.07      0.00
    4   14    0     -0.47      0.00
    4   14    1     -3.07      0.00
    4   14    2     -0.08      0.00
    4   14    3     -0.81      0.00
    4   14    4      2.41      0.00
    4   14    5      1.51      0.00
    4   14    6      2.09      0.00
    4   14    7     -1.69      0.00
    4   14    8     -2.48      0.00
   -4   15    7     -0.92      0.00
   -4   15    6      0.98      0.00
   -4   15    5      0.86      0.00
   -4   15    4      0.33      0.00
   -4   15    3     -0.87      0.00
   -4   15    2     -3.16      0.00
   -4   15    1      4.28      0.00
    4   15    0     -2.51      0.00
    4   15    1     -3.97      0.00
    4   15    2      2.79      0.00
    4   15    3      2.15      0.00
    4   15    4      0.14      0.00
    4   15    5     -1.77      0.00
    4   15    6     -0.66      0.00
    4   15    7      0.50      0.00
   -4   16    6     -0.11      0.00
   -4   16    5     -0.90      0.00
   -4   16    4      1.41      0.00
   -4   16    3      1.18      0.00
   -4   16    2      1.30      0.00
   -4   16    1      1.47      0.00
    4   16    0     -1.04      0.00
    4   16    1     -0.27      0.00
    4   16    2      1.77      0.00
    4   16    3     -0.55      0.00
    4   16    4     -0.16      0.00
    4   16    5      3.14      0.00
    4   16    6      1.97      0.00
   -4   17    4      1.19      0.00
   -4   17    3     -0.50      0.00
   -4   17    2     -2.23      0.00
   -4   17    1      0.54      0.00
    4   17    0     -1.07      0.00
    4   17    1     -0.72      0.00
    4   17    2      0.16      0.00
    4   17    3      0.10      0.00
    4   17    4     -1.60      0.00
   -4   18    2     -1.14      0.00
   -4   18    1      0.40      0.00
    4   18    0     -0.09      0.00
    4   18    1      0.87      0.00
    4   18    2      0.18      0.00
   -5    0   11      1.40      0.00
   -5    0    9     -0.61      0.00
   -5    0    7     12.08      0.00
   -5    0    5     -2.62      0.00
   -5    0    3     14.27      0.00
   -5    0    1     -6.55      0.00
    5    0    1     -4.05      0.00
    5    0    3      5.69      0.00
    5    0    5      4.69      0.00
    5    0    7     -3.18      0.00
    5    0    9      2.20      0.00
    5    0   11     -0.71      0.00
   -5    1   11      0.19      0.00
   -5    1   10      0.89      0.00
   -5    1    9      0.22      0.00
   -5    1    8      3.83      0.00
   -5    1    7      0.55      0.00
   -5    1    6    -14.12      0.00
   -5    1    5      1.75      0.00
   -5    1    4    -10.84      0.00
   -5    1    3     -0.31      0.00
   -5    1    2     -3.95      0.00
   -5    1    1     -2.12      0.00
    5    1    0     -6.56      0.00
    5    1    1     -3.82      0.00
    5    1    2     10.42      0.00
    5    1    3      3.50      0.00
    5    1    4     -8.51      0.00
    5    1    5     -7.65      0.00
    5    1    6     -2.95      0.00
    5    1    7      0.55      0.00
    5    1    8      2.55      0.00
    5    1    9      0.05      0.00
    5    1   10     -2.22      0.00
    5    1   11      0.03      0.00
   -5    2   11      0.59      0.00
   -5    2   10      1.53      0.00
   -5    2    9      0.63      0.00
   -5    2    8     -3.60      0.00
   -5    2    7      6.09      0.00
   -5    2    6      5.66      0.00
   -5    2    5      2.55      0.00
   -5    2    4    -11.46      0.00
   -5    2    3      6.09      0.00
   -5    2    2     10.70      0.00
   -5    2    1     -1.95      0.00
    5    2    0      5.07      0.00
    5    2    1     -6.12      0.00
    5    2    2     -4.85      0.00
    5    2    3      5.96      0.00
    5    2    4      9.81      0.00
    5    2    5      0.82      0.00
    5    2    6      3.56      0.00
    5    2    7      0.58      0.00
    5    2    8      1.92      0.00
    5    2    9      0.56      0.00
    5    2   10     -1.70      0.00
    5    2   11     -1.43      0.00
   -5    3   11      0.05      0.00
   -5    3   10      2.08      0.00
   -5    3    9      0.11      0.00
   -5    3    8     -0.88      0.00
   -5    3    7      1.24      0.00
   -5    3    6     -9.19      0.00
   -5    3    5      1.69      0.00
   -5    3    4     -2.07      0.00
   -5    3    3     -0.39      0.00
   -5    3    2     -0.05      0.00
   -5    3    1     -2.79      0.00
    5    3    0     -9.83      0.00
    5    3    1     -7.37      0.00
    5    3    2     14.44      0.00
    5    3    3      6.51      0.00
    5    3    4     -6.04      0.00
    5    3    5    -18.47      0.00
    5    3    6     -2.63      0.00
    5    3    7      3.94      0.00
    5    3    8      1.46      0.00
    5    3    9     -1.48      0.00
    5    3   10     -0.77      0.00
    5    3   11     -0.36      0.00
   -5    4   11     -1.25      0.00
   -5    4   10     -0.27      0.00
   -5    4    9      2.23      0.00
   -5    4    8     -1.52      0.00
   -5    4    7     -2.69      0.00
   -5    4    6      2.52      0.00
   -5    4    5      9.52      0.00
   -5    4    4     -8.51      0.00
   -5    4    3     -4.17      0.00
   -5    4    2      9.50      0.00
   -5    4    1      3.55      0.00
    5    4    0      2.93      0.00
    5    4    1     -9.81      0.00
    5    4    2     -0.16      0.00
    5    4    3      3.80      0.00
    5    4    4      9.74      0.00
    5    4    5     -0.05      0.00
    5    4    6      5.67      0.00
    5    4    7      4.35      0.00
    5    4    8     -0.08      0.00
    5    4    9     -1.62      0.00
    5    4   10      1.26      0.00
    5    4   11     -1.58      0.00
   -5    5   11     -1.37      0.00
   -5    5   10      2.00      0.00
   -5    5    9      4.15      0.00
   -5    5    8     -3.64      0.00
   -5    5    7     -5.26      0.00
   -5    5    6     -1.32      0.00
   -5    5    5      4.39      0.00
   -5    5    4     -2.69      0.00
   -5    5    3     -4.02      0.00
   -5    5    2     -0.55      0.00
   -5    5    1      3.77      0.00
    5    5    0     -2.41      0.00
    5    5    1     -0.53      0.00
    5    5    2     12.37      0.00
    5    5    3      3.83      0.00
    5    5    4     -4.47      0.00
    5    5    5    -14.49      0.00
    5    5    6     -2.12      0.00
    5    5    7      1.54      0.00
    5    5    8     -0.75      0.00
    5    5    9     -0.23      0.00
    5    5   10      0.73      0.00
    5    5   11     -1.97      0.00
   -5    6   11     -2.01      0.00
   -5    6   10     -4.28      0.00
   -5    6    9      1.76      0.00
   -5    6    8      2.34      0.00
   -5    6    7     -2.12      0.00
   -5    6    6     -1.34      0.00
   -5    6    5      8.15      0.00
   -5    6    4      1.47      0.00
   -5    6    3     -0.29      0.00
   -5    6    2     -0.93      0.00
   -5    6    1     -0.09      0.00
    5    6    0     -0.96      0.00
    5    6    1     -3.67      0.00
    5    6    2      3.16      0.00
    5    6    3     -2.12      0.00
    5    6    4      2.41      0.00
    5    6    5      2.30      0.00
    5    6    6      3.99      0.00
    5    6    7      3.03      0.00
    5    6    8     -0.17      0.00
    5    6    9      0.10      0.00
    5    6   10      2.69      0.00
    5    6   11     -0.65      0.00
   -5    7   10     -0.20      0.00
   -5    7    9      4.55      0.00
   -5    7    8     -2.12      0.00
   -5    7    7     -7.79      0.00
   -5    7    6      1.73      0.00
   -5    7    5      5.38      0.00
   -5    7    4     -9.53      0.00
   -5    7    3     -5.33      0.00
   -5    7    2      0.48      0.00
   -5    7    1      6.08      0.00
    5    7    0      3.69      0.00
    5    7    1      3.19      0.00
    5    7    2      1.25      0.00
    5    7    3      1.49      0.00
    5    7    4      0.87      0.00
    5    7    5     -5.36      0.00
    5    7    6     -1.04      0.00
    5    7    7      1.20      0.00
    5    7    8     -2.08      0.00
    5    7    9      1.05      0.00
    5    7   10     -0.08      0.00
   -5    8   10     -2.89      0.00
   -5    8    9     -0.75      0.00
   -5    8    8      1.89      0.00
   -5    8    7      1.53      0.00
   -5    8    6      0.73      0.00
   -5    8    5      1.92      0.00
   -5    8    4      2.20      0.00
   -5    8    3      5.89      0.00
   -5    8    2     -3.90      0.00
   -5    8    1     -6.63      0.00
    5    8    0     -0.52      0.00
    5    8    1      3.70      0.00
    5    8    2      3.39      0.00
    5    8    3     -5.84      0.00
    5    8    4     -1.56      0.00
    5    8    5      3.71      0.00
    5    8    6     -1.26      0.00
    5    8    7      1.14      0.00
    5    8    8      0.06      0.00
    5    8    9     -0.33      0.00
    5    8   10      0.51      0.00
   -5    9   10     -1.49      0.00
   -5    9    9      2.40      0.00
   -5    9    8     -0.53      0.00
   -5    9    7     -2.28      0.00
   -5    9    6      4.81      0.00
   -5    9    5      1.52      0.00
   -5    9    4     -9.11      0.00
   -5    9    3     -3.28      0.00
   -5    9    2      1.56      0.00
   -5    9    1      5.18      0.00
    5    9    0      9.89      0.00
    5    9    1      3.07      0.00
    5    9    2     -8.72      0.00
    5    9    3      2.00      0.00
    5    9    4      5.37      0.00
    5    9    5     -0.31      0.00
    5    9    6     -2.48      0.00
    5    9    7      1.53      0.00
    5    9    8      0.30      0.00
    5    9    9      0.95      0.00
    5    9   10     -0.16      0.00
   -5   10    9     -1.19      0.00
   -5   10    8     -1.18      0.00
   -5   10    7      0.96      0.00
   -5   10    6      2.86      0.00
   -5   10    5     -2.60      0.00
   -5   10    4      0.35      0.00
   -5   10    3      3.91      0.00
   -5   10    2     -2.82      0.00
   -5   10    1     -6.87      0.00
    5   10    0     -0.52      0.00
    5   10    1      3.97      0.00
    5   10    2     -0.60      0.00
    5   10    3     -5.33      0.00
    5   10    4     -1.42      0.00
    5   10    5      2.83      0.00
    5   10    6     -3.31      0.00
    5   10    7     -0.37      0.00
    5   10    8      2.21      0.00
    5   10    9     -1.22      0.00
   -5   11    9     -0.56      0.00
   -5   11    8     -0.28      0.00
   -5   11    7      2.41      0.00
   -5   11    6      3.61      0.00
   -5   11    5     -2.26      0.00
   -5   11    4     -3.94      0.00
   -5   11    3      0.58      0.00
   -5   11    2      2.20      0.00
   -5   11    1     -0.04      0.00
    5   11    0      9.63      0.00
    5   11    1      0.42      0.00
    5   11    2    -10.68      0.00
    5   11    3      3.94      0.00
    5   11    4      5.29      0.00
    5   11    5      0.31      0.00
    5   11    6     -0.34      0.00
    5   11    7      0.48      0.00
    5   11    8      0.36      0.00
    5   11    9     -0.45      0.00
   -5   12    8      0.45      0.00
   -5   12    7     -0.01      0.00
   -5   12    6      2.91      0.00
   -5   12    5      0.04      0.00
   -5   12    4     -0.52      0.00
   -5   12    3     -0.13      0.00
   -5   12    2      0.02      0.00
   -5   12    1     -1.88      0.00
    5   12    0     -0.92      0.00
    5   12    1      1.40      0.00
    5   12    2     -1.48      0.00
    5   12    3      0.04      0.00
    5   12    4     -0.14      0.00
    5   12    5     -1.59      0.00
    5   12    6     -3.12      0.00
    5   12    7      0.92      0.00
    5   12    8      1.68      0.00
   -5   13    7      1.56      0.00
   -5   13    6     -2.33      0.00
   -5   13    5     -3.42      0.00
   -5   13    4     -1.87      0.00
   -5   13    3      2.60      0.00
   -5   13    2      3.95      0.00
   -5   13    1     -2.83      0.00
    5   13    0      4.03      0.00
    5   13    1     -1.35      0.00
    5   13    2     -6.59      0.00
    5   13    3      1.26      0.00
    5   13    4      0.94      0.00
    5   13    5      1.88      0.00
    5   13    6      1.27      0.00
    5   13    7      0.13      0.00
   -5   14    6      0.77      0.00
   -5   14    5      2.20      0.00
   -5   14    4      0.89      0.00
   -5   14    3     -2.64      0.00
   -5   14    2     -0.54      0.00
   -5   14    1      1.68      0.00
    5   14    0     -2.71      0.00
    5   14    1     -1.94      0.00
    5   14    2      0.91      0.00
    5   14    3      2.86      0.00
    5   14    4     -0.94      0.00
    5   14    5     -1.09      0.00
    5   14    6     -0.62      0.00
   -5   15    5     -1.95      0.00
   -5   15    4      0.05      0.00
   -5   15    3      1.45      0.00
   -5   15    2      2.89      0.00
   -5   15    1     -1.90      0.00
    5   15    0      0.33      0.00
    5   15    1     -0.61      0.00
    5   15    2     -0.62      0.00
    5   15    3     -0.54      0.00
    5   15    4     -1.11      0.00
    5   15    5      2.42      0.00
   -5   16    4      1.92      0.00
   -5   16    3     -1.39      0.00
   -5   16    2     -1.47      0.00
   -5   16    1      1.58      0.00
    5   16    0     -2.44      0.00
    5   16    1     -1.98      0.00
    5   16    2      1.62      0.00
    5   16    3      1.37      0.00
    5   16    4     -0.43      0.00
   -5   17    1     -0.27      0.00
    5   17    0     -1.14      0.00
   -6    0   10     -0.30      0.00
   -6    0    8     14.05      0.00
   -6    0    6      1.55      0.00
   -6    0    4      1.88      0.00
   -6    0    2      2.13      0.00
    6    0    2      5.17      0.00
    6    0    4     -1.28      0.00
    6    0    6     -4.43      0.00
    6    0    8      2.73      0.00
    6    0   10     -0.25      0.00
   -6    1   10     -0.48      0.00
   -6    1    9     -5.46      0.00
   -6    1    8     -1.81      0.00
   -6    1    7      1.29      0.00
   -6    1    6      6.81      0.00
   -6    1    5     -8.80      0.00
   -6    1    4     -5.66      0.00
   -6    1    3    -10.74      0.00
   -6    1    2      3.02      0.00
   -6    1    1     10.43      0.00
    6    1    0      6.77      0.00
    6    1    1      1.81      0.00
    6    1    2     -2.80      0.00
    6    1    3     -2.91      0.00
    6    1    4     -1.19      0.00
    6    1    5      3.39      0.00
    6    1    6     -2.57      0.00
    6    1    7     -3.26      0.00
    6    1    8      0.67      0.00
    6    1    9      2.22      0.00
    6    1   10     -0.54      0.00
   -6    2   10     -0.57      0.00
   -6    2    9      1.65      0.00
   -6    2    8      7.52      0.00
   -6    2    7     -1.57      0.00
   -6    2    6     -3.23      0.00
   -6    2    5     -2.23      0.00
   -6    2    4      5.43      0.00
   -6    2    3      2.14      0.00
   -6    2    2      1.18      0.00
   -6    2    1      1.28      0.00
    6    2    0    -10.47      0.00
    6    2    1     -9.13      0.00
    6    2    2      2.79      0.00
    6    2    3      9.84      0.00
    6    2    4      0.06      0.00
    6    2    5     -2.10      0.00
    6    2    6     -2.49      0.00
    6    2    7      5.23      0.00
    6    2    8      2.19      0.00
    6    2    9      0.70      0.00
    6    2   10     -0.66      0.00
   -6    3   10      0.48      0.00
   -6    3    9      0.15      0.00
   -6    3    8     -3.53      0.00
   -6    3    7      0.01      0.00
   -6    3    6      7.06      0.00
   -6    3    5     -2.13      0.00
   -6    3    4     -8.70      0.00
   -6    3    3     -8.47      0.00
   -6    3    2      4.69      0.00
   -6    3    1      8.84      0.00
    6    3    0      9.16      0.00
    6    3    1      0.15      0.00
    6    3    2     -4.51      0.00
    6    3    3      3.66      0.00
    6    3    4     -2.22      0.00
    6    3    5     -2.72      0.00
    6    3    6     -4.02      0.00
    6    3    7     -1.23      0.00
    6    3    8     -1.08      0.00
    6    3    9      0.78      0.00
    6    3   10     -0.08      0.00
   -6    4   10      0.58      0.00
   -6    4    9      1.44      0.00
   -6    4    8     -0.02      0.00
   -6    4    7      0.62      0.00
   -6    4    6     -2.61      0.00
   -6    4    5      0.28      0.00
   -6    4    4      6.02      0.00
   -6    4    3     -1.19      0.00
   -6    4    2      3.31      0.00
   -6    4    1      2.81      0.00
    6    4    0    -12.06      0.00
    6    4    1     -7.04      0.00
    6    4    2      4.35      0.00
    6    4    3     10.85      0.00
    6    4    4     -1.85      0.00
    6    4    5     -2.75      0.00
    6    4    6      2.30      0.00
    6    4    7      5.52      0.00
    6    4    8     -0.22      0.00
    6    4    9      1.62      0.00
    6    4   10      0.28      0.00
   -6    5   10      0.53      0.00
   -6    5    9      0.57      0.00
   -6    5    8     -1.35      0.00
   -6    5    7     -4.28      0.00
   -6    5    6     -0.18      0.00
   -6    5    5      1.06      0.00
   -6    5    4     -1.08      0.00
   -6    5    3     -6.82      0.00
   -6    5    2      0.05      0.00
   -6    5    1      1.87      0.00
    6    5    0      1.66      0.00
    6    5    1     -0.04      0.00
    6    5    2     -1.43      0.00
    6    5    3      4.23      0.00
    6    5    4     -3.65      0.00
    6    5    5     -3.32      0.00
    6    5    6     -1.03      0.00
    6    5    7     -0.68      0.00
    6    5    8     -3.03      0.00
    6    5    9     -0.95      0.00
    6    5   10      1.10      0.00
   -6    6    9      1.58      0.00
   -6    6    8     -1.42      0.00
   -6    6    7     -2.88      0.00
   -6    6    6      3.19      0.00
   -6    6    5      2.41      0.00
   -6    6    4      2.50      0.00
   -6    6    3     -3.85      0.00
   -6    6    2      5.54      0.00
   -6    6    1      2.74      0.00
    6    6    0     -5.63      0.00
    6    6    1     -2.13      0.00
    6    6    2     -0.94      0.00
    6    6    3      7.11      0.00
    6    6    4     -0.36      0.00
    6    6    5     -1.99      0.00
    6    6    6      2.00      0.00
    6    6    7      1.25      0.00
    6    6    8      0.98      0.00
    6    6    9      1.74      0.00
   -6    7    9      1.21      0.00
   -6    7    8      1.48      0.00
   -6    7    7     -1.61      0.00
   -6    7    6     -0.01      0.00
   -6    7    5     -1.50      0.00
   -6    7    4      2.55      0.00
   -6    7    3     -3.57      0.00
   -6    7    2     -3.65      0.00
   -6    7    1     -2.65      0.00
    6    7    0     -4.83      0.00
    6    7    1      4.92      0.00
    6    7    2      2.11      0.00
    6    7    3      1.14      0.00
    6    7    4     -2.74      0.00
    6    7    5     -0.77      0.00
    6    7    6      0.21      0.00
    6    7    7     -0.76      0.00
    6    7    8     -0.33      0.00
    6    7    9     -1.13      0.00
   -6    8    9      1.19      0.00
   -6    8    8     -4.35      0.00
   -6    8    7     -3.01      0.00
   -6    8    6      4.27      0.00
   -6    8    5      3.03      0.00
   -6    8    4     -0.62      0.00
   -6    8    3     -4.29      0.00
   -6    8    2      0.25      0.00
   -6    8    1      2.11      0.00
    6    8    0      1.78      0.00
    6    8    1      1.25      0.00
    6    8    2     -9.29      0.00
    6    8    3      2.57      0.00
    6    8    4      2.60      0.00
    6    8    5     -3.27      0.00
    6    8    6      0.55      0.00
    6    8    7     -0.62      0.00
    6    8    8      0.99      0.00
    6    8    9      0.75      0.00
   -6    9    8      0.84      0.00
   -6    9    7      2.74      0.00
   -6    9    6      0.41      0.00
   -6    9    5     -3.57      0.00
   -6    9    4      0.56      0.00
   -6    9    3      3.16      0.00
   -6    9    2     -1.80      0.00
   -6    9    1     -2.97      0.00
    6    9    0     -4.46      0.00
    6    9    1      7.31      0.00
    6    9    2      2.11      0.00
    6    9    3     -2.69      0.00
    6    9    4      2.03      0.00
    6    9    5      1.72      0.00
    6    9    6     -0.90      0.00
    6    9    7      0.17      0.00
    6    9    8      0.48      0.00
   -6   10    8     -2.57      0.00
   -6   10    7      0.32      0.00
   -6   10    6      3.76      0.00
   -6   10    5      1.09      0.00
   -6   10    4     -3.85      0.00
   -6   10    3     -1.43      0.00
   -6   10    2     -4.67      0.00
   -6   10    1      0.88      0.00
    6   10    0      7.12      0.00
    6   10    1      0.69      0.00
    6   10    2     -8.89      0.00
    6   10    3     -0.32      0.00
    6   10    4      1.99      0.00
    6   10    5     -2.65      0.00
    6   10    6     -1.71      0.00
    6   10    7     -1.31      0.00
    6   10    8      0.24      0.00
   -6   11    7      0.49      0.00
   -6   11    6      3.53      0.00
   -6   11    5     -1.92      0.00
   -6   11    4     -2.17      0.00
   -6   11    3      3.40      0.00
   -6   11    2      0.29      0.00
   -6   11    1     -2.54      0.00
    6   11    0      0.16      0.00
    6   11    1      3.28      0.00
    6   11    2     -1.08      0.00
    6   11    3     -1.10      0.00
    6   11    4      3.58      0.00
    6   11    5      0.39      0.00
    6   11    6     -0.92      0.00
    6   11    7      1.81      0.00
   -6   12    6      1.99      0.00
   -6   12    5     -0.35      0.00
   -6   12    4     -3.08      0.00
   -6   12    3      2.49      0.00
   -6   12    2     -2.66      0.00
   -6   12    1     -1.09      0.00
    6   12    0      5.76      0.00
    6   12    1     -0.10      0.00
    6   12    2     -4.71      0.00
    6   12    3     -1.06      0.00
    6   12    4      0.57      0.00
    6   12    5     -0.85      0.00
    6   12    6     -1.65      0.00
   -6   13    5      0.15      0.00
   -6   13    4     -0.63      0.00
   -6   13    3     -1.54      0.00
   -6   13    2     -0.46      0.00
   -6   13    1      1.59      0.00
    6   13    0      0.25      0.00
    6   13    1     -1.63      0.00
    6   13    2      0.01      0.00
    6   13    3      1.06      0.00
    6   13    4      0.53      0.00
    6   13    5     -1.61      0.00
   -6   14    4     -1.13      0.00
   -6   14    3      1.54      0.00
   -6   14    2     -1.12      0.00
   -6   14    1     -0.96      0.00
    6   14    0      1.30      0.00
    6   14    1     -1.27      0.00
    6   14    2     -0.65      0.00
    6   14    3     -0.64      0.00
    6   14    4     -0.53      0.00
   -6   15    2     -0.17      0.00
   -6   15    1      2.14      0.00
    6   15    0      0.42      0.00
    6   15    1     -0.77      0.00
    6   15    2      1.09      0.00
   -7    0    9      0.91      0.00
   -7    0    7      5.29      0.00
   -7    0    5      2.93      0.00
   -7    0    3      0.91      0.00
   -7    0    1     -2.79      0.00
    7    0    1      0.72      0.00
    7    0    3     -2.02      0.00
    7    0    5      2.69      0.00
    7    0    7     -3.16      0.00
    7    0    9      0.78      0.00
   -7    1    9      0.79      0.00
   -7    1    8      3.57      0.00
   -7    1    7     -0.09      0.00
   -7    1    6     -5.83      0.00
   -7    1    5      0.50      0.00
   -7    1    4      0.81      0.00
   -7    1    3      0.06      0.00
   -7    1    2     -7.54      0.00
   -7    1    1     -1.77      0.00
    7    1    0      4.19      0.00
    7    1    1     -0.57      0.00
    7    1    2      1.29      0.00
    7    1    3      3.96      0.00
    7    1    4      2.54      0.00
    7    1    5     -3.20      0.00
    7    1    6     -5.21      0.00
    7    1    7     -0.29      0.00
    7    1    8      1.27      0.00
    7    1    9      1.97      0.00
   -7    2    9     -0.68      0.00
   -7    2    8     -2.28      0.00
   -7    2    7      2.62      0.00
   -7    2    6      4.10      0.00
   -7    2    5      2.73      0.00
   -7    2    4     -6.59      0.00
   -7    2    3     -0.83      0.00
   -7    2    2      5.59      0.00
   -7    2    1      0.79      0.00
    7    2    0      2.50      0.00
    7    2    1     -1.98      0.00
    7    2    2     -5.51      0.00
    7    2    3     -1.39      0.00
    7    2    4      2.60      0.00
    7    2    5      1.63      0.00
    7    2    6      0.34      0.00
    7    2    7     -1.57      0.00
    7    2    8      0.63      0.00
   -7    3    9      1.89      0.00
   -7    3    8      3.32      0.00
   -7    3    7      0.24      0.00
   -7    3    6     -4.03      0.00
   -7    3    5      1.53      0.00
   -7    3    4     -0.22      0.00
   -7    3    3     -0.04      0.00
   -7    3    2     -0.06      0.00
   -7    3    1     -5.37      0.00
    7    3    0     -4.42      0.00
    7    3    1     -3.67      0.00
    7    3    2      5.73      0.00
    7    3    3      6.17      0.00
    7    3    4      0.61      0.00
    7    3    5     -7.56      0.00
    7    3    6     -1.74      0.00
    7    3    7      0.06      0.00
    7    3    8     -0.97      0.00
   -7    4    8     -1.61      0.00
   -7    4    7     -1.77      0.00
   -7    4    6      1.64      0.00
   -7    4    5      2.55      0.00
   -7    4    4     -5.48      0.00
   -7    4    3      0.55      0.00
   -7    4    2      4.33      0.00
   -7    4    1      3.46      0.00
    7    4    0     -0.04      0.00
    7    4    1     -5.06      0.00
    7    4    2     -1.23      0.00
    7    4    3     -0.23      0.00
    7    4    4      3.73      0.00
    7    4    5      0.07      0.00
    7    4    6      1.49      0.00
    7    4    7      0.00      0.00
    7    4    8      0.37      0.00
   -7    5    8      0.77      0.00
   -7    5    7     -0.81      0.00
   -7    5    6     -0.16      0.00
   -7    5    5      2.86      0.00
   -7    5    4     -3.88      0.00
   -7    5    3     -1.12      0.00
   -7    5    2      1.39      0.00
   -7    5    1     -2.28      0.00
    7    5    0     -5.27      0.00
    7    5    1     -2.87      0.00
    7    5    2      6.29      0.00
    7    5    3     -0.41      0.00
    7    5    4     -0.40      0.00
    7    5    5     -5.24      0.00
    7    5    6      0.01      0.00
    7    5    7     -1.54      0.00
    7    5    8     -1.16      0.00
   -7    6    8     -2.33      0.00
   -7    6    7     -2.33      0.00
   -7    6    6     -0.41      0.00
   -7    6    5      3.01      0.00
   -7    6    4     -0.48      0.00
   -7    6    3      3.27      0.00
   -7    6    2     -2.40      0.00
   -7    6    1      1.12      0.00
    7    6    0     -2.75      0.00
    7    6    1     -3.35      0.00
    7    6    2      2.49      0.00
    7    6    3     -1.59      0.00
    7    6    4      1.51      0.00
    7    6    5      0.38      0.00
    7    6    6      1.85      0.00
    7    6    7     -0.19      0.00
    7    6    8      0.43      0.00
   -7    7    7     -1.29      0.00
   -7    7    6      1.38      0.00
   -7    7    5      4.71      0.00
   -7    7    4     -3.88      0.00
   -7    7    3     -2.68      0.00
   -7    7    2     -2.54      0.00
   -7    7    1      2.13      0.00
    7    7    0      2.19      0.00
    7    7    1     -1.42      0.00
    7    7    2      0.08      0.00
    7    7    3     -0.67      0.00
    7    7    4      1.12      0.00
    7    7    5     -1.92      0.00
    7    7    6      0.57      0.00
    7    7    7     -1.97      0.00
   -7    8    7     -1.96      0.00
   -7    8    6     -1.53      0.00
   -7    8    5     -0.39      0.00
   -7    8    4      1.85      0.00
   -7    8    3      5.72      0.00
   -7    8    2     -4.44      0.00
   -7    8    1     -3.27      0.00
    7    8    0     -2.92      0.00
    7    8    1      0.46      0.00
    7    8    2      1.02      0.00
    7    8    3     -2.62      0.00
    7    8    4     -0.35      0.00
    7    8    5      0.04      0.00
    7    8    6     -0.30      0.00
    7    8    7      1.26      0.00
   -7    9    6      3.63      0.00
   -7    9    5      1.58      0.00
   -7    9    4     -1.79      0.00
   -7    9    3     -1.94      0.00
   -7    9    2     -4.61      0.00
   -7    9    1      2.39      0.00
    7    9    0      5.56      0.00
    7    9    1     -1.49      0.00
    7    9    2     -3.60      0.00
    7    9    3      1.39      0.00
    7    9    4      1.48      0.00
    7    9    5      1.20      0.00
    7    9    6      0.43      0.00
   -7   10    6      1.28      0.00
   -7   10    5     -4.13      0.00
   -7   10    4      0.53      0.00
   -7   10    3      4.78      0.00
   -7   10    2     -0.87      0.00
   -7   10    1     -3.20      0.00
    7   10    0     -0.04      0.00
    7   10    1      1.91      0.00
    7   10    2     -0.02      0.00
    7   10    3     -1.21      0.00
    7   10    4     -0.97      0.00
    7   10    5     -0.40      0.00
   -7   11    5     -0.50      0.00
   -7   11    4     -0.10      0.00
   -7   11    3      0.51      0.00
   -7   11    2     -3.31      0.00
   -7   11    1      0.67      0.00
    7   11    0      1.84      0.00
    7   11    1     -0.41      0.00
    7   11    2     -3.24      0.00
    7   11    3      0.01      0.00
    7   11    4      1.64      0.00
   -7   12    3     -0.16      0.00
   -7   12    2      0.34      0.00
   -7   12    1      0.21      0.00
    7   12    0      0.85      0.00
    7   12    1      1.06      0.00
    7   12    2     -0.33      0.00
    7   12    3      0.61      0.00
   -7   13    1     -1.04      0.00
    7   13    0     -1.13      0.00
    7   13    1      1.51      0.00
   -8    0    6     -2.41      0.00
   -8    0    4      5.75      0.00
   -8    0    2      5.03      0.00
    8    0    0     -9.89      0.00
    8    0    2     -1.69      0.00
    8    0    4      1.36      0.00
    8    0    6     -3.08      0.00
   -8    1    7     -1.63      0.00
   -8    1    6      3.22      0.00
   -8    1    5     -1.55      0.00
   -8    1    4     -2.10      0.00
   -8    1    3     -2.59      0.00
   -8    1    2      2.08      0.00
   -8    1    1     -2.55      0.00
    8    1    0      3.03      0.00
    8    1    1      5.13      0.00
    8    1    2     -1.19      0.00
    8    1    3     -1.75      0.00
    8    1    4      1.19      0.00
    8    1    5      3.74      0.00
    8    1    6     -0.86      0.00
   -8    2    6     -3.11      0.00
   -8    2    5     -0.63      0.00
   -8    2    4      3.17      0.00
   -8    2    3     -0.10      0.00
   -8    2    2      4.37      0.00
   -8    2    1     -1.87      0.00
    8    2    0     -7.19      0.00
    8    2    1     -5.75      0.00
    8    2    2     -1.14      0.00
    8    2    3      2.93      0.00
    8    2    4     -0.35      0.00
    8    2    5     -0.84      0.00
    8    2    6     -0.12      0.00
   -8    3    6      4.40      0.00
   -8    3    5      0.81      0.00
   -8    3    4     -3.61      0.00
   -8    3    3     -0.93      0.00
   -8    3    2      2.13      0.00
   -8    3    1      0.14      0.00
    8    3    0      4.98      0.00
    8    3    1      0.27      0.00
    8    3    2     -1.24      0.00
    8    3    3      1.31      0.00
    8    3    4      2.15      0.00
    8    3    5      1.32      0.00
    8    3    6     -1.80      0.00
   -8    4    6     -1.14      0.00
   -8    4    5     -0.29      0.00
   -8    4    4     -0.46      0.00
   -8    4    3     -0.04      0.00
   -8    4    2      3.89      0.00
   -8    4    1     -0.96      0.00
    8    4    0     -3.85      0.00
    8    4    1     -6.87      0.00
    8    4    2      0.16      0.00
    8    4    3      3.34      0.00
    8    4    4     -2.25      0.00
    8    4    5     -1.26      0.00
    8    4    6      2.29      0.00
   -8    5    6      1.83      0.00
   -8    5    5      0.09      0.00
   -8    5    4     -0.81      0.00
   -8    5    3      0.33      0.00
   -8    5    2     -0.97      0.00
   -8    5    1     -1.01      0.00
    8    5    0      0.85      0.00
    8    5    1     -0.25      0.00
    8    5    2      1.71      0.00
    8    5    3      2.28      0.00
    8    5    4     -1.02      0.00
    8    5    5      0.57      0.00
   -8    6    5      0.06      0.00
   -8    6    4      0.15      0.00
   -8    6    3     -0.01      0.00
   -8    6    2      2.86      0.00
   -8    6    1     -0.49      0.00
    8    6    0     -0.04      0.00
    8    6    1     -3.32      0.00
    8    6    2     -0.51      0.00
    8    6    3      1.82      0.00
    8    6    4     -2.02      0.00
    8    6    5     -0.55      0.00
   -8    7    5     -1.10      0.00
   -8    7    4      2.04      0.00
   -8    7    3      0.80      0.00
   -8    7    2     -2.11      0.00
   -8    7    1     -2.99      0.00
    8    7    0     -2.48      0.00
    8    7    1      0.62      0.00
    8    7    2      1.01      0.00
    8    7    3      0.67      0.00
    8    7    4     -1.72      0.00
   -8    8    4      2.19      0.00
   -8    8    3      0.78      0.00
   -8    8    2     -0.56      0.00
   -8    8    1     -1.29      0.00
    8    8    0      2.93      0.00
    8    8    1     -0.42      0.00
    8    8    2     -1.60      0.00
    8    8    3     -0.25      0.00
   -8    9    3      2.33      0.00
   -8    9    2     -0.60      0.00
   -8    9    1     -0.57      0.00
    8    9    0     -2.45      0.00
    8    9    1     -1.24      0.00
    8    9    2      0.23      0.00
   -9    0    1     -1.07      0.00
    9    0    1      1.50      0.00
   -9    1    2      1.23      0.00
   -9    1    1     -0.66      0.00
    9    1    0     -2.48      0.00
    9    1    1     -1.00      0.00
    9    1    2     -1.46      0.00
   -9    2    2      2.27      0.00
   -9    2    1     -0.04      0.00
    9    2    0      2.09      0.00
    9    2    1      1.26      0.00
    9    2    2     -2.57      0.00
   -9    3    1     -1.41      0.00
    9    3    0     -2.48      0.00
    9    3    1     -1.46      0.00
    6    0    0     -7.89      0.00
    9    4    0     -0.75      0.00
    9    5    0     -2.19      0.00
    9    6    0     -2.26      0.00
    9    7    0     -0.36      0.00
    9    8    0     -1.21      0.00
    9    9    0      1.16      0.00
    8   10    0      1.65      0.00
    8   11    0     -0.57      0.00
    8   12    0     -0.43      0.00
    8   13    0      0.55      0.00
    7   14    0     -1.67      0.00
    7   15    0     -0.71      0.00
    6   16    0     -1.70      0.00
    6   17    0     -0.13      0.00
    5   18    0     -0.13      0.00
    4   19    0      0.39      0.00
    5   19    0      0.22      0.00
    2   20    0      0.19      0.00
    3   20    0      0.79      0.00
    4   20    0      0.09      0.00
    1   21    0      1.66      0.00
    2   21    0     -0.57      0.00
    3   21    0      0.97      0.00
   -9    4    1      1.54      0.00
    9    4    1     -0.05      0.00
   -9    5    1     -1.42      0.00
    9    5    1     -1.04      0.00
   -9    6    1      0.19      0.00
    9    6    1      0.49      0.00
   -9    7    1     -0.14      0.00
    9    7    1      1.34      0.00
   -9    8    1     -0.49      0.00
    9    8    1      0.10      0.00
   -9    9    1      0.56      0.00
    9    9    1      1.36      0.00
   -8   10    1     -0.50      0.00
    8   10    1      0.46      0.00
   -8   11    1      0.74      0.00
    8   11    1     -0.79      0.00
   -8   12    1     -0.34      0.00
    8   12    1      0.39      0.00
   -8   13    1     -0.86      0.00
    8   13    1      0.41      0.00
   -7   14    1      0.21      0.00
    7   14    1      1.06      0.00
   -7   15    1     -1.06      0.00
    7   15    1      1.08      0.00
   -6   16    1     -1.11      0.00
    6   16    1     -1.31      0.00
   -6   17    1      1.28      0.00
    5   17    1     -0.61      0.00
    6   17    1     -0.38      0.00
   -5   18    1     -0.28      0.00
    5   18    1      0.07      0.00
   -5   19    1     -0.04      0.00
   -4   19    1      0.15      0.00
    4   19    1      0.07      0.00
    5   19    1     -0.51      0.00
   -4   20    1     -0.38      0.00
   -3   20    1     -1.36      0.00
   -2   20    1      0.73      0.00
    2   20    1      2.06      0.00
    3   20    1     -0.23      0.00
    4   20    1     -0.55      0.00
   -2   21    1      0.46      0.00
   -1   21    1      0.34      0.00
    0   21    1     -0.20      0.00
    1   21    1      0.07      0.00
    2   21    1      1.57      0.00
   -9    3    2      0.83      0.00
    9    3    2      0.06      0.00
   -9    4    2     -0.60      0.00
    9    4    2     -2.01      0.00
   -9    5    2      0.15      0.00
    9    5    2      2.43      0.00
   -9    6    2     -1.98      0.00
    9    6    2     -0.96      0.00
   -9    7    2      0.96      0.00
    9    7    2      0.83      0.00
   -9    8    2      0.17      0.00
    9    8    2     -0.88      0.00
   -9    9    2      0.98      0.00
   -8   10    2     -2.15      0.00
    8   10    2     -1.50      0.00
   -8   11    2      0.74      0.00
    8   11    2      1.10      0.00
   -8   12    2      0.29      0.00
    8   12    2     -1.27      0.00
   -7   13    2     -1.33      0.00
    7   13    2     -2.14      0.00
   -7   14    2     -1.37      0.00
    7   14    2     -0.78      0.00
   -7   15    2     -0.45      0.00
    7   15    2     -0.09      0.00
   -6   16    2      0.46      0.00
    6   16    2      0.69      0.00
   -6   17    2      0.81      0.00
   -5   17    2      1.16      0.00
    5   17    2      0.94      0.00
    6   17    2      0.49      0.00
   -5   18    2     -0.45      0.00
    5   18    2      1.79      0.00
   -4   19    2      0.68      0.00
    3   19    2      0.00      0.00
    4   19    2      0.33      0.00
   -4   20    2     -1.11      0.00
   -3   20    2     -1.10      0.00
   -2   20    2     -2.93      0.00
   -1   20    2     -1.19      0.00
    1   20    2     -0.68      0.00
    2   20    2     -1.82      0.00
    3   20    2     -0.90      0.00
   -2   21    2     -0.99      0.00
   -1   21    2      0.22      0.00
    0   21    2     -0.98      0.00
    1   21    2     -0.44      0.00
    2   21    2     -1.64      0.00
   -9    0    3      3.66      0.00
    9    0    3     -3.08      0.00
   -9    1    3     -1.36      0.00
    9    1    3      1.78      0.00
   -9    2    3      2.69      0.00
    9    2    3     -2.22      0.00
   -9    3    3     -1.29      0.00
    9    3    3      2.11      0.00
   -9    4    3      2.19      0.00
    9    4    3     -1.65      0.00
   -9    5    3      1.91      0.00
    9    5    3      2.15      0.00
   -9    6    3      2.54      0.00
    9    6    3     -1.61      0.00
   -9    7    3      1.45      0.00
    9    7    3      0.53      0.00
   -9    8    3      1.06      0.00
    9    8    3     -0.42      0.00
    8    9    3      0.68      0.00
   -8   10    3      0.52      0.00
    8   10    3     -1.65      0.00
   -8   11    3      1.42      0.00
    8   11    3      0.54      0.00
   -8   12    3      0.81      0.00
    8   12    3     -0.70      0.00
   -7   13    3      2.19      0.00
    7   13    3      0.71      0.00
   -7   14    3     -0.66      0.00
    7   14    3     -0.05      0.00
   -7   15    3      1.37      0.00
   -6   15    3     -1.16      0.00
    6   15    3     -0.50      0.00
    7   15    3      0.37      0.00
   -6   16    3      0.55      0.00
    6   16    3     -0.65      0.00
   -6   17    3      0.23      0.00
   -5   17    3     -0.21      0.00
    5   17    3     -1.35      0.00
    6   17    3      0.25      0.00
   -5   18    3      0.68      0.00
   -4   18    3     -1.62      0.00
    4   18    3      0.72      0.00
    5   18    3      0.58      0.00
   -4   19    3      0.51      0.00
   -3   19    3     -0.40      0.00
    3   19    3     -0.06      0.00
    4   19    3     -0.12      0.00
   -3   20    3      0.17      0.00
   -2   20    3      0.57      0.00
   -1   20    3     -0.01      0.00
    0   20    3      0.76      0.00
    1   20    3      0.06      0.00
    2   20    3      0.33      0.00
    3   20    3     -0.81      0.00
   -2   21    3      0.56      0.00
   -1   21    3      1.02      0.00
    0   21    3      1.60      0.00
    1   21    3      0.52      0.00
    2   21    3      0.04      0.00
   -9    1    4     -3.04      0.00
    9    1    4      1.87      0.00
   -9    2    4     -1.80      0.00
    9    2    4     -0.16      0.00
   -9    3    4     -0.78      0.00
    9    3    4      1.03      0.00
   -9    4    4     -2.06      0.00
    9    4    4      1.43      0.00
   -9    5    4     -0.71      0.00
    9    5    4      0.11      0.00
   -9    6    4     -1.09      0.00
    9    6    4      0.68      0.00
   -9    7    4     -0.47      0.00
    9    7    4     -0.17      0.00
    8    8    4     -0.83      0.00
   -8    9    4      1.09      0.00
    8    9    4      0.09      0.00
   -8   10    4      0.61      0.00
    8   10    4      0.02      0.00
   -8   11    4     -0.24      0.00
    8   11    4     -0.21      0.00
   -7   12    4     -0.20      0.00
    7   12    4     -1.77      0.00
   -7   13    4     -0.79      0.00
    7   13    4      0.90      0.00
   -7   14    4      1.45      0.00
    7   14    4     -0.94      0.00
   -6   15    4      0.93      0.00
    6   15    4     -0.68      0.00
   -6   16    4     -1.29      0.00
    6   16    4     -0.79      0.00
   -5   17    4      0.29      0.00
    5   17    4     -0.42      0.00
   -5   18    4     -0.17      0.00
   -4   18    4      2.38      0.00
    4   18    4      0.52      0.00
    5   18    4      0.39      0.00
   -4   19    4      0.86      0.00
   -3   19    4      0.63      0.00
    2   19    4      1.35      0.00
    3   19    4     -1.14      0.00
    4   19    4     -1.28      0.00
   -3   20    4      1.17      0.00
   -2   20    4      1.64      0.00
   -1   20    4      0.09      0.00
    0   20    4      0.01      0.00
    1   20    4      0.18      0.00
    2   20    4     -1.23      0.00
    3   20    4      0.14      0.00
   -1   21    4      1.55      0.00
    0   21    4     -0.39      0.00
    1   21    4     -0.31      0.00
   -9    0    5     -2.86      0.00
    9    0    5      0.61      0.00
   -9    1    5      1.62      0.00
    9    1    5     -0.27      0.00
   -9    2    5     -2.84      0.00
    9    2    5     -0.42      0.00
   -9    3    5      3.00      0.00
    9    3    5     -0.41      0.00
   -9    4    5     -1.67      0.00
    9    4    5      0.13      0.00
   -9    5    5      1.23      0.00
    9    5    5     -1.29      0.00
   -9    6    5     -0.30      0.00
    9    6    5      1.03      0.00
    8    7    5      0.73      0.00
   -8    8    5     -0.30      0.00
    8    8    5      0.64      0.00
   -8    9    5     -2.25      0.00
    8    9    5     -0.31      0.00
   -8   10    5      0.08      0.00
    8   10    5      1.06      0.00
   -8   11    5     -1.01      0.00
    7   11    5      2.18      0.00
   -7   12    5      0.00      0.00
    7   12    5     -0.13      0.00
   -7   13    5      0.81      0.00
    7   13    5      0.16      0.00
   -7   14    5      1.03      0.00
   -6   14    5     -0.13      0.00
    6   14    5      0.22      0.00
   -6   15    5      0.15      0.00
    6   15    5      0.69      0.00
   -6   16    5     -0.38      0.00
   -5   16    5      0.84      0.00
    5   16    5     -0.48      0.00
    6   16    5      1.11      0.00
   -5   17    5      0.79      0.00
   -4   17    5     -1.24      0.00
    4   17    5     -1.00      0.00
    5   17    5      0.79      0.00
   -4   18    5      1.06      0.00
   -3   18    5      0.31      0.00
    3   18    5      1.33      0.00
    4   18    5      2.20      0.00
   -3   19    5     -1.70      0.00
   -2   19    5     -2.04      0.00
   -1   19    5      0.48      0.00
    0   19    5     -0.27      0.00
    1   19    5      1.48      0.00
    2   19    5     -0.46      0.00
    3   19    5      0.33      0.00
   -2   20    5     -0.05      0.00
   -1   20    5     -1.25      0.00
    0   20    5      0.69      0.00
    1   20    5     -0.22      0.00
    2   20    5     -0.49      0.00
   -9    1    6      2.62      0.00
    9    1    6     -0.09      0.00
   -9    2    6      2.08      0.00
    9    2    6      0.81      0.00
   -9    3    6      1.38      0.00
    9    3    6      1.14      0.00
   -9    4    6      0.34      0.00
    8    5    6     -1.78      0.00
   -8    6    6      0.78      0.00
    8    6    6      1.75      0.00
   -8    7    6      0.55      0.00
    8    7    6     -1.16      0.00
   -8    8    6     -0.58      0.00
    8    8    6      1.19      0.00
   -8    9    6     -0.14      0.00
    8    9    6     -0.08      0.00
   -8   10    6     -0.34      0.00
    7   10    6     -1.18      0.00
   -7   11    6      1.64      0.00
    7   11    6     -1.02      0.00
   -7   12    6      0.95      0.00
    7   12    6     -0.27      0.00
   -7   13    6     -1.65      0.00
   -6   13    6      1.95      0.00
    6   13    6      0.52      0.00
    7   13    6     -1.11      0.00
   -6   14    6     -1.27      0.00
    6   14    6     -0.93      0.00
   -6   15    6     -0.04      0.00
   -5   15    6     -3.36      0.00
    5   15    6      0.32      0.00
    6   15    6     -0.10      0.00
   -5   16    6     -1.46      0.00
    5   16    6      0.81      0.00
   -5   17    6     -1.20      0.00
   -4   17    6     -0.68      0.00
    4   17    6     -0.40      0.00
   -4   18    6      0.02      0.00
   -3   18    6      1.34      0.00
   -2   18    6      0.29      0.00
    2   18    6      1.27      0.00
    3   18    6      0.43      0.00
    4   18    6      1.11      0.00
   -3   19    6     -1.44      0.00
   -2   19    6     -0.49      0.00
   -1   19    6      0.24      0.00
    0   19    6      0.44      0.00
    1   19    6      1.90      0.00
    2   19    6      0.16      0.00
    3   19    6     -0.51      0.00
   -1   20    6      0.26      0.00
    0   20    6      0.48      0.00
    1   20    6      0.03      0.00
    8    1    7     -0.27      0.00
   -8    2    7     -0.05      0.00
    8    2    7     -0.67      0.00
   -8    3    7     -0.91      0.00
    8    3    7     -0.55      0.00
   -8    4    7     -0.40      0.00
    8    4    7      0.08      0.00
   -8    5    7     -0.38      0.00
    8    5    7     -1.56      0.00
   -8    6    7     -1.79      0.00
    8    6    7      0.96      0.00
   -8    7    7     -0.66      0.00
    8    7    7     -1.83      0.00
   -8    8    7     -1.36      0.00
    8    8    7     -0.42      0.00
   -7    9    7      0.31      0.00
    7    9    7     -1.80      0.00
   -7   10    7     -0.50      0.00
    7   10    7      0.81      0.00
   -7   11    7     -0.08      0.00
    7   11    7     -1.01      0.00
   -7   12    7      0.21      0.00
   -6   12    7     -0.47      0.00
    6   12    7     -1.54      0.00
   -6   13    7     -1.16      0.00
    6   13    7      1.85      0.00
   -6   14    7      0.32      0.00
   -5   14    7      0.74      0.00
    5   14    7      0.48      0.00
    6   14    7      0.58      0.00
   -5   15    7      1.89      0.00
    5   15    7     -0.63      0.00
   -5   16    7     -0.32      0.00
   -4   16    7      0.58      0.00
    4   16    7     -1.32      0.00
    5   16    7     -0.26      0.00
   -4   17    7     -0.52      0.00
   -3   17    7     -2.53      0.00
    3   17    7     -3.19      0.00
    4   17    7     -1.27      0.00
   -3   18    7      0.67      0.00
   -2   18    7     -0.35      0.00
   -1   18    7      0.08      0.00
    0   18    7     -1.13      0.00
    1   18    7      0.02      0.00
    2   18    7     -1.13      0.00
    3   18    7      0.18      0.00
   -2   19    7     -0.53      0.00
   -1   19    7     -0.21      0.00
    0   19    7      0.70      0.00
    1   19    7     -0.50      0.00
    2   19    7      0.49      0.00
   -8    0    8     10.84      0.00
    8    0    8     -1.97      0.00
   -8    1    8     -0.85      0.00
    8    1    8      0.74      0.00
   -8    2    8      6.72      0.00
    8    2    8     -1.78      0.00
   -8    3    8     -0.30      0.00
    8    3    8      0.42      0.00
   -8    4    8      1.30      0.00
    8    4    8     -1.02      0.00
   -8    5    8      0.18      0.00
    8    5    8     -0.40      0.00
   -8    6    8      0.08      0.00
    8    6    8      0.07      0.00
   -7    7    8     -1.44      0.00
    7    7    8     -1.99      0.00
   -7    8    8     -1.03      0.00
    7    8    8     -0.44      0.00
   -7    9    8     -0.90      0.00
    7    9    8     -1.45      0.00
   -7   10    8     -0.42      0.00
    7   10    8     -0.71      0.00
   -6   11    8     -1.04      0.00
    6   11    8      1.04      0.00
   -6   12    8     -0.69      0.00
    6   12    8     -0.46      0.00
   -6   13    8      0.21      0.00
   -5   13    8     -0.64      0.00
    5   13    8      0.17      0.00
    6   13    8     -0.37      0.00
   -5   14    8      1.87      0.00
    5   14    8     -0.72      0.00
   -5   15    8     -0.78      0.00
   -4   15    8     -0.15      0.00
    4   15    8     -0.37      0.00
    5   15    8      0.20      0.00
   -4   16    8     -1.45      0.00
   -3   16    8      0.80      0.00
    3   16    8      0.42      0.00
    4   16    8      0.11      0.00
   -3   17    8     -1.80      0.00
   -2   17    8     -0.84      0.00
   -1   17    8     -0.88      0.00
    0   17    8      0.17      0.00
    1   17    8      0.18      0.00
    2   17    8      1.04      0.00
    3   17    8     -0.43      0.00
   -2   18    8      1.24      0.00
   -1   18    8     -0.27      0.00
    0   18    8      0.19      0.00
    1   18    8      1.12      0.00
    2   18    8      0.22      0.00
   -8    1    9     -2.53      0.00
    8    1    9      0.53      0.00
   -8    2    9      0.04      0.00
    7    2    9     -0.05      0.00
   -8    3    9      0.30      0.00
    7    3    9      2.18      0.00
   -7    4    9     -0.89      0.00
    7    4    9     -0.76      0.00
   -7    5    9      2.81      0.00
    7    5    9      0.40      0.00
   -7    6    9      1.78      0.00
    7    6    9      1.57      0.00
   -7    7    9      2.19      0.00
    7    7    9      0.00      0.00
   -7    8    9      1.68      0.00
    7    8    9      1.05      0.00
   -7    9    9      0.68      0.00
   -6    9    9      1.47      0.00
    6    9    9     -0.36      0.00
   -6   10    9      0.77      0.00
    6   10    9     -0.01      0.00
   -6   11    9     -0.73      0.00
    6   11    9     -0.17      0.00
   -6   12    9      0.41      0.00
   -5   12    9     -0.62      0.00
    5   12    9     -2.57      0.00
   -5   13    9     -1.85      0.00
    4   13    9     -1.39      0.00
    5   13    9     -0.69      0.00
   -5   14    9     -0.04      0.00
   -4   14    9     -1.00      0.00
    4   14    9      1.25      0.00
    5   14    9     -1.15      0.00
   -4   15    9      1.30      0.00
   -3   15    9      1.04      0.00
    3   15    9      1.26      0.00
    4   15    9     -0.57      0.00
   -3   16    9      1.74      0.00
   -2   16    9      0.67      0.00
   -1   16    9     -0.54      0.00
    0   16    9      1.80      0.00
    1   16    9      1.42      0.00
    2   16    9      0.62      0.00
    3   16    9     -0.62      0.00
   -2   17    9     -1.44      0.00
   -1   17    9      0.27      0.00
    0   17    9     -0.36      0.00
    1   17    9      0.44      0.00
    2   17    9      1.39      0.00
   -7    1   10      0.24      0.00
    7    1   10     -1.00      0.00
   -7    2   10     -0.47      0.00
    7    2   10     -0.89      0.00
   -7    3   10      1.56      0.00
    7    3   10      0.11      0.00
   -7    4   10     -1.09      0.00
    7    4   10      0.58      0.00
   -7    5   10     -0.57      0.00
    7    5   10     -0.02      0.00
   -7    6   10      0.27      0.00
   -6    6   10      1.11      0.00
    6    6   10     -0.25      0.00
    7    6   10      0.63      0.00
   -6    7   10     -1.03      0.00
    6    7   10     -0.27      0.00
   -6    8   10      0.47      0.00
    6    8   10     -0.22      0.00
   -6    9   10     -0.65      0.00
    6    9   10      0.22      0.00
   -6   10   10     -0.26      0.00
   -5   10   10      0.48      0.00
    5   10   10     -1.19      0.00
    6   10   10      0.62      0.00
   -5   11   10     -0.26      0.00
    5   11   10      0.49      0.00
   -5   12   10      1.42      0.00
   -4   12   10     -0.72      0.00
    4   12   10      1.25      0.00
    5   12   10      0.87      0.00
   -4   13   10      2.12      0.00
   -3   13   10      1.32      0.00
    3   13   10      1.13      0.00
    4   13   10     -1.01      0.00
   -4   14   10     -0.22      0.00
   -3   14   10     -0.03      0.00
   -2   14   10      0.45      0.00
    2   14   10      0.65      0.00
    3   14   10     -0.86      0.00
    4   14   10      1.43      0.00
   -3   15   10      0.51      0.00
   -2   15   10     -0.36      0.00
   -1   15   10      1.13      0.00
    0   15   10      0.37      0.00
    1   15   10     -0.11      0.00
    2   15   10      0.00      0.00
    3   15   10      1.13      0.00
   -2   16   10      0.54      0.00
   -1   16   10     -1.42      0.00
    0   16   10     -1.41      0.00
    1   16   10      0.38      0.00
    2   16   10      0.30      0.00
   -7    0   11      0.23      0.00
   -7    1   11     -0.49      0.00
   -6    1   11      4.35      0.00
    6    1   11     -2.23      0.00
   -6    2   11     -0.78      0.00
    6    2   11     -0.60      0.00
   -6    3   11      0.90      0.00
    6    3   11     -1.75      0.00
   -6    4   11     -1.28      0.00
    6    4   11     -1.12      0.00
   -6    5   11     -1.24      0.00
    6    5   11      0.15      0.00
   -6    6   11      0.39      0.00
    6    6   11     -0.15      0.00
   -6    7   11     -0.94      0.00
   -5    7   11     -0.53      0.00
    5    7   11     -1.26      0.00
    6    7   11      0.71      0.00
   -6    8   11      0.97      0.00
   -5    8   11      0.84      0.00
    5    8   11      0.25      0.00
   -5    9   11     -0.11      0.00
    5    9   11      0.26      0.00
   -5   10   11      0.86      0.00
   -4   10   11      0.12      0.00
    4   10   11      0.33      0.00
    5   10   11     -0.64      0.00
   -4   11   11      0.59      0.00
    3   11   11     -0.02      0.00
    4   11   11      1.10      0.00
   -4   12   11     -1.32      0.00
   -3   12   11     -0.89      0.00
    3   12   11      0.79      0.00
    4   12   11      1.00      0.00
   -3   13   11     -1.19      0.00
   -2   13   11     -0.62      0.00
   -1   13   11     -0.87      0.00
    0   13   11     -0.19      0.00
    1   13   11     -0.47      0.00
    2   13   11      1.17      0.00
    3   13   11      0.49      0.00
   -3   14   11     -1.15      0.00
   -2   14   11     -0.02      0.00
   -1   14   11      0.24      0.00
    0   14   11     -0.99      0.00
    1   14   11      0.10      0.00
    2   14   11     -0.06      0.00
   -1   15   11     -0.22      0.00
    0   15   11      0.23      0.00
    1   15   11     -0.25      0.00
   -6    0   12     -3.48      0.00
    6    0   12     -0.82      0.00
   -6    1   12      0.24      0.00
   -5    1   12     -2.62      0.00
    5    1   12      0.07      0.00
    6    1   12     -0.17      0.00
   -6    2   12     -3.26      0.00
   -5    2   12     -1.26      0.00
    5    2   12      1.00      0.00
    6    2   12     -0.30      0.00
   -6    3   12      0.52      0.00
   -5    3   12     -4.29      0.00
    5    3   12      0.98      0.00
    6    3   12      0.08      0.00
   -6    4   12     -2.81      0.00
   -5    4   12      1.34      0.00
    5    4   12      0.91      0.00
   -5    5   12     -2.89      0.00
    5    5   12      0.53      0.00
   -5    6   12      3.47      0.00
    5    6   12     -0.72      0.00
   -5    7   12      0.93      0.00
   -4    7   12      2.38      0.00
    4    7   12     -0.20      0.00
    5    7   12     -0.22      0.00
   -5    8   12      1.82      0.00
   -4    8   12      2.32      0.00
    4    8   12      0.62      0.00
    5    8   12     -0.30      0.00
   -4    9   12      0.14      0.00
   -3    9   12     -0.71      0.00
    3    9   12     -0.39      0.00
    4    9   12      0.53      0.00
   -4   10   12      0.54      0.00
   -3   10   12      0.79      0.00
    2   10   12      0.41      0.00
    3   10   12      0.37      0.00
    4   10   12     -0.66      0.00
   -3   11   12     -1.90      0.00
   -2   11   12     -0.36      0.00
   -1   11   12      0.25      0.00
    0   11   12     -0.05      0.00
    1   11   12      0.06      0.00
    2   11   12      0.53      0.00
    3   11   12     -0.36      0.00
   -3   12   12      1.04      0.00
   -2   12   12      0.05      0.00
   -1   12   12     -0.20      0.00
    0   12   12     -0.15      0.00
    1   12   12      0.36      0.00
    2   12   12     -0.10      0.00
    3   12   12     -0.28      0.00
   -2   13   12     -0.25      0.00
   -1   13   12     -0.27      0.00
    0   13   12      0.16      0.00
    1   13   12      0.33      0.00
    2   13   12     -0.02      0.00
   -5    0   13     -0.05      0.00
    5    0   13      0.71      0.00
   -5    1   13      0.06      0.00
   -4    1   13     -0.50      0.00
    4    1   13      2.41      0.00
    5    1   13     -0.51      0.00
   -5    2   13      0.42      0.00
   -4    2   13     -2.31      0.00
    4    2   13     -0.66      0.00
    5    2   13      0.20      0.00
   -5    3   13     -0.61      0.00
   -4    3   13      0.49      0.00
    4    3   13      0.78      0.00
    5    3   13     -1.12      0.00
   -5    4   13      0.72      0.00
   -4    4   13     -1.16      0.00
    4    4   13      0.34      0.00
   -4    5   13     -0.03      0.00
    3    5   13      1.08      0.00
    4    5   13      0.33      0.00
   -4    6   13     -0.47      0.00
   -3    6   13      0.73      0.00
    3    6   13      0.40      0.00
    4    6   13      0.75      0.00
   -4    7   13     -0.38      0.00
   -3    7   13     -1.02      0.00
    2    7   13      0.86      0.00
    3    7   13      1.22      0.00
    4    7   13      0.08      0.00
   -4    8   13     -0.85      0.00
   -3    8   13      0.22      0.00
   -2    8   13     -1.13      0.00
   -1    8   13     -1.61      0.00
    1    8   13      2.22      0.00
    2    8   13     -0.61      0.00
    3    8   13      0.22      0.00
   -3    9   13      0.01      0.00
   -2    9   13     -0.65      0.00
   -1    9   13      0.62      0.00
    0    9   13     -0.21      0.00
    1    9   13      0.06      0.00
    2    9   13      0.21      0.00
    3    9   13      0.63      0.00
   -2   10   13      0.43      0.00
   -1   10   13     -2.40      0.00
    0   10   13     -0.48      0.00
    1   10   13      1.85      0.00
    2   10   13     -0.14      0.00
   -2   11   13     -0.51      0.00
   -1   11   13      0.70      0.00
    0   11   13      0.38      0.00
    1   11   13      0.04      0.00
   -4    0   14      0.77      0.00
   -2    0   14     -3.46      0.00
    2    0   14      1.38      0.00
    4    0   14     -0.83      0.00
   -4    1   14      0.57      0.00
   -3    1   14      1.49      0.00
   -2    1   14      0.26      0.00
    2    1   14     -0.04      0.00
    3    1   14      0.04      0.00
    4    1   14     -0.44      0.00
   -4    2   14     -0.09      0.00
   -3    2   14      1.23      0.00
   -2    2   14     -0.74      0.00
    2    2   14      1.65      0.00
    3    2   14     -0.63      0.00
    4    2   14     -0.39      0.00
   -4    3   14      0.51      0.00
   -3    3   14      1.59      0.00
   -2    3   14      0.27      0.00
   -1    3   14      2.31      0.00
    1    3   14     -0.16      0.00
    2    3   14      0.45      0.00
    3    3   14      0.46      0.00
   -3    4   14      1.73      0.00
   -2    4   14      1.54      0.00
   -1    4   14      2.73      0.00
    0    4   14     -1.85      0.00
    1    4   14     -0.25      0.00
    2    4   14     -0.68      0.00
    3    4   14      0.42      0.00
   -3    5   14     -0.01      0.00
   -2    5   14      1.73      0.00
   -1    5   14      0.54      0.00
    0    5   14     -0.04      0.00
    1    5   14     -0.86      0.00
    2    5   14     -0.22      0.00
    3    5   14     -0.21      0.00
   -3    6   14      1.39      0.00
   -2    6   14      0.59      0.00
   -1    6   14      0.72      0.00
    0    6   14     -0.62      0.00
    1    6   14      0.58      0.00
    2    6   14     -0.89      0.00
    3    6   14      1.53      0.00
   -2    7   14      1.28      0.00
   -1    7   14     -1.00      0.00
    0    7   14      0.01      0.00
    1    7   14     -0.73      0.00
    2    7   14      0.33      0.00
   -2    8   14      0.48      0.00
   -1    8   14     -0.70      0.00
    0    8   14      0.10      0.00
    1    8   14     -0.83      0.00
    2    8   14      1.02      0.00
   -1    9   14      0.01      0.00
    0    9   14     -0.22      0.00
   -1    0   15     -0.32      0.00
    1    0   15     -1.50      0.00
   -2    1   15      1.60      0.00
   -1    1   15      0.89      0.00
    0    1   15     -0.94      0.00
    1    1   15      0.36      0.00
    2    1   15     -1.60      0.00
   -2    2   15      1.80      0.00
   -1    2   15     -0.66      0.00
    0    2   15      0.47      0.00
    1    2   15     -0.43      0.00
    2    2   15     -0.49      0.00
   -2    3   15      0.64      0.00
   -1    3   15      0.29      0.00
    0    3   15      1.98      0.00
    1    3   15     -0.23      0.00
   -1    4   15      0.55      0.00
    0    4   15      0.56      0.00
    1    4   15      0.46      0.00
    0    5   15      0.91      0.00
    0    0    0      0.00      0.00
# SQUEEZE RESULTS (Version =  90920)
# Note: Data are Listed for all Voids in the P1 Unit Cell
# i.e. Centre of Gravity, Solvent Accessible Volume,
# Recovered number of Electrons in the Void and
# Details about the Squeezed Material
loop_
  _platon_squeeze_void_nr
  _platon_squeeze_void_average_x
  _platon_squeeze_void_average_y
  _platon_squeeze_void_average_z
  _platon_squeeze_void_volume
  _platon_squeeze_void_count_electrons
  _platon_squeeze_void_content
   1 -0.022  0.000  0.015       454       153 '3(C4 H4 S)'
   2 -0.052  0.500  0.000       453       153 '3(C4 H4 S)'
_platon_squeeze_void_probe_radius                  1.20
_platon_squeeze_details
)
TITL C:\Users\hoshino\Desktop\xray\200902_G2BDS_thiophene2\P21n
CELL    7.6230   16.8745   11.8090     90.00     90.49     90.00
SPGR P21/n
# Solvent Accessible Volume =       908
# Electrons Found in S.A.V. =       306
# Note: Atoms in Void are Labelled as Cxxx and Qxxx for all Others
C101 0.057 0.956 0.292 !       9.02 eA-3
C102 0.971 0.112 0.241 !       7.71 eA-3
C103 0.562 0.454 0.322 !       5.45 eA-3
C104 0.533 0.919 0.426 !       4.88 eA-3
C105 0.962 0.561 0.003 !       4.83 eA-3
C106 0.427 0.549 0.153 !       4.67 eA-3
C107 0.096 0.953 0.829 !       4.40 eA-3
C108 0.604 0.997 0.426 !       3.85 eA-3
Q109 0.587 0.393 0.697 !       1.18 eA-3
C110 0.554 0.451 0.425 !       1.01 eA-3
C111 0.989 0.113 0.634 !       1.01 eA-3
Q112 0.989 0.887 0.874 !       0.92 eA-3
C113 0.931 0.895 0.305 !       0.87 eA-3
Q114 0.733 0.154 0.223 !       0.84 eA-3
C115 0.401 0.474 0.538 !       0.82 eA-3
C116 0.168 0.574 0.141 !       0.81 eA-3
Q117 0.509 0.402 0.360 !       0.80 eA-3
C118 0.215 0.379 0.151 !       0.77 eA-3
Q119 0.342 0.918 0.877 !       0.75 eA-3
C120 0.086 0.987 0.474 !       0.71 eA-3
C121 0.115 0.030 0.506 !       0.71 eA-3
Q122 0.947 0.497 0.438 !       0.70 eA-3
Q123 0.518 0.942 0.014 !       0.70 eA-3
C124 0.170 0.950 0.545 !       0.69 eA-3
Q125 0.789 0.501 0.281 !       0.69 eA-3
Q126 0.262 0.895 0.767 !       0.68 eA-3
Q127 0.520 0.707 0.869 !       0.67 eA-3
Q128 0.674 0.999 0.129 !       0.66 eA-3
C129 0.720 0.971 0.618 !       0.65 eA-3
C130 0.308 0.406 0.176 !       0.63 eA-3
C131 0.236 0.484 0.881 !       0.62 eA-3
Q132 0.474 0.145 0.967 !       0.62 eA-3
Q133 0.034 0.516 0.270 !       0.61 eA-3
Q134 0.653 0.607 0.478 !       0.61 eA-3
Q135 0.550 0.064 0.293 !       0.61 eA-3
Q136 0.582 0.090 0.344 !       0.60 eA-3
Q137 0.930 0.423 0.722 !       0.60 eA-3
Q138 0.709 0.124 0.167 !       0.59 eA-3
Q139 0.693 0.057 0.687 !       0.59 eA-3
Q140 1.000 0.500 0.500 !       0.59 eA-3
Q141 0.081 0.436 0.565 !       0.58 eA-3
Q142 0.407 0.200 0.769 !       0.57 eA-3
Q143 0.705 0.934 0.186 !       0.57 eA-3
Q144 0.802 0.891 0.665 !       0.57 eA-3
C145 0.092 0.094 0.414 !       0.56 eA-3
Q146 0.166 0.324 0.128 !       0.55 eA-3
C147 0.616 0.391 0.982 !       0.54 eA-3
Q148 0.096 0.567 0.596 !       0.53 eA-3
Q149 0.295 0.128 0.829 !       0.53 eA-3
Q150 0.442 0.940 0.234 !       0.53 eA-3
C151 0.820 0.081 0.371 !       0.52 eA-3
C152 0.701 0.545 0.827 !       0.52 eA-3
Q153 0.243 0.811 0.302 !       0.51 eA-3
Q154 0.095 0.620 0.155 !       0.51 eA-3
Q155 0.665 0.470 0.522 !       0.51 eA-3
C156 0.742 0.112 0.488 !       0.50 eA-3
Q157 0.649 0.858 0.638 !       0.50 eA-3
)
;
_shelx_fab_checksum              56140
loop_
_space_group_symop_operation_xyz
'x, y, z'
'-x+1/2, y+1/2, -z+1/2'
'-x, -y, -z'
'x-1/2, -y-1/2, z-1/2'
loop_
_atom_site_label
_atom_site_type_symbol
_atom_site_fract_x
_atom_site_fract_y
_atom_site_fract_z
_atom_site_U_iso_or_equiv
_atom_site_adp_type
_atom_site_occupancy
_atom_site_site_symmetry_order
_atom_site_calc_flag
_atom_site_refinement_flags_posn
_atom_site_refinement_flags_adp
_atom_site_refinement_flags_occupancy
_atom_site_disorder_assembly
_atom_site_disorder_group
S1 S 0.46946(15) 0.18512(7) 0.01995(10) 0.0567(4) Uani 1 1 d . . . . .
O1 O 0.4665(4) 0.2162(2) -0.0946(3) 0.0608(8) Uani 1 1 d . . . . .
O2 O 0.6264(4) 0.2084(2) 0.0826(3) 0.0603(9) Uani 1 1 d . . . . .
O3 O 0.3101(4) 0.2019(2) 0.0813(3) 0.0606(9) Uani 1 1 d . . . . .
N1 N 0.4676(5) 0.2778(2) 0.4809(3) 0.0587(10) Uani 1 1 d . . . . .
H1 H 0.567968 0.284881 0.516852 0.070 Uiso 1 1 calc R U . . .
H2 H 0.368034 0.283974 0.517081 0.070 Uiso 1 1 calc R U . . .
N2 N 0.6166(5) 0.2485(2) 0.3175(4) 0.0656(11) Uani 1 1 d . . . . .
H3 H 0.717064 0.255561 0.353363 0.079 Uiso 1 1 calc R U . . .
H4 H 0.615749 0.235246 0.245382 0.079 Uiso 1 1 calc R U . . .
N3 N 0.3136(5) 0.2448(2) 0.3188(4) 0.0616(11) Uani 1 1 d . . . . .
H5 H 0.214401 0.249406 0.355725 0.074 Uiso 1 1 calc R U . . .
H6 H 0.312371 0.231502 0.246693 0.074 Uiso 1 1 calc R U . . .
C1 C 0.4082(6) 0.0335(3) 0.0920(4) 0.0594(12) Uani 1 1 d . . . . .
H7 H 0.346613 0.056781 0.153167 0.071 Uiso 1 1 calc R U . . .
C2 C 0.5720(6) 0.0479(3) -0.0845(4) 0.0582(12) Uani 1 1 d . . . . .
H8 H 0.619853 0.081184 -0.141319 0.070 Uiso 1 1 calc R U . . .
C3 C 0.4823(5) 0.0811(3) 0.0058(4) 0.0523(11) Uani 1 1 d . . . . .
C4 C 0.4663(6) 0.2578(3) 0.3721(4) 0.0543(11) Uani 1 1 d . . . . .
loop_
_atom_site_aniso_label
_atom_site_aniso_U_11
_atom_site_aniso_U_22
_atom_site_aniso_U_33
_atom_site_aniso_U_23
_atom_site_aniso_U_13
_atom_site_aniso_U_12
S1 0.0392(7) 0.0686(8) 0.0625(7) 0.0013(5) 0.0095(5) 0.0008(5)
O1 0.0426(19) 0.073(2) 0.067(2) 0.0070(17) 0.0060(15) -0.0001(15)
O2 0.0401(18) 0.076(2) 0.065(2) -0.0067(17) 0.0104(15) -0.0048(15)
O3 0.0392(18) 0.074(2) 0.069(2) -0.0035(16) 0.0060(15) 0.0034(15)
N1 0.038(2) 0.076(3) 0.062(2) -0.011(2) 0.0132(17) -0.0006(18)
N2 0.041(2) 0.078(3) 0.078(3) -0.017(2) 0.010(2) -0.0009(19)
N3 0.043(2) 0.073(3) 0.070(3) -0.016(2) 0.0100(19) -0.0024(18)
C1 0.045(3) 0.072(3) 0.061(3) -0.004(2) 0.015(2) 0.002(2)
C2 0.053(3) 0.062(3) 0.059(3) 0.004(2) 0.015(2) -0.001(2)
C3 0.032(2) 0.068(3) 0.058(2) 0.002(2) 0.0144(19) 0.0006(18)
C4 0.045(3) 0.054(3) 0.064(3) -0.001(2) 0.006(2) 0.0022(19)
loop_
_atom_type_symbol
_atom_type_description
_atom_type_scat_dispersion_real
_atom_type_scat_dispersion_imag
_atom_type_scat_source
C C 0.0181 0.0091 'International Tables Vol C Tables 4.2.6.8 and 6.1.1.4'
H H 0.0000 0.0000 'International Tables Vol C Tables 4.2.6.8 and 6.1.1.4'
N N 0.0311 0.0180 'International Tables Vol C Tables 4.2.6.8 and 6.1.1.4'
O O 0.0492 0.0322 'International Tables Vol C Tables 4.2.6.8 and 6.1.1.4'
S S 0.3331 0.5567 'International Tables Vol C Tables 4.2.6.8 and 6.1.1.4'
loop_
_geom_angle_atom_site_label_1
_geom_angle_atom_site_label_2
_geom_angle_atom_site_label_3
_geom_angle
_geom_angle_site_symmetry_1
_geom_angle_site_symmetry_3
_geom_angle_publ_flag
O3 S1 O1 112.9(2) . . ?
O3 S1 O2 112.5(2) . . ?
O1 S1 O2 112.5(2) . . ?
O3 S1 C3 106.8(2) . . ?
O1 S1 C3 105.7(2) . . ?
O2 S1 C3 105.7(2) . . ?
C4 N1 H1 120.0 . . ?
C4 N1 H2 120.0 . . ?
H1 N1 H2 120.0 . . ?
C4 N2 H3 120.0 . . ?
C4 N2 H4 120.0 . . ?
H3 N2 H4 120.0 . . ?
C4 N3 H5 120.0 . . ?
C4 N3 H6 120.0 . . ?
H5 N3 H6 120.0 . . ?
C2 C1 C3 118.1(4) 3_655 . ?
C2 C1 H7 120.9 3_655 . ?
C3 C1 H7 120.9 . . ?
C1 C2 C3 120.2(4) 3_655 . ?
C1 C2 H8 119.9 3_655 . ?
C3 C2 H8 119.9 . . ?
C2 C3 C1 121.6(5) . . ?
C2 C3 S1 120.1(4) . . ?
C1 C3 S1 118.2(4) . . ?
N1 C4 N2 120.0(4) . . ?
N1 C4 N3 119.8(4) . . ?
N2 C4 N3 120.1(4) . . ?
loop_
_geom_bond_atom_site_label_1
_geom_bond_atom_site_label_2
_geom_bond_distance
_geom_bond_site_symmetry_2
_geom_bond_publ_flag
S1 O3 1.448(3) . ?
S1 O1 1.451(4) . ?
S1 O2 1.455(4) . ?
S1 C3 1.766(5) . ?
N1 C4 1.328(6) . ?
N1 H1 0.8800 . ?
N1 H2 0.8800 . ?
N2 C4 1.330(6) . ?
N2 H3 0.8800 . ?
N2 H4 0.8800 . ?
N3 C4 1.337(6) . ?
N3 H5 0.8800 . ?
N3 H6 0.8800 . ?
C1 C2 1.385(7) 3_655 ?
C1 C3 1.419(6) . ?
C1 H7 0.9500 . ?
C2 C3 1.389(6) . ?
C2 H8 0.9500 . ?
loop_
_geom_torsion_atom_site_label_1
_geom_torsion_atom_site_label_2
_geom_torsion_atom_site_label_3
_geom_torsion_atom_site_label_4
_geom_torsion
_geom_torsion_site_symmetry_1
_geom_torsion_site_symmetry_2
_geom_torsion_site_symmetry_3
_geom_torsion_site_symmetry_4
_geom_torsion_publ_flag
C1 C2 C3 C1 -0.3(8) 3_655 . . . ?
C1 C2 C3 S1 175.9(4) 3_655 . . . ?
C2 C1 C3 C2 0.3(8) 3_655 . . . ?
C2 C1 C3 S1 -176.0(4) 3_655 . . . ?
O3 S1 C3 C2 153.1(4) . . . . ?
O1 S1 C3 C2 32.5(4) . . . . ?
O2 S1 C3 C2 -86.9(4) . . . . ?
O3 S1 C3 C1 -30.6(4) . . . . ?
O1 S1 C3 C1 -151.1(4) . . . . ?
O2 S1 C3 C1 89.4(4) . . . . ?
