#------------------------------------------------------------------------------
#$Date: 2021-02-05 01:04:31 +0200 (Fri, 05 Feb 2021) $
#$Revision: 261628 $
#$URL: file:///home/coder/svn-repositories/cod/cif/7/24/18/7241848.cif $
#------------------------------------------------------------------------------
#
# This file is available in the Crystallography Open Database (COD),
# http://www.crystallography.net/
#
# All data on this site have been placed in the public domain by the
# contributors.
#
data_7241848
loop_
_publ_author_name
'Gu\'nka, Piotr A.'
'Hanfland, Michael'
'Chen, Yu-Sheng'
'Zachara, Janusz'
_publ_section_title
;
 High-pressure and low-temperature structural study of claudetite I, a
 monoclinic layered As2O3 polymorph
;
_journal_issue                   3
_journal_name_full               CrystEngComm
_journal_page_first              638
_journal_page_last               644
_journal_paper_doi               10.1039/D0CE01401J
_journal_volume                  23
_journal_year                    2021
_chemical_formula_moiety         'As2 O3'
_chemical_formula_sum            'As2 O3'
_chemical_formula_weight         197.84
_chemical_name_common            'claudetite I'
_chemical_name_systematic
;
arsenic(III) oxide
;
_space_group_IT_number           14
_space_group_name_Hall           '-P 2yn'
_space_group_name_H-M_alt        'P 1 21/n 1'
_symmetry_cell_setting           monoclinic
_symmetry_space_group_name_H-M   'P 1 21/n 1'
_audit_creation_date             2020-10-21T15:01
_audit_creation_method           'created in GSAS-II'
_audit_update_record
;
2020-10-22 deposited with the CCDC.	2020-12-10 downloaded from the CCDC.
;
_cell_angle_alpha                90
_cell_angle_beta                 94.7608(29)
_cell_angle_gamma                90
_cell_formula_units_Z            4
_cell_length_a                   4.7416(4)
_cell_length_b                   11.8243(7)
_cell_length_c                   4.17264(27)
_cell_measurement_pressure       1.56e7(5)
_cell_measurement_temperature    293
_cell_volume                     233.14(3)
_computing_data_reduction        Fit2D
_computing_structure_refinement
'GSAS-II (Toby & Von Dreele, J. Appl. Cryst. 46, 544-549, 2013)'
_diffrn_ambient_pressure         1.56e7(5)
_diffrn_ambient_temperature      293
_diffrn_detector                 'Mar555 flat panel'
_diffrn_detector_type            'Mar555 flat panel'
_diffrn_measurement_device_type  'ESRF ID09A beamline'
_diffrn_radiation_monochromator  Si
_diffrn_radiation_polarisn_ratio 0.9900
_diffrn_radiation_probe          x-ray
_diffrn_radiation_wavelength     0.41421
_diffrn_source                   'ESRF ID09A'
_diffrn_source_type              synchrotron
_exptl_crystal_colour            colourless
_exptl_crystal_density_diffrn    5.6365
_exptl_crystal_description       'white powder'
_pd_block_id                     2020-10-21T15:01|clau1_026rietveld||id09a
_pd_calc_method                  'Rietveld Refinement'
_pd_meas_number_of_points        4000
_pd_phase_name                   claudetiteI
_pd_prep_pressure                100.0(1)
_pd_prep_temperature             293
_pd_proc_info_datetime           2020-10-21T15:01
_pd_proc_ls_background_function
;
Background function: "chebyschev" function with 30 terms:
    745.9(8), 557(3), -1068(8), -13103(20), 48765(20), 348470(28), 
    -1.010676(7)e6, -4.756807(19)e6, 1.2323925(14)e7, 3.6971648(12)e7, 
    -9.4418331(16)e7, -1.74953793(27)e8, 4.74190954(11)e8, 5.19097326(27)e8, 
    -1.618008836(7)e9, -9.38853749(14)e8, 3.843190559(10)e9, 
    8.36972643(9)e8, -6.425634724(16)e9, 3.02799796(23)e8, 7.538210314(18)e9, 
    -1.86195107(3)e9, -6.076327299(15)e9, 2.442511784(31)e9, 
    3.205986024(7)e9, -1.682993155(18)e9, -9.97196398(10)e8, 
    6.22795730(12)e8, 1.38646700(29)e8, -9.797599(5)e7, 
;
_pd_proc_ls_pref_orient_corr
;
Simple spherical harmonic correction Order = 6
    Coefficients:  0:0:C(6,6) = 0.004(24); 0:0:C(4,4) = 0.104(23); 
    0:0:C(6,-2) = -0.092(31); 0:0:C(2,-2) = 0.036(16); 0:0:C(4,-4) = -0.184(20); 
    0:0:C(2,2) = 0.491(17); 0:0:C(4,0) = -0.282(18); 0:0:C(6,-6) = -0.195(31); 
    0:0:C(6,4) = -0.154(28); 0:0:C(4,2) = -0.290(22); 0:0:C(6,2) = -0.206(30); 
    0:0:C(6,-4) = 0.221(22); 0:0:C(6,0) = 0.124(25); 0:0:C(2,0) = -0.554(15); 
    0:0:C(4,-2) = -0.082(21); 
;
_pd_proc_ls_profile_function
;
Finger-Cox-Jephcoat function parameters U, V, W, X, Y, SH/L:
  peak variance(Gauss) = Utan(Th)^2^+Vtan(Th)+W:
  peak HW(Lorentz) = X/cos(Th)+Ytan(Th); SH/L = S/L+H/L
  U, V, W in (centideg)^2^, X & Y in centideg
    6.8(4)e3, -1.03(7)e3, 43.7(30), 3.0(4), -16(10), 0.002, 
  Crystallite size in microns with "isotropic" model:
  parameters: Size, G/L mix
    1.000, 1.000, 
  Microstrain, "isotropic" model (10^6^ * delta Q/Q)
    parameters: Mustrain, G/L mix
    1000.000, 1.000, 

;
_pd_proc_ls_prof_R_factor        0.00800
_pd_proc_ls_prof_wR_expected     0.03585
_pd_proc_ls_prof_wR_factor       0.01244
_refine_ls_goodness_of_fit_all   0.354
_refine_ls_matrix_type           full
_refine_ls_number_parameters     72
_refine_ls_R_Fsqd_factor         0.04872
_refine_ls_shift/su_max          0.0041
_refine_ls_wR_factor_obs         0.01247
_reflns_d_resolution_high        1.111
_reflns_d_resolution_low         5.912
_reflns_limit_h_max              4
_reflns_limit_h_min              0
_reflns_limit_k_max              10
_reflns_limit_k_min              0
_reflns_limit_l_max              3
_reflns_limit_l_min              -3
_reflns_number_total             178
_cod_data_source_file            d0ce01401j3.cif
_cod_data_source_block           clau1_026rietveld
_cod_depositor_comments
'Adding full bibliography for 7241824--7241862.cif.'
_cod_original_cell_volume        233.138(16)
_cod_database_code               7241848
_refine_ls_r_f_factor            0.03164
_gsas_proc_ls_prof_r_b_factor    0.01404
_gsas_proc_ls_prof_wr_b_factor   0.02344
loop_
_space_group_symop_id
_space_group_symop_operation_xyz
1 x,y,z
2 1/2-x,1/2+y,1/2-z
3 -x,-y,-z
4 1/2+x,1/2-y,1/2+z
loop_
_atom_site_label
_atom_site_type_symbol
_atom_site_fract_x
_atom_site_fract_y
_atom_site_fract_z
_atom_site_occupancy
_atom_site_adp_type
_atom_site_U_iso_or_equiv
_atom_site_symmetry_multiplicity
As1 As 0.2788(8) 0.0879(3) 0.0698(7) 1.000 Uiso 0.0186(17) 4
As2 As 0.3252(6) 0.3559(3) 0.0253(7) 1.000 Uiso 0.0186 4
O3 O 0.4587(20) 0.2185(4) 0.102(4) 1.000 Uiso 0.0186 4
O4 O 0.6630(19) 0.4109(14) 0.1550(13) 1.000 Uiso 0.0186 4
O5 O -0.0740(18) 0.1232(21) 0.1320(13) 1.000 Uiso 0.0186 4
loop_
_atom_type_symbol
_atom_type_number_in_cell
_atom_type_scat_Cromer_Mann_a1
_atom_type_scat_Cromer_Mann_a2
_atom_type_scat_Cromer_Mann_a3
_atom_type_scat_Cromer_Mann_a4
_atom_type_scat_Cromer_Mann_b1
_atom_type_scat_Cromer_Mann_b2
_atom_type_scat_Cromer_Mann_b3
_atom_type_scat_Cromer_Mann_b4
_atom_type_scat_Cromer_Mann_c
_atom_type_scat_length_neutron
_atom_type_scat_source
_atom_type_scat_dispersion_real
_atom_type_scat_dispersion_imag
_atom_type_scat_dispersion_source
As 8 16.6723 6.0701 3.4313 4.2779 2.6345 0.2647 12.9479 47.7972 2.531 0.658
https://subversion.xray.aps.anl.gov/pyGSAS/trunk/atmdata.py 0.283 0.775
https://subversion.xray.aps.anl.gov/pyGSAS/trunk/atmdata.py
O 12 3.0485 2.2868 1.5463 0.867 13.2771 5.7011 0.3239 32.9089 0.2508 0.5805
https://subversion.xray.aps.anl.gov/pyGSAS/trunk/atmdata.py 0.002 0.002
https://subversion.xray.aps.anl.gov/pyGSAS/trunk/atmdata.py
loop_
_geom_angle_atom_site_label_1
_geom_angle_atom_site_label_2
_geom_angle_atom_site_label_3
_geom_angle
_geom_angle_site_symmetry_1
_geom_angle_site_symmetry_2
_geom_angle_site_symmetry_3
_geom_angle_publ_flag
O3 As1 O4 100.2(8) 1_555 1_555 4_454 yes
O3 As1 O5 103.9(9) 1_555 1_555 1_555 yes
O4 As1 O5 85.4(3) 4_454 1_555 1_555 yes
O3 As2 O4 88.9(6) 1_555 1_555 1_555 yes
O3 As2 O5 100.2(13) 1_555 1_555 4_554 yes
O4 As2 O5 85.7(4) 1_555 1_555 4_554 yes
As1 O3 As2 128.9(5) 1_555 1_555 1_555 yes
As1 O4 As2 120.1(4) 4_555 1_555 1_555 yes
As1 O5 As2 120.2(4) 1_555 1_555 4_455 yes
loop_
_geom_bond_atom_site_label_1
_geom_bond_atom_site_label_2
_geom_bond_distance
_geom_bond_site_symmetry_1
_geom_bond_site_symmetry_2
_geom_bond_publ_flag
As1 O3 1.764(3) 1_555 1_555 yes
As1 O4 1.772(3) 1_555 4_454 yes
As1 O5 1.764(3) 1_555 1_555 yes
As2 O3 1.764(3) 1_555 1_555 yes
As2 O4 1.771(3) 1_555 1_555 yes
As2 O5 1.765(3) 1_555 4_554 yes
loop_
_pd_meas_2theta_scan
_pd_meas_intensity_total
_pd_calc_intensity_total
_pd_proc_intensity_bkg_calc
_pd_proc_ls_weight
0.00440 124.16972 0 0 0
0.01321 111.33566 0 0 0
0.02202 108.20241 0 0 0
0.03083 107.10738 0 0 0
0.03963 107.01357 0 0 0
0.04844 106.77811 0 0 0
0.05725 104.99239 0 0 0
0.06605 104.85293 0 0 0
0.07486 104.28889 0 0 0
0.08367 105.68941 0 0 0
0.09248 107.29428 0 0 0
0.10128 107.74294 0 0 0
0.11009 106.61575 0 0 0
0.11890 104.74076 0 0 0
0.12770 103.72319 0 0 0
0.13651 105.34244 0 0 0
0.14532 106.76791 0 0 0
0.15413 106.47036 0 0 0
0.16293 103.93961 0 0 0
0.17174 103.74291 0 0 0
0.18055 104.27935 0 0 0
0.18935 105.16558 0 0 0
0.19816 104.38638 0 0 0
0.20697 104.35272 0 0 0
0.21578 105.04668 0 0 0
0.22458 104.9155 0 0 0
0.23339 104.89202 0 0 0
0.24220 105.20867 0 0 0
0.25100 106.18934 0 0 0
0.25981 107.13743 0 0 0
0.26862 108.22717 0 0 0
0.27743 108.10294 0 0 0
0.28623 107.04726 0 0 0
0.29504 106.62101 0 0 0
0.30385 105.79842 0 0 0
0.31265 106.6786 0 0 0
0.32146 107.54917 0 0 0
0.33027 107.76569 0 0 0
0.33908 107.8623 0 0 0
0.34788 109.92097 0 0 0
0.35669 109.60223 0 0 0
0.36550 108.77838 0 0 0
0.37430 108.09919 0 0 0
0.38311 107.99489 0 0 0
0.39192 107.99817 0 0 0
0.40073 107.57295 0 0 0
0.40953 107.53783 0 0 0
0.41834 107.78593 0 0 0
0.42715 108.88917 0 0 0
0.43595 108.18546 0 0 0
0.44476 107.46317 0 0 0
0.45357 106.59052 0 0 0
0.46238 106.26481 0 0 0
0.47118 107.00126 0 0 0
0.47999 108.45405 0 0 0
0.48880 108.7411 0 0 0
0.49760 108.33224 0 0 0
0.50641 108.2033 0 0 0
0.51522 108.10565 0 0 0
0.52403 108.64016 0 0 0
0.53283 107.51949 0 0 0
0.54164 106.80864 0 0 0
0.55045 106.39429 0 0 0
0.55926 107.17299 0 0 0
0.56806 108.77785 0 0 0
0.57687 109.16843 0 0 0
0.58568 108.73083 0 0 0
0.59448 108.18847 0 0 0
0.60329 107.60002 0 0 0
0.61210 107.87949 0 0 0
0.62091 107.92808 0 0 0
0.62971 108.24601 0 0 0
0.63852 108.75884 0 0 0
0.64733 109.38297 0 0 0
0.65613 109.6188 0 0 0
0.66494 109.3803 0 0 0
0.67375 108.63649 0 0 0
0.68256 108.63633 0 0 0
0.69136 108.67507 0 0 0
0.70017 109.33539 0 0 0
0.70898 109.92534 0 0 0
0.71778 109.46384 0 0 0
0.72659 109.15599 0 0 0
0.73540 109.4883 0 0 0
0.74421 109.67324 0 0 0
0.75301 108.48287 0 0 0
0.76182 107.37689 0 0 0
0.77063 107.6042 0 0 0
0.77943 108.17052 0 0 0
0.78824 108.76766 0 0 0
0.79705 109.48983 0 0 0
0.80586 111.24642 0 0 0
0.81466 112.25864 0 0 0
0.82347 112.41402 0 0 0
0.83228 112.03281 0 0 0
0.84108 112.52889 0 0 0
0.84989 112.91677 0 0 0
0.85870 112.93005 0 0 0
0.86751 114.86724 0 0 0
0.87631 115.29353 0 0 0
0.88512 115.01779 0 0 0
0.89393 115.44888 0 0 0
0.90273 117.56387 0 0 0
0.91154 119.50494 0 0 0
0.92035 120.48084 0 0 0
0.92916 122.21043 0 0 0
0.93796 122.43846 0 0 0
0.94677 125.83862 0 0 0
0.95558 127.25677 0 0 0
0.96438 128.92937 0 0 0
0.97319 127.41518 0 0 0
0.98200 128.4548 0 0 0
0.99081 131.43071 0 0 0
0.99961 134.26128 0 0 0
1.00842 134.89731 0 0 0
1.01723 138.71013 0 0 0
1.02604 143.26054 0 0 0
1.03484 151.80351 0 0 0
1.04365 159.54222 0 0 0
1.05246 169.31123 0 0 0
1.06126 174.33513 0 0 0
1.07007 183.87453 0 0 0
1.07888 188.71744 0 0 0
1.08769 195.20796 0 0 0
1.09649 201.88977 0 0 0
1.10530 207.64641 0 0 0
1.11411 214.35339 0 0 0
1.12291 220.4388 0 0 0
1.13172 224.49292 0 0 0
1.14053 227.5108 0 0 0
1.14934 231.78822 0 0 0
1.15814 236.4915 0 0 0
1.16695 238.75381 0 0 0
1.17576 241.5 0 0 0
1.18456 242.66959 0 0 0
1.19337 244.92334 0 0 0
1.20218 246.38329 0 0 0
1.21099 248.58432 0 0 0
1.21979 250.8598 0 0 0
1.22860 252.69928 0 0 0
1.23741 254.44066 0 0 0
1.24621 256.82278 0 0 0
1.25502 258.7446 0 0 0
1.26383 259.53314 0 0 0
1.27264 260.7377 0 0 0
1.28144 262.8754 0 0 0
1.29025 264.68436 0 0 0
1.29906 265.64478 0 0 0
1.30786 268.00781 0 0 0
1.31667 270.77686 0 0 0
1.32548 272.035 0 0 0
1.33429 274.10394 0 0 0
1.34309 275.90369 0 0 0
1.35190 277.37421 0 0 0
1.36071 278.11603 0 0 0
1.36951 278.69849 0 0 0
1.37832 280.26111 0 0 0
1.38713 280.15555 0 0 0
1.39594 281.43735 0 0 0
1.40474 282.46896 0 0 0
1.41355 283.96838 0 0 0
1.42236 285.38904 0 0 0
1.43116 287.03769 0 0 0
1.43997 288.28397 0 0 0
1.44878 289.27344 0 0 0
1.45759 289.47647 0 0 0
1.46639 290.98416 0 0 0
1.47520 292.78683 0 0 0
1.48401 293.34552 0 0 0
1.49281 293.375 0 0 0
1.50162 295.27939 0 0 0
1.51043 296.98376 0 0 0
1.51924 297.73529 0 0 0
1.52804 298.56497 0 0 0
1.53685 299.55975 0 0 0
1.54566 300.62967 0 0 0
1.55446 301.66241 0 0 0
1.56327 302.59888 0 0 0
1.57208 303.08945 0 0 0
1.58089 303.97546 0 0 0
1.58969 304.94193 0 0 0
1.59850 305.79782 0 0 0
1.60731 306.59271 0 0 0
1.61612 308.07443 0 0 0
1.62492 309.08948 0 0 0
1.63373 310.34863 0 0 0
1.64254 311.22504 0 0 0
1.65134 311.11993 0 0 0
1.66015 311.48105 0 0 0
1.66896 311.31375 0 0 0
1.67777 312.15298 0 0 0
1.68657 313.97482 0 0 0
1.69538 315.35538 0 0 0
1.70419 315.12964 0 0 0
1.71299 315.02325 0 0 0
1.72180 315.36627 0 0 0
1.73061 316.72791 0 0 0
1.73942 318.36203 0 0 0
1.74822 319.59961 0 0 0
1.75703 320.24283 0 0 0
1.76584 320.25604 0 0 0
1.77464 321.0455 0 0 0
1.78345 321.09534 0 0 0
1.79226 320.94885 0 0 0
1.80107 321.56409 0 0 0
1.80987 322.31503 0 0 0
1.81868 323.63107 0 0 0
1.82749 325.51038 0 0 0
1.83629 326.58591 0 0 0
1.84510 326.88177 0 0 0
1.85391 328.26443 0 0 0
1.86272 329.3483 0 0 0
1.87152 329.36584 0 0 0
1.88033 329.41946 0 0 0
1.88914 329.45438 0 0 0
1.89794 329.44403 0 0 0
1.90675 329.95273 0 0 0
1.91556 330.48358 0 0 0
1.92437 330.96909 0 0 0
1.93317 332.92609 0 0 0
1.94198 333.49283 0 0 0
1.95079 333.92136 0 0 0
1.95959 334.32336 0 0 0
1.96840 335.87604 0 0 0
1.97721 336.12439 0 0 0
1.98602 336.22699 0 0 0
1.99482 337.02209 0 0 0
2.00363 337.56616 0 0 0
2.01244 338.45493 0 0 0
2.02124 337.78888 0 0 0
2.03005 338.6734 0 0 0
2.03886 340.61438 0 0 0
2.04767 341.53122 0 0 0
2.05647 341.95251 0 0 0
2.06528 342.20035 0 0 0
2.07409 343.21741 0 0 0
2.08289 344.48981 0 0 0
2.09170 345.95966 0 0 0
2.10051 345.8175 0 0 0
2.10932 345.63361 0 0 0
2.11812 345.25287 0 0 0
2.12693 345.98849 0 0 0
2.13574 346.25925 0 0 0
2.14455 346.97867 0 0 0
2.15335 346.62936 0 0 0
2.16216 347.41708 0 0 0
2.17097 348.81366 0 0 0
2.17977 349.79178 0 0 0
2.18858 350.34561 0 0 0
2.19739 350.86288 0 0 0
2.20620 351.90738 0 0 0
2.21500 352.6698 0 0 0
2.22381 353.55325 0 0 0
2.23262 353.08438 0 0 0
2.24142 352.98758 0 0 0
2.25023 352.9653 0 0 0
2.25904 353.99545 0 0 0
2.26785 354.77368 0 0 0
2.27665 354.81549 0 0 0
2.28546 355.10025 0 0 0
2.29427 355.62762 0 0 0
2.30307 356.23795 0 0 0
2.31188 357.24445 0 0 0
2.32069 357.30823 0 0 0
2.32950 357.3847 0 0 0
2.33830 357.14545 0 0 0
2.34711 357.54495 0 0 0
2.35592 358.15033 0 0 0
2.36472 359.26926 0 0 0
2.37353 360.00125 0 0 0
2.38234 360.53275 0 0 0
2.39115 361.45276 0 0 0
2.39995 362.6225 0 0 0
2.40876 363.20709 0 0 0
2.41757 363.67764 0 0 0
2.42637 363.58899 0 0 0
2.43518 363.82047 0 0 0
2.44399 363.75067 0 0 0
2.45280 363.45749 0 0 0
2.46160 363.65494 0 0 0
2.47041 364.12497 0 0 0
2.47922 364.32181 0 0 0
2.48802 364.68262 0 0 0
2.49683 365.34424 0 0 0
2.50564 366.21146 0 0 0
2.51445 366.81769 0 0 0
2.52325 367.40781 367.46338 367.361453 0.002721771
2.53206 367.63159 367.273645 367.171287 0.002720114
2.54087 367.05515 367.262649 367.159856 0.002724386
2.54967 367.01199 367.400504 367.297274 0.002724707
2.55848 367.83167 367.660694 367.557023 0.002718635
2.56729 369.34146 368.019766 367.915652 0.002707522
2.57610 370.33713 368.45708 368.352518 0.002700242
2.58490 370.51105 368.954548 368.849535 0.002698975
2.59371 370.3541 369.496422 369.390956 0.002700119
2.60252 370.71088 370.069061 369.963137 0.00269752
2.61132 371.54935 370.66898 370.554376 0.002691433
2.62013 372.22549 371.269759 371.154664 0.002686544
2.62894 372.41937 371.871207 371.755618 0.002685145
2.63775 371.59299 372.466279 372.350191 0.002691116
2.64655 371.47452 373.049239 372.932649 0.002691975
2.65536 372.15021 373.615447 373.498351 0.002687087
2.66417 373.40054 374.16127 374.043664 0.002678089
2.67298 373.75626 374.683967 374.565848 0.00267554
2.68178 374.23657 375.181566 375.062928 0.002672107
2.69059 374.43692 375.652804 375.533645 0.002670677
2.69940 375.03433 376.096988 375.977303 0.002666423
2.70820 375.66315 376.513956 376.393742 0.002661959
2.71701 375.98917 376.903982 376.783234 0.002659651
2.72582 376.05392 377.267726 377.14644 0.002659193
2.73463 375.63132 377.606145 377.484316 0.002662185
2.74343 375.78412 377.920478 377.798102 0.002661102
2.75224 376.5968 378.212154 378.089227 0.00265536
2.76105 377.02325 378.482786 378.359303 0.002652356
2.76985 377.57242 378.762866 378.610064 0.002648499
2.77866 377.64063 378.996786 378.843326 0.00264802
2.78747 378.00592 379.215096 379.060972 0.002645461
2.79628 377.87659 379.419705 379.264911 0.002646367
2.80508 378.45782 379.612526 379.457058 0.002642302
2.81389 379.46069 379.795464 379.639317 0.002635319
2.82270 379.70099 379.970384 379.813551 0.002633651
2.83150 379.87097 380.139104 379.98158 0.002632473
2.84031 380.40955 380.303371 380.145151 0.002628746
2.84912 380.65332 380.464864 380.305943 0.002627062
2.85793 380.39447 380.625172 380.465543 0.00262885
2.86673 381.44073 380.78579 380.625448 0.002621639
2.87554 382.17203 380.948121 380.787059 0.002616623
2.88435 382.39484 381.113456 380.95167 0.002615098
2.89315 382.18179 381.28298 381.120462 0.002616556
2.90196 382.42078 381.457781 381.294526 0.002614921
2.91077 382.76413 381.638826 381.474827 0.002612575
2.91958 382.405 381.826974 381.662225 0.002615029
2.92838 381.75558 382.029256 381.857472 0.002619477
2.93719 382.4209 382.233783 382.061216 0.00261492
2.94600 383.5271 382.448241 382.273992 0.002607378
2.95480 384.15948 382.6713 382.49625 0.002603086
2.96361 384.89511 382.904183 382.728325 0.00259811
2.97242 384.98566 383.147142 382.97047 0.002597499
2.98123 385.11276 383.400338 383.222844 0.002596642
2.99003 385.78311 383.663839 383.485516 0.00259213
2.99884 386.25931 383.937646 383.758486 0.002588934
3.00765 386.14719 384.221674 384.04167 0.002589686
3.01645 386.35056 384.51577 384.334914 0.002588323
3.02526 386.88983 384.819709 384.637992 0.002584715
3.03407 387.65866 385.133231 384.950646 0.002579589
3.04288 388.12994 385.455993 385.272532 0.002576457
3.05168 388.34421 385.787615 385.603269 0.002575035
3.06049 388.3429 386.127668 385.942428 0.002575044
3.06930 388.28043 386.475685 386.289543 0.002575458
3.07810 388.48376 386.831161 386.644108 0.00257411
3.08691 387.94812 387.193571 387.005598 0.002577664
3.09572 387.95816 387.562354 387.373451 0.002577598
3.10453 388.28128 387.936932 387.74709 0.002575453
3.11333 388.90936 388.316709 388.125918 0.002571293
3.12214 389.66934 388.701074 388.509325 0.002566278
3.13095 389.56485 389.08942 388.896703 0.002566967
3.13976 389.51678 389.481121 389.287424 0.002567283
3.14856 390.47217 389.875555 389.680869 0.002561002
3.15737 392.19547 390.27209 390.076404 0.002549749
3.16618 392.54324 390.670138 390.47344 0.00254749
3.17498 392.14224 391.069078 390.871357 0.002550095
3.18379 392.50522 391.468315 391.269559 0.002547737
3.19260 392.25125 391.867268 391.667466 0.002549386
3.20140 392.03305 392.265364 392.064503 0.002550805
3.21021 392.28906 392.662067 392.460135 0.002549141
3.21902 393.43045 393.056842 392.853827 0.002541745
3.22783 393.98856 393.449183 393.245071 0.002538145
3.23663 394.22318 393.838607 393.633384 0.002536634
3.24544 394.01895 394.224654 394.018306 0.002537949
3.25425 393.94513 394.606886 394.3994 0.002538425
3.26306 393.61301 394.984905 394.776265 0.002540566
3.27186 393.69852 395.358328 395.148519 0.002540015
3.28067 394.05081 395.726802 395.515808 0.002537744
3.28948 394.49609 396.089993 395.877799 0.002534879
3.29828 394.62189 396.447632 396.23422 0.002534071
3.30709 395.22159 396.799441 396.584794 0.002530226
3.31590 396.48273 397.145185 396.929286 0.002522178
3.32471 396.84576 397.484658 397.267488 0.002519871
3.33351 397.11447 397.817679 397.59922 0.002518166
3.34232 397.60443 398.144107 397.924339 0.002515063
3.35113 397.07584 398.463819 398.242721 0.002518411
3.35993 396.41232 398.776722 398.554274 0.002522626
3.36874 396.81946 399.082753 398.858932 0.002520038
3.37755 397.98114 399.381872 399.156656 0.002512682
3.38636 398.10199 399.674065 399.44743 0.002511919
3.39516 397.54895 399.959352 399.731273 0.002515414
3.40397 397.18616 400.237766 400.008219 0.002517711
3.41278 398.24249 400.50937 400.278326 0.002511033
3.42158 398.62061 400.774246 400.541678 0.002508651
3.43039 398.98343 401.03249 400.798371 0.00250637
3.43920 398.62833 401.284245 401.048543 0.002508602
3.44801 399.42023 401.529648 401.292331 0.002503629
3.45681 400.48929 401.768861 401.529895 0.002496946
3.46562 401.08392 402.002061 401.761412 0.002493244
3.47443 401.09454 402.229449 401.987081 0.002493178
3.48323 401.50943 402.451232 402.207106 0.002490602
3.49204 401.63748 402.667636 402.421712 0.002489807
3.50085 401.45221 402.878897 402.631131 0.002490957
3.50966 401.35684 403.085263 402.83561 0.002491548
3.51846 401.71939 403.286989 403.035402 0.0024893
3.52727 401.39349 403.484622 403.230776 0.002491321
3.53608 402.15216 403.677886 403.422001 0.002486621
3.54488 402.0762 403.867337 403.609356 0.002487091
3.55369 402.47507 404.053261 403.793124 0.002484626
3.56250 403.00598 404.235946 403.973589 0.002481353
3.57131 403.26169 404.415698 404.151052 0.002479779
3.58011 403.17386 404.59281 404.325802 0.00248032
3.58892 402.67526 404.767581 404.498133 0.002483391
3.59773 403.5484 404.94031 404.668338 0.002478018
3.60653 404.25146 405.111302 404.836716 0.002473708
3.61534 404.87708 405.280853 405.003555 0.002469885
3.62415 405.3475 405.44926 405.169148 0.002467019
3.63296 405.45691 405.616819 405.333778 0.002466353
3.64176 405.74591 405.783819 405.497728 0.002464597
3.65057 405.93887 405.950552 405.661278 0.002463425
3.65938 406.31158 406.117299 405.824697 0.002461165
3.66818 406.57675 406.284337 405.98825 0.00245956
3.67699 407.1546 406.451939 406.152197 0.00245607
3.68580 407.7251 406.620372 406.316786 0.002452633
3.69461 407.39774 406.789891 406.482254 0.002454604
3.70341 407.05551 406.960761 406.648847 0.002456667
3.71222 406.65158 407.133225 406.816782 0.002459108
3.72103 406.61197 407.307524 406.986275 0.002459347
3.72984 407.70291 407.483892 407.157527 0.002452766
3.73864 408.22131 407.662563 407.330737 0.002449652
3.74745 409.01373 407.843759 407.506086 0.002444906
3.75626 409.45404 408.027705 407.683747 0.002442277
3.76506 409.18677 408.214621 407.863881 0.002443872
3.77387 408.02734 408.40473 408.046635 0.002450816
3.78268 407.22922 408.598273 408.232152 0.002455619
3.79149 408.05896 408.7955 408.420556 0.002450626
3.80029 409.17816 408.996704 408.611962 0.002443923
3.80910 410.08206 409.202233 408.806473 0.002438536
3.81791 410.66104 409.412527 409.00418 0.002435098
3.82671 411.095 409.628155 409.205155 0.002432528
3.83552 411.18616 409.849902 409.409479 0.002431988
3.84433 410.57208 410.078795 409.617201 0.002435626
3.85314 410.34216 410.316209 409.828363 0.002436991
3.86194 410.63046 410.563944 410.043001 0.00243528
3.87075 411.63016 410.824273 410.261136 0.002429365
3.87956 412.00095 411.099971 410.482778 0.002427179
3.88836 412.22498 411.394278 410.707924 0.00242586
3.89717 412.30078 411.710762 410.936565 0.002425414
3.90598 412.52347 412.053093 411.168676 0.002424105
3.91479 413.06003 412.424709 411.40423 0.002420956
3.92359 412.80887 412.828327 411.643183 0.002422429
3.93240 413.57669 413.265462 411.885483 0.002417931
3.94121 414.29559 413.735818 412.131071 0.002413736
3.95001 414.53629 414.236752 412.379877 0.002412334
3.95882 414.78159 414.762681 412.63182 0.002410907
3.96763 415.7287 415.304445 412.886815 0.002405415
3.97644 417.04388 415.848788 413.144777 0.002397829
3.98524 418.12189 416.377757 413.405597 0.002391647
3.99405 419.15048 416.869227 413.669172 0.002385778
4.00286 420.7254 417.299178 413.935386 0.002376847
4.01166 421.98318 417.646758 414.204117 0.002369763
4.02047 422.17169 417.900795 414.475242 0.002368705
4.02928 421.07669 418.064016 414.748627 0.002374864
4.03809 420.19574 418.151899 415.024135 0.002379843
4.04689 419.2211 418.187048 415.301631 0.002385376
4.05570 418.91843 418.206791 415.580967 0.0023871
4.06451 418.52304 418.203838 415.861997 0.002389355
4.07331 418.57629 418.227712 416.144569 0.002389051
4.08212 418.22287 418.249991 416.428527 0.00239107
4.09093 418.49716 418.297939 416.713722 0.002389502
4.09974 419.34277 418.375669 416.999992 0.002384684
4.10854 419.6937 418.484614 417.28718 0.00238269
4.11735 419.67157 418.624051 417.575126 0.002382816
4.12616 419.71909 418.791728 417.863668 0.002382546
4.13496 419.7626 418.984372 418.152645 0.002382299
4.14377 419.54971 419.19823 418.441902 0.002383508
4.15258 419.28458 419.42946 418.731276 0.002385015
4.16139 418.853 419.674432 419.02061 0.002387472
4.17019 418.93628 419.929918 419.309728 0.002386998
4.17900 419.32156 420.193228 419.59851 0.002384805
4.18781 419.20175 420.462144 419.886785 0.002385486
4.19661 419.8526 420.734928 420.174399 0.002381788
4.20542 420.94098 421.010257 420.461211 0.00237563
4.21423 421.33005 421.287123 420.747071 0.002373436
4.22304 420.85309 421.564773 421.031839 0.002376126
4.23184 420.18619 421.842638 421.315376 0.002379897
4.24065 419.86655 422.120282 421.597547 0.002381709
4.24946 420.76315 422.397357 421.87822 0.002376634
4.25826 421.60303 422.673591 422.157274 0.002371899
4.26707 422.45093 422.948747 422.434586 0.002367139
4.27588 423.5047 423.222623 422.710039 0.002361249
4.28469 423.99014 423.495039 422.983522 0.002358545
4.29349 423.84744 423.765834 423.254925 0.002359339
4.30230 423.25803 424.034867 423.524154 0.002362625
4.31111 423.49075 424.302002 423.79111 0.002361327
4.31992 424.31842 424.567118 424.055704 0.002356721
4.32872 424.50418 424.830104 424.317853 0.002355689
4.33753 424.65695 425.090858 424.577478 0.002354842
4.34634 424.69241 425.349286 424.834505 0.002354645
4.35514 424.93152 425.605309 425.088873 0.00235332
4.36395 424.52356 425.859055 425.340522 0.002355582
4.37276 424.72958 426.110049 425.589397 0.002354439
4.38157 425.75546 426.358435 425.835451 0.002348766
4.39037 426.69049 426.604165 426.078645 0.002343619
4.39918 427.47739 426.847191 426.31894 0.002339305
4.40799 428.58441 427.087485 426.556316 0.002333263
4.41679 428.97955 427.325016 426.790747 0.002331113
4.42560 429.19003 427.574456 427.022218 0.00232997
4.43441 430.70657 427.806442 427.250708 0.002321766
4.44322 431.55533 428.035638 427.47624 0.0023172
4.45202 431.33932 428.262033 427.698805 0.00231836
4.46083 430.13095 428.485631 427.91841 0.002324873
4.46964 429.47681 428.706453 428.135075 0.002328414
4.47844 429.36884 428.924516 428.34882 0.002329
4.48725 429.74106 429.139848 428.559674 0.002326983
4.49606 429.9743 429.357943 428.767668 0.00232572
4.50487 429.30588 429.567934 428.972841 0.002329341
4.51367 429.19604 429.775317 429.17524 0.002329938
4.52248 429.13239 429.980138 429.374915 0.002330283
4.53129 429.76837 430.182457 429.571921 0.002326835
4.54009 430.61081 430.382336 429.766317 0.002322283
4.54890 430.87646 430.579842 429.95817 0.002320851
4.55771 430.66177 430.775048 430.147546 0.002322008
4.56652 429.58841 430.968035 430.334526 0.00232781
4.57532 429.64453 431.158885 430.519186 0.002327505
4.58413 430.07703 431.347686 430.70161 0.002325165
4.59294 431.74997 431.53453 430.881885 0.002316155
4.60174 432.07117 431.719513 431.060102 0.002314434
4.61055 431.73547 431.902735 431.236355 0.002316233
4.61936 431.33948 432.084304 431.410746 0.00231836
4.62817 431.90622 432.269782 431.583375 0.002315317
4.63697 432.09512 432.448387 431.754346 0.002314305
4.64578 432.51761 432.625674 431.923767 0.002312045
4.65459 432.75803 432.801759 432.091746 0.00231076
4.66339 433.46567 432.976766 432.258401 0.002306988
4.67220 434.43008 433.150819 432.423843 0.002301866
4.68101 434.89246 433.324045 432.588189 0.002299419
4.68982 434.98206 433.496572 432.751558 0.002298945
4.69862 435.15207 433.668532 432.91407 0.002298047
4.70743 435.25885 433.84005 433.075837 0.002297483
4.71624 434.51019 434.011277 433.236999 0.002301442
4.72504 434.36896 434.182347 433.397672 0.00230219
4.73385 435.17276 434.353395 433.557979 0.002297938
4.74266 435.74332 434.524563 433.718043 0.002294929
4.75147 435.63766 434.695991 433.877991 0.002295486
4.76027 435.00122 434.867823 434.037946 0.002298844
4.76908 434.70453 435.040201 434.19803 0.002300413
4.77789 435.23456 435.213273 434.358372 0.002297612
4.78669 436.33994 435.387183 434.519092 0.002291791
4.79550 436.26944 435.562078 434.680313 0.002292161
4.80431 436.0567 435.738105 434.842156 0.00229328
4.81312 436.42474 435.915411 435.004742 0.002291346
4.82192 437.77982 436.094144 435.168187 0.002284253
4.83073 438.58612 436.274457 435.332612 0.002280054
4.83954 438.3313 436.456497 435.498131 0.002281379
4.84835 437.68231 436.640414 435.664857 0.002284762
4.85715 438.50079 436.826361 435.832901 0.002280498
4.86596 439.34741 437.014486 436.00237 0.002276103
4.87477 439.14413 437.204949 436.173375 0.002277157
4.88357 439.47229 437.3979 436.346017 0.002275456
4.89238 439.21796 437.593497 436.520397 0.002276774
4.90119 439.08453 437.791896 436.696614 0.002277466
4.91000 439.46133 437.993257 436.874762 0.002275513
4.91880 439.77161 438.19774 437.054932 0.002273908
4.92761 439.52731 438.405515 437.237215 0.002275171
4.93642 439.70233 438.616748 437.421696 0.002274266
4.94522 440.4364 438.831612 437.608455 0.002270475
4.95403 440.92035 439.050285 437.797571 0.002267983
4.96284 440.92715 439.272949 437.989115 0.002267948
4.97165 441.07825 439.501063 438.183154 0.002267171
4.98045 440.61322 439.732363 438.379767 0.002269564
4.98926 440.64706 439.968186 438.579011 0.00226939
4.99807 440.98926 440.20882 438.780944 0.002267629
5.00687 441.4313 440.454493 438.985619 0.002265358
5.01568 441.85858 440.705453 439.193087 0.002263168
5.02449 441.8544 440.961964 439.403389 0.002263189
5.03330 441.95407 441.224314 439.616574 0.002262679
5.04210 442.43457 441.49281 439.832675 0.002260221
5.05091 443.23688 441.767789 440.051724 0.00225613
5.05972 443.88135 442.049618 440.273751 0.002252854
5.06852 444.17709 442.338706 440.498779 0.002251354
5.07733 444.63077 442.635499 440.726825 0.002249057
5.08614 445.06906 442.940504 440.95791 0.002246842
5.09495 445.01776 443.254286 441.19204 0.002247101
5.10375 444.7308 443.577471 441.429223 0.002248551
5.11256 444.98672 443.910785 441.66946 0.002247258
5.12137 446.07043 444.25504 441.912749 0.002241798
5.13017 447.08975 444.61116 442.15908 0.002236687
5.13898 447.85483 444.980237 442.408447 0.002232866
5.14779 447.89587 445.3635 442.660832 0.002232662
5.15660 448.08173 445.76238 442.916216 0.002231736
5.16540 448.40332 446.178579 443.174574 0.002230135
5.17421 448.29346 446.614075 443.435875 0.002230682
5.18302 448.70834 447.071715 443.700095 0.002228619
5.19182 449.2616 447.553458 443.967193 0.002225875
5.20063 449.74326 448.063376 444.237129 0.002223491
5.20944 450.41992 448.607471 444.509861 0.00222015
5.21825 451.16653 449.189255 444.785341 0.002216476
5.22705 451.41608 449.819757 445.063514 0.002215251
5.23586 451.74335 450.509398 445.344317 0.002213646
5.24467 452.0582 451.277602 445.627719 0.002212105
5.25347 452.65524 452.151607 445.913645 0.002209187
5.26228 453.35712 453.17136 446.202028 0.002205767
5.27109 454.65237 454.404062 446.492802 0.002199483
5.27990 456.57605 455.910291 446.785896 0.002190216
5.28870 458.1351 457.806477 447.081233 0.002182762
5.29751 459.74863 460.227695 447.378743 0.002175102
5.30632 461.51031 463.335196 447.678345 0.002166799
5.31513 464.18866 467.306248 447.979955 0.002154296
5.32393 468.01514 472.317388 448.283491 0.002136683
5.33274 472.20383 478.51887 448.588867 0.00211773
5.34155 476.78409 486.002308 448.895991 0.002097385
5.35035 482.72763 494.773005 449.204779 0.002071562
5.35916 492.16449 504.672832 449.515136 0.002031841
5.36797 502.67654 515.39007 449.826969 0.001989351
5.37678 516.16034 526.364379 450.140182 0.001937382
5.38558 533.79529 536.742453 450.454675 0.001873377
5.39439 554.7807 545.37897 450.770357 0.001802514
5.40320 576.52826 550.99687 451.087126 0.00173452
5.41200 586.98767 552.593987 451.404882 0.001703613
5.42081 579.00244 549.90241 451.723525 0.001727108
5.42962 556.01929 543.539112 452.042952 0.001798499
5.43843 528.88257 534.682078 452.363058 0.001890779
5.44723 506.81192 524.587936 452.683749 0.001973119
5.45604 492.48706 514.289302 453.004918 0.00203051
5.46485 483.14688 504.512242 453.326463 0.002069764
5.47365 476.35464 495.710203 453.648282 0.002099276
5.48246 471.48047 488.122206 453.970272 0.002120979
5.49127 468.71683 481.826798 454.292328 0.002133484
5.50008 466.29016 476.783521 454.614357 0.002144587
5.50888 464.44824 472.871446 454.936235 0.002153092
5.51769 463.44785 469.925576 455.2579 0.00215774
5.52650 463.47165 467.766551 455.579235 0.002157629
5.53530 462.40628 466.222133 455.900142 0.0021626
5.54411 461.40665 465.141167 456.220526 0.002167286
5.55292 461.0394 464.399784 456.540286 0.002169012
5.56173 460.98883 463.902907 456.859338 0.00216925
5.57053 460.85422 463.580236 457.177586 0.002169884
5.57934 461.32104 463.382124 457.49494 0.002167688
5.58815 462.16769 463.274358 457.811312 0.002163717
5.59695 462.40424 463.233668 458.126613 0.00216261
5.60576 462.15295 463.244401 458.440766 0.002163786
5.61457 462.22528 463.295817 458.753686 0.002163447
5.62338 462.45023 463.380309 459.065294 0.002162395
5.63218 462.11749 463.493939 459.375513 0.002163952
5.64099 462.80887 463.6294 459.68427 0.002160719
5.64980 463.40845 463.784972 459.991489 0.002157924
5.65860 463.62811 463.957993 460.29711 0.002156901
5.66741 463.41345 464.146301 460.601064 0.0021579
5.67622 463.34195 464.348099 460.903288 0.002158233
5.68503 463.95511 464.562267 461.203723 0.002155381
5.69383 464.15897 464.786769 461.502314 0.002154434
5.70264 464.10965 465.020967 461.799003 0.002154663
5.71145 464.41418 465.264001 462.093749 0.00215325
5.72025 464.63028 465.515191 462.386503 0.002152249
5.72906 463.82965 465.774003 462.677221 0.002155964
5.73787 464.3739 466.040021 462.965866 0.002153437
5.74668 464.95374 466.312982 463.2524 0.002150752
5.75548 465.58853 466.592746 463.536797 0.002147819
5.76429 465.17667 466.879412 463.819026 0.002149721
5.77310 465.07281 467.172801 464.099049 0.002150201
5.78190 465.7272 467.473994 464.376878 0.00214718
5.79071 466.66589 467.781999 464.65248 0.002142861
5.79952 466.99655 468.098012 464.925843 0.002141343
5.80833 467.30203 468.423603 465.196958 0.002139944
5.81713 468.11224 468.757978 465.465826 0.00213624
5.82594 468.63788 469.103961 465.732444 0.002133844
5.83475 468.76932 469.461319 465.996817 0.002133245
5.84356 469.46951 469.832684 466.258954 0.002130064
5.85236 469.65854 470.224045 466.518866 0.002129206
5.86117 470.4953 470.630951 466.776567 0.00212542
5.86998 470.3938 471.066009 467.032085 0.002125878
5.87878 469.85422 471.524923 467.285441 0.00212832
5.88759 469.40604 472.020577 467.536664 0.002130352
5.89640 469.69614 472.564923 467.785788 0.002129036
5.90521 470.36676 473.177088 468.032846 0.002126001
5.91401 471.52725 473.882394 468.277886 0.002120768
5.92282 472.45093 474.720392 468.52095 0.002116622
5.93163 472.32303 475.748203 468.762087 0.002117195
5.94043 472.62216 477.042323 469.001352 0.002115855
5.94924 473.80804 478.700916 469.2388 0.002110559
5.95805 475.41739 480.840733 469.474492 0.002103415
5.96686 477.23801 483.588788 469.708496 0.002095391
5.97566 478.36838 487.067755 469.94088 0.002090439
5.98447 480.30728 491.372946 470.171716 0.002082001
5.99328 483.56241 496.545437 470.401081 0.002067985
6.00208 487.43695 502.539594 470.629054 0.002051547
6.01089 492.69058 509.187057 470.855717 0.002029671
6.01970 499.79904 516.146634 471.081162 0.002000804
6.02851 511.22528 522.851734 471.305477 0.001956085
6.03731 526.20746 528.485861 471.528757 0.001900391
6.04612 539.23102 532.100147 471.751085 0.001854493
6.05493 543.92017 532.945888 471.972589 0.001838505
6.06373 537.76483 530.872043 472.193359 0.001859549
6.07254 525.01453 526.418928 472.413499 0.001904709
6.08135 512.45532 520.504857 472.633124 0.00195139
6.09016 502.43558 514.027403 472.852345 0.001990305
6.09896 494.97397 507.657981 473.071277 0.002020308
6.10777 489.86847 501.82552 473.290039 0.002041364
6.11658 486.54822 496.764368 473.508748 0.002055295
6.12538 485.33377 492.565532 473.727533 0.002060438
6.13419 484.69583 489.220292 473.946517 0.00206315
6.14300 484.24341 486.652295 474.165829 0.002065077
6.15181 483.19153 484.747298 474.385598 0.002069573
6.16061 482.7327 483.378337 474.605957 0.00207154
6.16942 482.32922 482.42323 474.827038 0.002073273
6.17823 482.6806 481.775687 475.048981 0.002071763
6.18703 483.64023 481.350614 475.271923 0.002067653
6.19584 483.60803 481.083867 475.496002 0.00206779
6.20465 482.44351 480.932796 475.72136 0.002072782
6.21346 481.71436 480.859643 475.948138 0.002075919
6.22226 482.15375 480.846692 476.176478 0.002074027
6.23107 482.616 480.880314 476.406531 0.002072041
6.23988 482.95972 480.951683 476.638438 0.002070566
6.24868 483.96878 481.054919 476.872347 0.002066249
6.25749 484.89526 481.186413 477.108405 0.002062301
6.26630 485.55978 481.343939 477.346757 0.002059479
6.27511 485.19946 481.528508 477.587558 0.002061008
6.28391 485.35245 481.736673 477.830953 0.002060358
6.29272 485.39877 481.972327 478.077093 0.002060162
6.30153 485.7067 482.239613 478.326125 0.002058856
6.31033 486.4025 482.545455 478.578186 0.00205591
6.31914 487.3439 482.900396 478.833453 0.002051939
6.32795 488.16641 483.319026 479.092058 0.002048482
6.33676 488.79431 483.822179 479.354156 0.00204585
6.34556 489.66687 484.427959 479.619891 0.002042205
6.35437 490.83337 485.161562 479.889412 0.002037351
6.36318 491.98108 486.045145 480.162864 0.002032598
6.37198 493.42804 487.089721 480.440395 0.002026638
6.38079 494.64221 488.298613 480.722145 0.002021663
6.38960 496.26062 489.648238 481.008265 0.00201507
6.39841 498.19559 491.090873 481.298894 0.002007244
6.40721 501.47922 492.535877 481.594173 0.001994101
6.41602 505.0546 493.842972 481.894243 0.001979984
6.42483 509.03244 494.833325 482.199241 0.001964511
6.43364 511.20877 495.3489 482.5093 0.001956148
6.44244 510.64252 495.336704 482.824562 0.001958317
6.45125 507.39578 494.883736 483.145155 0.001970848
6.46006 503.69614 494.16155 483.471212 0.001985324
6.46886 500.32632 493.342336 483.802859 0.001998696
6.47767 498.29663 492.554031 484.140219 0.002006837
6.48648 497.31421 491.874561 484.483424 0.002010801
6.49529 497.57529 491.346162 484.832591 0.002009746
6.50409 497.9516 490.981007 485.187838 0.002008227
6.51290 498.63556 490.775563 485.549283 0.002005473
6.52171 498.57394 490.713762 485.917038 0.002005721
6.53051 498.06088 490.773466 486.291208 0.002007787
6.53932 497.70953 490.933208 486.671911 0.002009204
6.54813 498.0144 491.167301 487.059246 0.002007974
6.55694 498.28143 491.459355 487.453314 0.002006898
6.56574 498.32162 491.795347 487.854213 0.002006736
6.57455 498.2775 492.165026 488.262037 0.002006914
6.58336 499.18332 492.561311 488.676855 0.002003272
6.59216 500.00952 492.979581 489.098796 0.001999962
6.60097 500.77539 493.416834 489.52793 0.001996903
6.60978 500.96347 493.871202 489.964334 0.001996154
6.61859 501.41135 494.341516 490.408083 0.00199437
6.62739 501.5148 494.827075 490.859251 0.001993959
6.63620 501.83841 495.327466 491.317908 0.001992673
6.64501 502.33508 495.842472 491.784112 0.001990703
6.65381 502.92798 496.372582 492.257937 0.001988356
6.66262 503.31567 496.916766 492.739433 0.001986825
6.67143 503.44022 497.476307 493.228655 0.001986333
6.68024 503.79324 498.050757 493.725652 0.001984941
6.68904 504.26923 498.640168 494.230462 0.001983068
6.69785 505.04971 499.245557 494.743138 0.001980003
6.70666 506.0238 499.867804 495.263711 0.001976192
6.71546 507.00916 500.506828 495.792213 0.001972351
6.72427 507.23148 501.163719 496.328673 0.001971486
6.73308 507.58685 501.8396 496.873113 0.001970106
6.74189 508.17563 502.5375 497.425547 0.001967824
6.75069 508.67889 503.25519 497.986002 0.001965877
6.75950 508.85715 503.996166 498.554483 0.001965188
6.76831 508.8439 504.762494 499.130995 0.001965239
6.77711 508.73453 505.556566 499.71554 0.001965662
6.78592 509.90793 506.381442 500.308115 0.001961138
6.79473 511.18332 507.240649 500.908707 0.001956245
6.80354 511.81143 508.138952 501.517317 0.001953845
6.81234 511.6564 509.08293 502.133921 0.001954437
6.82115 511.98434 510.08001 502.7585 0.001953185
6.82996 513.32269 511.143305 503.391029 0.001948092
6.83877 514.21307 512.289897 504.03147 0.001944719
6.84757 515.42267 513.547973 504.679766 0.001940155
6.85638 516.12012 514.960571 505.335947 0.001937533
6.86519 517.56702 516.591557 505.999932 0.001932117
6.87399 518.30719 518.534077 506.671674 0.001929358
6.88280 519.57281 520.915426 507.351122 0.001924658
6.89161 520.94611 523.899407 508.038219 0.001919584
6.90041 523.80981 527.674352 508.732899 0.00190909
6.90922 527.15051 532.439348 509.435111 0.001896991
6.91803 532.34564 538.364469 510.144779 0.001878479
6.92684 540.40424 545.549626 510.861831 0.001850467
6.93564 552.55573 553.963819 511.58619 0.001809772
6.94445 568.68048 563.37517 512.317774 0.001758457
6.95326 585.61871 573.244946 513.05649 0.001707596
6.96207 601.3432 582.609316 513.802264 0.001662944
6.97087 610.73883 590.058419 514.554997 0.001637361
6.97968 612.93658 594.059855 515.31459 0.00163149
6.98849 605.02441 593.725024 516.080943 0.001652826
6.99729 592.46759 589.429303 516.853942 0.001687856
7.00610 576.69415 582.534009 517.633496 0.001734021
7.01491 563.32208 574.573951 518.419484 0.001775183
7.02372 554.026 566.718471 519.211791 0.001804969
7.03252 547.7157 559.674632 520.010298 0.001825765
7.04133 543.27075 553.794939 520.814881 0.001840703
7.05014 539.62701 549.188913 521.625406 0.001853132
7.05894 537.44049 545.805988 522.441761 0.001860671
7.06775 536.23138 543.501537 523.263804 0.001864867
7.07656 535.25299 542.086227 524.091401 0.001868275
7.08537 535.26825 541.36504 524.924412 0.001868222
7.09417 536.16443 541.164401 525.762695 0.001865099
7.10298 536.18958 541.343705 526.606096 0.001865012
7.11179 535.58722 541.79887 527.454486 0.00186711
7.12059 536.25305 542.458734 528.307658 0.001864791
7.12940 537.88342 543.276855 529.165554 0.001859139
7.13821 540.24768 544.226572 530.027973 0.001851003
7.14702 541.46826 545.297202 530.894754 0.00184683
7.15582 542.97229 546.489731 531.765739 0.001841715
7.16463 544.1629 547.817879 532.640755 0.001837685
7.17344 546.63806 549.309987 533.519657 0.001829364
7.18224 548.98651 551.0119 534.402269 0.001821538
7.19105 550.47638 552.989774 535.288421 0.001816608
7.19986 552.5379 555.330787 536.177943 0.001809831
7.20867 555.57263 558.136801 537.070652 0.001799945
7.21747 559.53516 561.516344 537.966396 0.001787198
7.22628 562.9317 565.562894 538.864987 0.001776414
7.23509 565.70343 570.32995 539.76625 0.001767711
7.24389 569.30371 575.796693 540.670005 0.001756532
7.25270 573.34528 581.823961 541.576072 0.00174415
7.26151 578.1748 588.090834 542.484262 0.001729581
7.27032 583.55524 594.030066 543.394412 0.001713634
7.27912 587.3736 598.828296 544.306329 0.001702494
7.28793 589.38208 601.687585 545.219829 0.001696692
7.29674 589.44421 602.290975 546.134729 0.001696513
7.30554 587.65021 601.047071 547.050843 0.001701693
7.31435 584.5069 598.796522 547.967975 0.001710844
7.32316 581.80859 596.351677 548.885959 0.001718778
7.33197 579.81403 594.278306 549.8046 0.001724691
7.34077 579.18274 592.899913 550.723711 0.001726571
7.34958 579.27435 592.369685 551.643104 0.001726298
7.35839 580.89838 592.733723 552.562583 0.001721471
7.36720 583.83832 593.973719 553.481982 0.001712803
7.37600 588.08112 596.041796 554.401105 0.001700446
7.38481 593.27148 598.890421 555.319713 0.001685569
7.39362 599.61963 602.49588 556.237724 0.001667724
7.40242 606.44238 606.877576 557.154903 0.001648961
7.41123 615.19672 612.119 558.071063 0.001625496
7.42004 626.60248 618.395879 558.986012 0.001595908
7.42884 641.97723 626.019673 559.899586 0.001557688
7.43765 658.6687 635.50445 560.811593 0.001518214
7.44646 678.83337 647.659466 561.721853 0.001473116
7.45527 703.19977 663.695785 562.630185 0.001422071
7.46407 732.82489 685.319784 563.53641 0.001364582
7.47288 768.39038 714.762448 564.440341 0.001301422
7.48169 808.98224 754.690498 565.341823 0.001236121
7.49050 859.11237 807.915226 566.240669 0.001163992
7.49930 916.19952 876.898945 567.136709 0.001091465
7.50811 986.91028 963.073272 568.029769 0.001013263
7.51692 1067.4863 1065.90558 568.91968 0.00093678
7.52572 1160.3788 1181.687932 569.806265 0.000861788
7.53453 1264.9574 1301.822633 570.689378 0.00079054
7.54334 1365.7472 1410.840535 571.568844 0.0007322
7.55215 1451.7657 1486.87273 572.444503 0.000688816
7.56095 1486.1672 1509.101089 573.316194 0.000672872
7.56976 1459.8643 1470.713583 574.18375 0.000684995
7.57857 1384.4753 1384.225826 575.047035 0.000722295
7.58737 1277.1055 1272.105678 575.905888 0.000783021
7.59618 1167.4169 1154.591201 576.760158 0.000856592
7.60499 1062.3479 1044.829013 577.609697 0.000941311
7.61380 973.41278 949.66584 578.454361 0.001027313
7.62260 899.69141 871.629702 579.293996 0.001111492
7.63141 839.15521 810.531087 580.128483 0.001191675
7.64022 790.91473 764.540186 580.957675 0.001264359
7.64902 754.04871 731.015273 581.781439 0.001326174
7.65783 725.50598 707.162947 582.599596 0.001378348
7.66664 703.05988 690.442524 583.412112 0.001422354
7.67545 685.24292 678.800525 584.218814 0.001459336
7.68425 670.44104 670.707024 585.019572 0.001491555
7.69306 658.54688 665.107184 585.814285 0.001518495
7.70187 649.76764 661.315591 586.602829 0.001539012
7.71067 643.84381 658.912308 587.38509 0.001553172
7.71948 639.99689 657.664171 588.160959 0.001562508
7.72829 638.11688 657.470196 588.930331 0.001567111
7.73710 637.85236 658.333245 589.693095 0.001567761
7.74590 639.10687 660.353109 590.449169 0.001564684
7.75471 641.42188 663.726005 591.198448 0.001559036
7.76352 646.20428 668.744758 591.94084 0.001547498
7.77232 653.45697 675.793029 592.676256 0.001530323
7.78113 663.47662 685.324819 593.404604 0.001507212
7.78994 676.23511 697.831906 594.125817 0.001478776
7.79875 692.6944 713.803573 594.83981 0.001443638
7.80755 713.80145 733.675971 595.546508 0.00140095
7.81636 740.68024 757.735182 596.245841 0.00135011
7.82517 775.56238 785.931888 596.93774 0.001289387
7.83397 820.20636 817.68199 597.622135 0.001219205
7.84278 870.00696 852.050207 598.298981 0.001149416
7.85159 922.77588 888.760362 598.968215 0.001083687
7.86040 967.84747 929.268905 599.629783 0.001033221
7.86920 1009.1848 976.168602 600.283638 0.000990899
7.87801 1052.0201 1030.974128 600.929725 0.000950552
7.88682 1103.6398 1091.977796 601.56802 0.000906093
7.89563 1150.436 1152.724595 602.198476 0.000869236
7.90443 1195.3876 1201.405323 602.821059 0.000836549
7.91324 1215.531 1223.714622 603.43574 0.000822686
7.92205 1203.0704 1210.812412 604.042457 0.000831207
7.93085 1155.047 1166.228221 604.641255 0.000865766
7.93966 1091.7654 1103.136967 605.232076 0.000915948
7.94847 1022.3914 1035.819676 605.814915 0.000978099
7.95727 960.18311 974.547159 606.389754 0.001041468
7.96608 912.94336 925.244347 606.956585 0.001095358
7.97489 880.77435 890.659714 607.515403 0.001135365
7.98370 866.2149 871.359524 608.066206 0.001154448
7.99250 862.6626 866.276835 608.608991 0.001159202
8.00131 868.36761 873.001507 609.143806 0.001151586
8.01012 886.74664 887.731746 609.670593 0.001127718
8.01893 908.99341 905.086119 610.189396 0.001100118
8.02773 929.38928 918.354147 610.700225 0.001075975
8.03654 935.09088 921.565492 611.203111 0.001069415
8.04535 925.77893 912.938434 611.698072 0.001080171
8.05415 904.50745 896.075101 612.185133 0.001105574
8.06296 881.17041 877.331723 612.66427 0.001134854
8.07177 862.26086 862.746614 613.135626 0.001159742
8.08057 851.68579 857.039833 613.59918 0.001174142
8.08938 855.60071 863.842718 614.054973 0.001168769
8.09819 876.19226 886.013241 614.503047 0.001141302
8.10700 913.2204 925.612012 614.943442 0.001095026
8.11580 970.72937 983.539585 615.376217 0.001030153
8.12461 1048.0858 1058.933276 615.801419 0.00095412
8.13342 1138.1958 1148.214281 616.219101 0.000878583
8.14223 1239.8245 1243.50341 616.629321 0.000806566
8.15103 1341.8009 1330.783704 617.032135 0.000745267
8.15984 1425.2029 1390.247679 617.427614 0.000701654
8.16865 1447.3273 1403.370333 617.81582 0.000690929
8.17745 1412.6863 1365.160877 618.196821 0.000707871
8.18626 1305.3457 1288.159621 618.570688 0.000766081
8.19507 1181.8588 1192.762884 618.937494 0.000846125
8.20388 1060.9299 1096.286414 619.297311 0.000942569
8.21268 970.83624 1009.475044 619.650226 0.00103004
8.22149 900.27893 937.775842 619.996316 0.001110767
8.23030 854.10687 883.19089 620.335663 0.001170814
8.23910 827.04565 845.575664 620.668352 0.001209123
8.24791 817.45575 823.505791 620.994471 0.001223308
8.25672 834.29688 814.807648 621.314107 0.001198614
8.26553 846.31085 816.855191 621.627357 0.001181599
8.27433 871.15594 826.581876 621.934311 0.0011479
8.28314 886.91333 840.148078 622.235066 0.001127506
8.29195 883.44055 852.595276 622.529718 0.001131938
8.30075 884.45862 858.381341 622.818363 0.001130635
8.30956 860.37292 853.571215 623.101108 0.001162287
8.31837 831.01062 838.067447 623.378053 0.001203354
8.32718 798.24542 815.10656 623.6493 0.001252748
8.33598 761.62628 788.87936 623.914957 0.00131298
8.34479 734.27802 762.837166 624.175128 0.001361882
8.35360 711.20691 739.194219 624.42992 0.001406061
8.36240 693.21991 719.039666 624.679448 0.001442544
8.37121 680.96942 702.653889 624.923819 0.001468495
8.38002 671.39832 689.804925 625.163145 0.001489429
8.38883 664.98749 679.986352 625.397539 0.001503788
8.39763 659.89569 672.593863 625.627114 0.001515391
8.40644 655.38147 667.041695 625.851983 0.001525829
8.41525 652.43475 662.829228 626.072266 0.00153272
8.42406 649.59479 659.568288 626.288076 0.001539421
8.43286 647.87653 656.977626 626.499531 0.001543504
8.44167 647.06879 654.863448 626.706748 0.001545431
8.45048 646.58826 653.097195 626.909843 0.001546579
8.45928 645.73541 651.594152 627.108938 0.001548622
8.46809 644.50818 650.297407 627.304151 0.001551571
8.47690 643.716 649.167892 627.4956 0.00155348
8.48571 643.76782 648.17727 627.683406 0.001553355
8.49451 644.04846 647.304007 627.867687 0.001552678
8.50332 643.46918 646.531184 628.048561 0.001554076
8.51213 642.89105 645.845199 628.226153 0.001555474
8.52093 643.06091 645.234776 628.400579 0.001555063
8.52974 643.18317 644.690532 628.571961 0.001554767
8.53855 642.88757 644.204604 628.740416 0.001555482
8.54736 643.39551 643.770358 628.906065 0.001554254
8.55616 643.62469 643.382045 629.069025 0.0015537
8.56497 643.76202 643.034835 629.229418 0.001553369
8.57378 643.09503 642.724584 629.38736 0.00155498
8.58258 642.591 642.447634 629.542969 0.0015562
8.59139 642.98578 642.200897 629.696362 0.001555244
8.60020 643.89581 641.981708 629.847639 0.001553046
8.60900 643.69525 641.787666 629.99695 0.00155353
8.61781 642.81909 641.616755 630.144393 0.001555648
8.62662 642.68195 641.467202 630.29008 0.00155598
8.63543 642.4646 641.337484 630.434129 0.001556506
8.64423 642.11859 641.226298 630.57665 0.001557345
8.65304 642.16058 641.132477 630.717754 0.001557243
8.66185 642.46533 641.055079 630.857553 0.001556504
8.67066 642.60815 640.993322 630.996156 0.001556158
8.67946 642.66406 640.946543 631.133669 0.001556023
8.68827 642.96783 640.914271 631.270204 0.001555288
8.69708 643.60101 640.896191 631.405863 0.001553758
8.70588 643.16956 640.892127 631.540753 0.0015548
8.71469 642.26385 640.902147 631.674976 0.001556993
8.72350 642.1911 640.926574 631.808633 0.001557169
8.73231 643.49811 640.966088 631.941827 0.001554006
8.74111 644.37628 641.021986 632.074655 0.001551888
8.74992 644.59784 641.096489 632.207216 0.001551355
8.75873 644.22241 641.193358 632.339605 0.001552259
8.76753 644.5058 641.318641 632.471917 0.001551576
8.77634 645.49164 641.481768 632.604243 0.001549207
8.78515 646.72571 641.696411 632.736676 0.001546251
8.79396 646.51416 641.980993 632.869305 0.001546757
8.80276 646.89307 642.358114 633.002216 0.001545851
8.81157 647.73755 642.852138 633.135497 0.001543835
8.82038 648.17816 643.484823 633.269229 0.001542786
8.82918 648.09204 644.269108 633.403498 0.001542991
8.83799 648.37598 645.200345 633.538382 0.001542315
8.84680 649.6286 646.244525 633.673959 0.001539341
8.85561 650.72711 647.32122 633.810307 0.001536742
8.86441 651.17316 648.285299 633.947498 0.00153569
8.87322 651.67029 648.93904 634.085605 0.001534518
8.88203 651.76331 649.117774 634.224701 0.001534299
8.89083 651.07495 648.808442 634.364852 0.001535921
8.89964 650.21344 648.1608 634.506125 0.001537957
8.90845 649.50854 647.375343 634.648584 0.001539626
8.91726 649.32739 646.606801 634.792292 0.001540055
8.92606 649.16962 645.944347 634.937307 0.001540429
8.93487 649.23254 645.427678 635.08369 0.00154028
8.94368 649.07233 645.064939 635.231496 0.00154066
8.95249 648.7467 644.845534 635.380778 0.001541434
8.96129 648.62805 644.748813 635.531588 0.001541716
8.97010 648.35358 644.750735 635.683973 0.001542368
8.97891 648.18054 644.828645 635.837985 0.00154278
8.98771 648.5528 644.963805 635.993666 0.001541895
8.99652 648.37213 645.142225 636.151061 0.001542324
9.00533 647.84314 645.354338 636.310209 0.001543584
9.01414 647.72083 645.594087 636.471149 0.001543875
9.02294 647.74487 645.857883 636.633916 0.001543818
9.03175 647.63123 646.143803 636.798548 0.001544089
9.04056 648.64368 646.45098 636.965075 0.001541678
9.04936 649.99377 646.779192 637.133528 0.001538476
9.05817 650.79822 647.128693 637.303933 0.001536575
9.06698 650.43945 647.500048 637.476317 0.001537422
9.07579 650.27557 647.894111 637.650702 0.00153781
9.08459 651.32556 648.311995 637.827112 0.001535331
9.09340 652.36371 648.755024 638.005566 0.001532887
9.10221 653.02954 649.224809 638.18608 0.001531324
9.11101 653.974 649.723227 638.36867 0.001529113
9.11982 655.0473 650.252412 638.553346 0.001526607
9.12863 655.76221 650.814869 638.740124 0.001524943
9.13743 655.95416 651.413397 638.928992 0.001524497
9.14624 656.46246 652.051354 639.119992 0.001523316
9.15505 656.12927 652.732437 639.313115 0.00152409
9.16386 656.28369 653.460964 639.508363 0.001523731
9.17266 656.27612 654.24183 639.705735 0.001523749
9.18147 656.74622 655.080755 639.905231 0.001522658
9.19028 656.35712 655.984266 640.106849 0.001523561
9.19909 656.4743 656.960002 640.310581 0.001523289
9.20789 656.41486 658.01685 640.516426 0.001523427
9.21670 656.40454 659.1651 640.724374 0.001523451
9.22551 657.36163 660.416933 640.934413 0.001521233
9.23431 658.61633 661.786701 641.146533 0.001518335
9.24312 659.70056 663.291294 641.360716 0.001515839
9.25193 661.14246 664.950982 641.576954 0.001512533
9.26074 663.31897 666.790065 641.795227 0.00150757
9.26954 665.76239 668.837722 642.015516 0.001502037
9.27835 667.97522 671.129846 642.2378 0.001497062
9.28716 670.39056 673.710498 642.462059 0.001491668
9.29596 673.96332 676.635649 642.688267 0.00148376
9.30477 678.59845 679.977775 642.916403 0.001473626
9.31358 684.41187 683.835483 643.14644 0.001461108
9.32239 691.32983 688.3492 643.378349 0.001446488
9.33119 699.03394 693.727776 643.612103 0.001430546
9.34000 707.38129 700.293043 643.84767 0.001413665
9.34881 718.50208 708.545071 644.085016 0.001391784
9.35761 731.28906 719.248552 644.324114 0.001367448
9.36642 748.90588 733.534212 644.564927 0.001335281
9.37523 770.30084 752.986921 644.807421 0.001298194
9.38404 798.00153 779.674684 645.051558 0.00125313
9.39284 832.57129 816.071961 645.297299 0.001201098
9.40165 876.55322 864.814188 645.54461 0.001140832
9.41046 932.00543 928.235716 645.79345 0.001072955
9.41926 997.1676 1007.694191 646.043778 0.00100284
9.42807 1079.6415 1102.578835 646.295553 0.000926233
9.43688 1175.0863 1208.984243 646.548732 0.000851001
9.44569 1288.3416 1318.13626 646.803271 0.000776192
9.45449 1390.5541 1415.886014 647.05913 0.000719138
9.46330 1478.8076 1485.286536 647.316262 0.00067622
9.47211 1540.6508 1512.091187 647.574623 0.000649076
9.48092 1541.4822 1489.719873 647.834167 0.000648726
9.48972 1492.4431 1422.368263 648.094847 0.000670042
9.49853 1373.6173 1324.622262 648.356613 0.000728005
9.50734 1237.3607 1214.895976 648.619423 0.000808172
9.51614 1093.4684 1108.094707 648.883228 0.000914521
9.52495 977.34601 1013.089751 649.147979 0.001023179
9.53376 883.26489 933.727299 649.413626 0.001132163
9.54257 823.20599 870.582686 649.680118 0.001214763
9.55137 782.70892 822.281464 649.947412 0.001277614
9.56018 754.66309 786.454554 650.215456 0.001325095
9.56899 735.25244 760.434703 650.484199 0.001360077
9.57779 720.3371 741.708592 650.753592 0.001388239
9.58660 709.18091 728.17858 651.023585 0.001410077
9.59541 699.71442 718.241722 651.294126 0.001429154
9.60422 693.01581 710.76046 651.565169 0.001442969
9.61302 687.51373 704.969807 651.836663 0.001454516
9.62183 683.01111 700.372719 652.108558 0.001464105
9.63064 678.16992 696.6518 652.380804 0.001474557
9.63944 674.3692 693.602418 652.653351 0.001482867
9.64825 672.9989 691.087899 652.926147 0.001485887
9.65706 672.65045 689.013331 653.19915 0.001486656
9.66587 672.07458 687.309817 653.472308 0.00148793
9.67467 670.61804 685.92531 653.74554 0.001491162
9.68348 669.71393 684.819861 654.018863 0.001493175
9.69229 668.99731 683.962691 654.292196 0.001494774
9.70109 668.82703 683.330295 654.565493 0.001495155
9.70990 668.55469 682.905501 654.838708 0.001495764
9.71871 668.89423 682.676313 655.111791 0.001495005
9.72752 670.07721 682.635981 655.384703 0.001492365
9.73632 671.20319 682.783133 655.657396 0.001489862
9.74513 672.51807 683.121822 655.929826 0.001486949
9.75394 673.41614 683.662628 656.201951 0.001484966
9.76274 675.13947 684.423664 656.473723 0.001481175
9.77155 676.50146 685.431948 656.745107 0.001478193
9.78036 679.06244 686.724392 657.01606 0.001472619
9.78917 682.15747 688.349479 657.28654 0.001465937
9.79797 686.48596 690.369816 657.556509 0.001456694
9.80678 691.74213 692.866436 657.825927 0.001445625
9.81559 697.83167 695.948734 658.094755 0.00143301
9.82439 703.84985 699.772837 658.362962 0.001420758
9.83320 712.82245 704.5667 658.630508 0.001402874
9.84201 721.89581 710.664814 658.897361 0.001385241
9.85082 731.88855 718.552506 659.163485 0.001366328
9.85962 745.42371 728.923919 659.428849 0.001341519
9.86843 760.10956 742.752443 659.693418 0.0013156
9.87724 777.73828 761.292983 659.957168 0.00128578
9.88604 800.53137 785.9005 660.220067 0.00124917
9.89485 820.06171 817.703148 660.482087 0.00121942
9.90366 848.41528 857.208173 660.743201 0.001178668
9.91247 880.92664 903.882587 661.003381 0.001135168
9.92127 913.33423 955.587844 661.262609 0.001094889
9.93008 961.50262 1007.837417 661.520858 0.001040039
9.93889 1006.1755 1053.167774 661.778106 0.000993862
9.94769 1047.7509 1081.991391 662.034335 0.000954425
9.95650 1090.7789 1086.718666 662.289523 0.000916776
9.96531 1099.3342 1067.029209 662.543651 0.000909641
9.97412 1091.6735 1030.356874 662.796709 0.000916025
9.98292 1064.0238 986.936752 663.048677 0.000939829
9.99173 1014.916 945.198376 663.299542 0.000985303
10.00054 963.90613 910.443454 663.549296 0.001037445
10.00934 918.5155 885.264537 663.797914 0.001088713
10.01815 878.64923 870.173203 664.045398 0.001138111
10.02696 855.39484 863.992294 664.291738 0.001169051
10.03577 842.86444 864.007353 664.536955 0.00118643
10.04457 838.55475 866.115353 664.780989 0.001192528
10.05338 837.08203 865.510486 665.023864 0.001194626
10.06219 834.59082 858.435497 665.265577 0.001198192
10.07099 827.61914 844.09195 665.506127 0.001208285
10.07980 816.65186 824.597886 665.745541 0.001224512
10.08861 801.25012 803.109623 665.983768 0.00124805
10.09742 786.21704 782.216174 666.220838 0.001271913
10.10622 773.68781 763.517842 666.456756 0.001292511
10.11503 762.78497 747.817176 666.691527 0.001310985
10.12384 753.85394 735.372956 666.92516 0.001326517
10.13265 748.58875 726.109306 667.15769 0.001335847
10.14145 745.80328 719.782354 667.389075 0.001340836
10.15026 744.50836 716.113717 667.619353 0.001343168
10.15907 744.64532 714.902713 667.848537 0.001342921
10.16787 745.10077 716.090876 668.076642 0.0013421
10.17668 747.37158 719.773858 668.303711 0.001338023
10.18549 751.18353 726.156398 668.529708 0.001331233
10.19430 755.33881 735.46495 668.75468 0.001323909
10.20310 761.88922 747.814535 668.97862 0.001312527
10.21191 770.38159 763.064133 669.201601 0.001298058
10.22072 779.79681 780.626844 669.423622 0.001282385
10.22952 791.2934 799.241602 669.64473 0.001263754
10.23833 805.99225 816.69429 669.864903 0.001240707
10.24714 819.95874 829.793284 670.084191 0.001219574
10.25595 829.82306 835.176398 670.302623 0.001205076
10.26475 829.97455 831.094083 670.520228 0.001204856
10.27356 820.06116 818.653569 670.737063 0.001219421
10.28237 802.51569 801.003672 670.953109 0.001246082
10.29117 782.39685 781.47101 671.168424 0.001278124
10.29998 764.52771 762.47768 671.383044 0.001307997
10.30879 748.91107 745.452809 671.597002 0.001335272
10.31760 735.3866 731.070223 671.810337 0.001359829
10.32640 724.23871 719.482602 672.023109 0.00138076
10.33521 716.43683 710.518507 672.23531 0.001395796
10.34402 710.63855 703.80679 672.447004 0.001407185
10.35282 706.41516 698.897771 672.658231 0.001415598
10.36163 701.40973 695.352828 672.869035 0.0014257
10.37044 697.50275 692.792797 673.07948 0.001433686
10.37925 694.63934 690.920787 673.289565 0.001439596
10.38805 692.65967 689.521243 673.499357 0.00144371
10.39686 691.19562 688.446744 673.708903 0.001446768
10.40567 689.4762 687.600123 673.918249 0.001450376
10.41447 687.729 686.919323 674.127442 0.001454061
10.42328 686.71185 686.36427 674.336556 0.001456215
10.43209 686.05695 685.90848 674.545592 0.001457605
10.44090 685.44189 685.533702 674.754622 0.001458913
10.44970 685.51965 685.226705 674.963699 0.001458747
10.45851 685.3327 684.977275 675.172873 0.001459145
10.46732 684.93652 684.777486 675.382221 0.001459989
10.47612 684.23187 684.621008 675.591747 0.001461493
10.48493 683.63452 684.502464 675.801528 0.00146277
10.49374 683.01019 684.417546 676.011618 0.001464107
10.50255 682.43951 684.362665 676.222073 0.001465331
10.51135 682.82837 684.33475 676.432945 0.001464497
10.52016 683.81995 684.331339 676.644316 0.001462373
10.52897 684.53131 684.350308 676.856192 0.001460854
10.53777 684.64508 684.389941 677.068653 0.001460611
10.54658 684.57343 684.448818 677.281757 0.001460764
10.55539 684.58868 684.525811 677.49556 0.001460731
10.56420 684.86139 684.619992 677.710143 0.001460149
10.57300 685.22766 684.730698 677.925516 0.001459369
10.58181 686.19196 684.857452 678.141759 0.001457318
10.59062 687.09619 685.000006 678.358931 0.0014554
10.59943 686.96442 685.158305 678.57709 0.001455679
10.60823 687.13556 685.332534 678.796293 0.001455317
10.61704 687.46082 685.523086 679.016624 0.001454628
10.62585 687.57886 685.730606 679.23809 0.001454379
10.63465 688.05206 685.956069 679.460775 0.001453378
10.64346 688.47504 686.200847 679.684737 0.001452485
10.65227 689.24292 686.466822 679.910034 0.001450867
10.66108 688.96826 686.756731 680.136748 0.001451446
10.66988 689.00989 687.074343 680.364888 0.001451358
10.67869 689.99347 687.425561 680.594534 0.001449289
10.68750 691.2619 687.819363 680.825745 0.00144663
10.69630 692.16931 688.26981 681.058579 0.001444733
10.70511 693.3587 688.798714 681.293117 0.001442255
10.71392 694.34491 689.438907 681.529363 0.001440206
10.72273 695.12976 690.237915 681.7674 0.00143858
10.73153 696.4057 691.26102 682.007283 0.001435945
10.74034 698.39417 692.591067 682.249039 0.001431856
10.74915 700.69165 694.325656 682.492779 0.001427161
10.75795 702.68207 696.566173 682.738557 0.001423119
10.76676 704.59003 699.401745 682.986371 0.001419265
10.77557 706.85022 702.886716 683.236301 0.001414727
10.78438 710.14551 707.012633 683.4884 0.001408162
10.79318 712.82275 711.678508 683.742719 0.001402873
10.80199 716.1192 716.64861 683.999339 0.001396416
10.81080 719.7677 721.503652 684.258252 0.001389337
10.81960 724.03082 725.623251 684.519536 0.001381157
10.82841 727.47125 728.271793 684.783241 0.001374625
10.83722 730.06592 728.887218 685.049413 0.001369739
10.84602 730.44897 727.403924 685.318101 0.001369021
10.85483 727.96069 724.281983 685.589381 0.001373701
10.86364 723.32507 720.221539 685.863237 0.001382504
10.87245 718.03339 715.865124 686.139745 0.001392693
10.88125 714.41022 711.682256 686.418947 0.001399756
10.89006 711.08667 707.96405 686.700886 0.001406298
10.89887 709.07562 704.855457 686.985636 0.001410287
10.90768 707.67725 702.3977 687.273172 0.001413074
10.91648 706.58325 700.555791 687.563567 0.001415261
10.92529 704.99518 699.252165 687.856858 0.001418449
10.93410 704.0943 698.389495 688.153083 0.001420264
10.94290 703.84186 697.869728 688.452276 0.001420774
10.95171 703.37128 697.605641 688.754509 0.001421724
10.96052 703.03308 697.527326 689.059745 0.001422408
10.96933 703.10986 697.582119 689.368051 0.001422253
10.97813 704.1142 697.733153 689.679458 0.001420224
10.98694 703.72766 697.955777 689.993997 0.001421004
10.99575 702.98572 698.234217 690.31173 0.001422504
11.00455 702.51672 698.55857 690.632615 0.001423454
11.01336 703.05566 698.923006 690.956713 0.001422362
11.02217 703.4964 699.324114 691.284047 0.001421471
11.03098 704.13416 699.760164 691.614643 0.001420184
11.03978 705.07672 700.230603 691.94852 0.001418285
11.04859 706.15045 700.735803 692.285739 0.001416129
11.05740 707.10284 701.276809 692.626241 0.001414221
11.06621 708.59442 701.855715 692.970083 0.001411245
11.07501 708.92828 702.475609 693.317281 0.00141058
11.08382 708.5946 703.141017 693.667849 0.001411244
11.09263 709.06061 703.858638 694.021841 0.001410317
11.10143 710.29132 704.637782 694.379188 0.001407873
11.11024 712.15442 705.492312 694.739941 0.00140419
11.11905 713.45111 706.441865 695.104109 0.001401638
11.12786 715.20422 707.513886 695.471698 0.001398202
11.13666 717.04614 708.745701 695.842715 0.00139461
11.14547 718.68115 710.186297 696.217207 0.001391438
11.15428 720.74213 711.896505 696.595091 0.001387459
11.16308 723.51379 713.949555 696.976411 0.001382144
11.17189 726.77563 716.428614 697.361167 0.00137594
11.18070 730.05798 719.422471 697.749357 0.001369754
11.18951 733.75348 723.018945 698.141021 0.001362856
11.19831 736.51398 727.292666 698.536067 0.001357747
11.20712 740.58856 732.288207 698.934532 0.001350277
11.21593 744.97083 737.993754 699.336407 0.001342334
11.22473 749.40399 744.317224 699.741684 0.001334394
11.23354 753.76648 751.090607 700.150351 0.001326671
11.24235 758.02179 758.126314 700.562443 0.001319223
11.25116 762.09729 765.286341 700.977852 0.001312168
11.25996 766.49579 772.467856 701.396608 0.001304639
11.26877 771.53058 779.476437 701.818694 0.001296125
11.27758 777.91443 785.932745 702.244044 0.001285488
11.28638 783.59467 791.383523 702.672782 0.00127617
11.29519 788.40973 795.582372 703.104741 0.001268376
11.30400 793.77332 798.711629 703.539945 0.001259806
11.31281 798.92474 801.287941 703.978372 0.001251682
11.32161 803.78979 803.915771 704.419993 0.001244106
11.33042 808.8324 807.207849 704.864831 0.00123635
11.33923 815.48596 811.926411 705.312758 0.001226263
11.34803 824.13928 819.114967 705.763791 0.001213387
11.35684 834.95215 829.94972 706.2179 0.001197673
11.36565 849.33832 845.434801 706.67505 0.001177387
11.37445 866.31433 866.117301 707.135206 0.001154315
11.38326 887.86023 891.918259 707.598385 0.001126303
11.39207 912.62744 921.938167 708.064444 0.001095737
11.40088 942.64124 954.332058 708.533395 0.001060849
11.40968 975.5083 986.060612 709.0052 0.001025107
11.41849 1004.72 1012.864682 709.479815 0.000995302
11.42730 1027.837 1029.874146 709.957251 0.000972917
11.43611 1035.0339 1033.284157 710.437357 0.000966152
11.44491 1024.6915 1022.329702 710.920141 0.000975903
11.45372 998.54517 999.734406 711.405554 0.001001457
11.46253 967.526 970.170773 711.89355 0.001033564
11.47133 932.88379 938.306677 712.384079 0.001071945
11.48014 906.34619 907.812451 712.877146 0.001103331
11.48895 884.47247 881.248405 713.372587 0.001130617
11.49776 870.435 860.290791 713.870407 0.001148851
11.50656 860.79205 845.941415 714.370549 0.001161721
11.51537 858.00922 838.725264 714.87296 0.001165489
11.52418 857.73505 838.792679 715.377641 0.001165861
11.53299 861.95233 845.993293 715.884419 0.001160157
11.54179 870.93787 859.887433 716.393294 0.001148188
11.55060 884.59314 879.726148 716.904206 0.001130463
11.55941 902.96185 904.382242 717.417096 0.001107467
11.56821 924.92889 932.312235 717.931903 0.001081164
11.57702 950.98669 961.449265 718.448622 0.001051539
11.58583 977.49731 989.005415 718.967074 0.001023021
11.59464 998.54797 1011.3487 719.487253 0.001001454
11.60344 1012.2945 1024.467433 720.009096 0.000987855
11.61225 1016.1112 1025.318418 720.532536 0.000984144
11.62106 1009.2368 1013.447347 721.057568 0.000990848
11.62986 990.77631 991.319988 721.584005 0.00100931
11.63867 965.68073 963.015106 722.11184 0.001035539
11.64748 938.08972 932.584909 722.641004 0.001065996
11.65629 911.16064 903.153839 723.171428 0.001097501
11.66509 886.28027 876.802481 723.703044 0.001128311
11.67390 864.07159 854.700839 724.235841 0.001157312
11.68271 845.5838 837.284534 724.769629 0.001182615
11.69151 831.49048 824.406616 725.304397 0.00120266
11.70032 820.51886 815.467207 725.840074 0.001218741
11.70913 813.22485 809.519481 726.376587 0.001229672
11.71794 808.80719 805.410681 726.913926 0.001236389
11.72674 805.80133 801.967124 727.451896 0.001241001
11.73555 802.89496 798.257432 727.990485 0.001245493
11.74436 798.31958 793.840873 728.529621 0.001252631
11.75316 791.54321 788.78042 729.069228 0.001263355
11.76197 784.21509 783.435162 729.609235 0.00127516
11.77078 777.29163 778.220818 730.149628 0.001286518
11.77959 770.77521 773.476589 730.690211 0.001297395
11.78839 765.95697 769.429602 731.230972 0.001305556
11.79720 762.93689 766.201915 731.771835 0.001310724
11.80601 760.58948 763.819131 732.312727 0.00131477
11.81481 758.42749 762.224827 732.853573 0.001318518
11.82362 755.86249 761.290856 733.3943 0.001322992
11.83243 754.78046 760.827128 733.934833 0.001324889
11.84123 754.25775 760.600204 734.475099 0.001325807
11.85004 753.6308 760.366194 735.015023 0.00132691
11.85885 752.80212 759.929034 735.554593 0.00132837
11.86766 751.7428 759.200237 736.093612 0.001330242
11.87646 750.63959 758.210961 736.63207 0.001332197
11.88527 748.8692 757.067065 737.169893 0.001335347
11.89408 747.35565 755.889167 737.707008 0.001338051
11.90288 746.25348 754.777607 738.243342 0.001340027
11.91169 746.06006 753.802555 738.778886 0.001340375
11.92050 745.82031 753.008796 739.313445 0.001340806
11.92931 745.84607 752.419115 739.847009 0.001340759
11.93811 745.73431 752.041253 740.379507 0.00134096
11.94692 745.8421 751.872128 740.91087 0.001340766
11.95573 745.97491 751.902902 741.441088 0.001340528
11.96454 746.94476 752.122762 741.969972 0.001338787
11.97334 747.12543 752.521639 742.497512 0.001338463
11.98215 747.4613 753.090757 743.023642 0.001337862
11.99096 747.35034 753.822032 743.548295 0.001338061
11.99976 747.48621 754.705132 744.071403 0.001337817
12.00857 748.1922 755.724445 744.592961 0.001336555
12.01738 749.56616 756.855194 745.112785 0.001334105
12.02619 750.87561 758.059426 745.63087 0.001331779
12.03499 751.96997 759.281529 746.147153 0.00132984
12.04380 753.24353 760.445884 746.661571 0.001327592
12.05261 754.23035 761.460228 747.174121 0.001325855
12.06142 755.54657 762.234931 747.684625 0.001323545
12.07022 756.45471 762.717438 748.193083 0.001321956
12.07903 756.57562 762.918555 748.699435 0.001321745
12.08784 756.39484 762.90841 749.203623 0.001322061
12.09664 757.43884 762.785065 749.705592 0.001320239
12.10545 758.36877 762.644753 750.205341 0.00131862
12.11426 759.54541 762.568968 750.702702 0.001316577
12.12307 760.93933 762.624267 751.197679 0.001314165
12.13187 762.20074 762.869124 751.690219 0.00131199
12.14068 763.85095 763.359971 752.18027 0.001309156
12.14949 765.9621 764.157029 752.667838 0.001305548
12.15829 768.12189 765.327495 753.152763 0.001301877
12.16710 770.9657 766.947882 753.635053 0.001297075
12.17591 774.32623 769.099596 754.11466 0.001291445
12.18472 777.00635 771.86153 754.59154 0.001286991
12.19352 779.78217 775.298493 755.065648 0.001282409
12.20233 783.33655 779.443106 755.536995 0.001276591
12.21114 788.34772 784.275249 756.005432 0.001268476
12.21994 793.4433 789.707867 756.470973 0.00126033
12.22875 798.91663 795.560692 756.933578 0.001251695
12.23756 804.19763 801.540674 757.393211 0.001243475
12.24637 809.76514 807.22578 757.849886 0.001234926
12.25517 813.73157 812.060525 758.303465 0.001228906
12.26398 816.23834 815.435106 758.753967 0.001225132
12.27279 817.59735 816.856048 759.20136 0.001223096
12.28159 816.95123 816.156901 759.645613 0.001224063
12.29040 813.81543 813.588928 760.086696 0.00122878
12.29921 809.27087 809.698818 760.524632 0.00123568
12.30802 803.76367 805.118348 760.959296 0.001244147
12.31682 798.04181 800.403477 761.390711 0.001253067
12.32563 793.85358 795.976067 761.818855 0.001259678
12.33444 789.67877 792.128858 762.243705 0.001266338
12.34324 786.47437 789.039937 762.66529 0.001271497
12.35205 784.55072 786.7897 763.083447 0.001274615
12.36086 783.604 785.37642 763.498302 0.001276155
12.36966 782.86646 784.732309 763.909791 0.001277357
12.37847 782.91144 784.737546 764.317899 0.001277284
12.38728 782.78687 785.230642 764.722661 0.001277487
12.39609 782.58398 786.020043 765.123972 0.001277818
12.40489 783.28589 786.890201 765.521869 0.001276673
12.41370 784.14337 787.621389 765.916344 0.001275277
12.42251 783.92285 788.026761 766.307389 0.001275636
12.43131 782.97144 788.002563 766.695 0.001277186
12.44012 781.47705 787.555854 767.079217 0.001279628
12.44893 779.33099 786.784842 767.459949 0.001283152
12.45774 777.33698 785.827066 767.83724 0.001286443
12.46654 776.06854 784.814704 768.21109 0.001288546
12.47535 774.62646 783.853849 768.581503 0.001290945
12.48416 772.96509 783.020411 768.948523 0.001293719
12.49297 772.48486 782.365777 769.312072 0.001294524
12.50177 772.86407 781.919639 769.6722 0.001293889
12.51058 773.04895 781.696763 770.028914 0.001293579
12.51939 773.26062 781.701584 770.382224 0.001293225
12.52819 773.89471 781.933748 770.732141 0.001292165
12.53700 775.38666 782.392716 771.078718 0.001289679
12.54581 777.3399 783.082145 771.42189 0.001286439
12.55462 779.23334 784.012247 771.761712 0.001283313
12.56342 780.42584 785.200505 772.098201 0.001281352
12.57223 781.9024 786.670804 772.431375 0.001278932
12.58104 784.08008 788.450746 772.761293 0.00127538
12.58985 786.38184 790.565681 773.0879 0.001271647
12.59865 788.1889 793.034888 773.411257 0.001268731
12.60746 790.15216 795.863037 773.731387 0.001265579
12.61627 794.10651 799.033432 774.048316 0.001259277
12.62507 798.30255 802.505471 774.362072 0.001252658
12.63388 802.03748 806.216573 774.672716 0.001246825
12.64269 804.48352 810.088579 774.980208 0.001243034
12.65150 807.95892 814.038648 775.284615 0.001237687
12.66030 811.6842 817.971674 775.585968 0.001232006
12.66911 815.15088 821.776295 775.8843 0.001226767
12.67792 819.39093 825.345496 776.179679 0.001220419
12.68672 823.24786 828.627872 776.472073 0.001214701
12.69553 827.35199 831.684581 776.761555 0.001208675
12.70434 830.54474 834.686063 777.04816 0.001204029
12.71315 834.29529 837.848032 777.33193 0.001198616
12.72195 837.21881 841.345464 777.612903 0.001194431
12.73076 840.91492 845.257096 777.891153 0.001189181
12.73957 844.29462 849.55098 778.166659 0.001184421
12.74837 849.07404 854.115425 778.439496 0.001177754
12.75718 853.97528 858.830669 778.70971 0.001170994
12.76599 859.82941 863.669746 778.977346 0.001163021
12.77480 865.36017 868.752061 779.242479 0.001155588
12.78360 871.47864 874.317635 779.505099 0.001147475
12.79241 877.73169 880.658623 779.765284 0.0011393
12.80122 885.17737 888.080172 780.023082 0.001129717
12.81002 892.60059 896.924849 780.278545 0.001120322
12.81883 900.10315 907.580984 780.531723 0.001110984
12.82764 909.56958 920.43572 780.782698 0.001099421
12.83645 921.65802 935.736291 781.031464 0.001085001
12.84525 937.90808 953.461408 781.278105 0.001066203
12.85406 957.5163 973.197183 781.522674 0.001044369
12.86287 979.10944 994.090999 781.765227 0.001021336
12.87167 1002.9802 1014.867773 782.005846 0.000997029
12.88048 1029.5479 1034.014516 782.244535 0.0009713
12.88929 1055.5833 1050.111046 782.481349 0.000947344
12.89809 1076.5349 1062.12367 782.716401 0.000928906
12.90690 1088.4834 1069.439418 782.949723 0.000918709
12.91571 1091.5521 1071.643595 783.181372 0.000916127
12.92452 1084.6218 1068.364646 783.411435 0.00092198
12.93332 1070.8105 1059.452092 783.639919 0.000933872
12.94213 1050.4883 1045.328962 783.86691 0.000951938
12.95094 1027.4591 1027.175956 784.09247 0.000973275
12.95974 1002.542 1006.706969 784.316659 0.000997464
12.96855 977.24084 985.706567 784.539564 0.001023289
12.97736 954.45398 965.664216 784.761196 0.001047719
12.98617 935.70801 947.594 784.981644 0.001068709
12.99497 921.28973 932.040131 785.200968 0.001085435
13.00378 912.03778 919.117141 785.419233 0.001096446
13.01259 903.89758 908.583773 785.636525 0.00110632
13.02140 899.19135 899.955573 785.852859 0.00111211
13.03020 895.02789 892.64002 786.068321 0.001117284
13.03901 891.57709 886.094656 786.282976 0.001121608
13.04782 885.41388 879.925345 786.496887 0.001129415
13.05662 878.9162 873.877964 786.710117 0.001137765
13.06543 870.5451 867.779767 786.922755 0.001148706
13.07424 862.54633 861.519248 787.134814 0.001159358
13.08305 854.42609 855.062201 787.346383 0.001170376
13.09185 846.40967 848.483278 787.557525 0.001181461
13.10066 838.39557 841.951035 787.768304 0.001192754
13.10947 830.42767 835.668945 787.978807 0.001204199
13.11828 823.85834 829.819263 788.189048 0.001213801
13.12708 819.52734 824.532106 788.399114 0.001220216
13.13589 819.21661 819.880595 788.609069 0.001220678
13.14470 825.164 815.886472 788.818974 0.00121188
13.15350 839.32446 812.534458 789.028892 0.001191434
13.16231 854.13269 809.781084 789.238907 0.001170778
13.17112 855.35162 807.565185 789.449035 0.00116911
13.17993 839.61932 805.816412 789.659359 0.001191016
13.18873 819.92896 804.462471 789.869941 0.001219618
13.19754 807.84564 803.434142 790.080841 0.00123786
13.20635 803.02875 802.670096 790.292142 0.001245285
13.21515 801.17554 802.118493 790.503856 0.001248166
13.22396 800.69775 801.7385 790.716066 0.001248911
13.23277 800.37445 801.500363 790.928829 0.001249415
13.24157 800.62579 801.385252 791.142205 0.001249023
13.25038 801.38702 801.384899 791.356249 0.001247837
13.25919 802.19324 801.501313 791.571044 0.001246582
13.26800 803.18292 801.746295 791.786595 0.001245046
13.27680 803.8432 802.141744 792.002983 0.001244024
13.28561 805.44928 802.718664 792.220262 0.001241543
13.29442 806.77673 803.51614 792.438486 0.0012395
13.30323 807.83435 804.579718 792.657734 0.001237878
13.31203 808.39545 805.956589 792.878007 0.001237018
13.32084 809.42438 807.691272 793.099382 0.001235446
13.32965 809.61926 809.819528 793.321911 0.001235148
13.33845 811.68347 812.359355 793.545642 0.001232007
13.34726 812.80609 815.303571 793.770625 0.001230306
13.35607 814.99402 818.614093 793.996935 0.001227003
13.36488 818.42261 822.210784 794.224566 0.001221863
13.37368 821.45099 825.968653 794.453592 0.001217358
13.38249 824.84204 829.71204 794.684058 0.001212353
13.39130 829.297 833.209369 794.916007 0.001205841
13.40010 831.38666 836.184062 795.149512 0.00120281
13.40891 834.2702 838.347631 795.38456 0.001198652
13.41772 836.5918 839.46474 795.621221 0.001195326
13.42652 836.6413 839.42931 795.859507 0.001195255
13.43533 836.0307 838.30502 796.099513 0.001196128
13.44414 833.62073 836.297902 796.34125 0.001199586
13.45295 828.73297 833.684309 796.584783 0.001206661
13.46175 825.46448 830.738029 796.830094 0.001211439
13.47056 822.5722 827.688888 797.077244 0.001215699
13.47937 819.5235 824.709702 797.32627 0.001220221
13.48818 817.77264 821.920314 797.577203 0.001222834
13.49698 816.47192 819.394687 797.830104 0.001224782
13.50579 814.77881 817.173974 798.084948 0.001227327
13.51460 813.67542 815.26789 798.341791 0.001228991
13.52340 812.52618 813.664737 798.600663 0.00123073
13.53221 811.3913 812.336968 798.861591 0.001232451
13.54102 810.70276 811.25077 799.124601 0.001233498
13.54983 810.31909 810.372632 799.389749 0.001234082
13.55863 809.35059 809.674568 799.656998 0.001235558
13.56744 808.586 809.132538 799.9264 0.001236727
13.57625 808.4953 808.726903 800.197977 0.001236866
13.58505 808.36499 808.441389 800.47175 0.001237065
13.59386 808.1059 808.262717 800.747768 0.001237462
13.60267 807.89978 808.180577 801.025986 0.001237777
13.61148 807.38428 808.187265 801.306453 0.001238568
13.62028 807.82465 808.277145 801.589184 0.001237892
13.62909 807.84961 808.446493 801.874192 0.001237854
13.63790 807.92041 808.692993 802.16149 0.001237746
13.64671 807.81982 809.015345 802.451124 0.0012379
13.65551 807.79144 809.412613 802.743037 0.001237943
13.66432 808.53735 809.884016 803.037271 0.001236801
13.67313 809.23499 810.42789 803.333835 0.001235735
13.68193 809.63434 811.041026 803.632735 0.001235125
13.69074 809.90442 811.718119 803.93401 0.001234714
13.69955 810.961 812.450446 804.237597 0.001233105
13.70835 812.25641 813.225812 804.543532 0.001231138
13.71716 813.23425 814.027816 804.851817 0.001229658
13.72597 813.84247 814.835322 805.162452 0.001228739
13.73478 814.3244 815.622879 805.475438 0.001228012
13.74358 814.91064 816.362995 805.790807 0.001227128
13.75239 816.07874 817.030386 806.108485 0.001225372
13.76120 816.8396 817.609994 806.428504 0.001224231
13.77000 817.58374 818.103644 806.750857 0.001223116
13.77881 818.66199 818.532922 807.075539 0.001221505
13.78762 818.7655 818.936172 807.402578 0.001221351
13.79643 818.56952 819.362773 807.731891 0.001221643
13.80523 819.59644 819.869971 808.063506 0.001220113
13.81404 821.67462 820.521547 808.39741 0.001217027
13.82285 823.0473 821.389525 808.733591 0.001214997
13.83166 824.28094 822.557927 809.072075 0.001213179
13.84046 826.2663 824.123391 809.412769 0.001210264
13.84927 828.67963 826.19759 809.755697 0.001206739
13.85808 831.85815 828.906384 810.100841 0.001202128
13.86688 836.05908 832.384125 810.448183 0.001196088
13.87569 841.02185 836.765937 810.797705 0.00118903
13.88450 847.5426 842.178865 811.149426 0.001179882
13.89331 855.88611 848.719477 811.503245 0.00116838
13.90211 864.67511 856.441037 811.859181 0.001156504
13.91092 873.9834 865.334898 812.21721 0.001144186
13.91973 884.92395 875.30616 812.577308 0.001130041
13.92854 896.63379 886.160681 812.939491 0.001115283
13.93734 906.95319 897.589397 813.303652 0.001102593
13.94615 915.45996 909.156443 813.669804 0.001092347
13.95496 924.23712 920.2902 814.037919 0.001081973
13.96376 931.0332 930.295528 814.407927 0.001074076
13.97257 939.22528 938.394622 814.779883 0.001064707
13.98138 947.79108 943.832354 815.153756 0.001055085
13.99018 951.24982 946.049795 815.52943 0.001051249
13.99899 946.59698 944.852315 815.906916 0.001056416
14.00780 930.58435 940.479603 816.286181 0.001074594
14.01661 916.92615 933.523113 816.667191 0.0010906
14.02541 906.64716 924.756921 817.049956 0.001102965
14.03422 897.99023 914.976283 817.434354 0.001113598
14.04303 889.25592 904.882878 817.820392 0.001124536
14.05183 880.96088 895.05909 818.208033 0.001135124
14.06064 873.83264 885.957611 818.597241 0.001144384
14.06945 867.66583 877.906286 818.987978 0.001152517
14.07826 862.98639 871.12914 819.38025 0.001158767
14.08706 859.53876 865.760382 819.77393 0.001163415
14.09587 857.22815 861.853916 820.169021 0.001166551
14.10468 856.93542 859.412226 820.565485 0.001166949
14.11348 857.17499 858.40065 820.96328 0.001166623
14.12229 857.50049 858.760737 821.36241 0.00116618
14.13110 858.28217 860.420343 821.762745 0.001165118
14.13991 860.30591 863.289994 822.164286 0.001162377
14.14871 863.05762 867.258306 822.566991 0.001158671
14.15752 866.61145 872.182152 822.970818 0.00115392
14.16633 871.18567 877.878957 823.375724 0.001147861
14.17513 876.20453 884.117241 823.78171 0.001141286
14.18394 882.23938 890.606514 824.188641 0.001133479
14.19275 889.0708 896.99519 824.59652 0.00112477
14.20156 896.40881 902.873371 825.0053 0.001115562
14.21036 903.92291 907.792638 825.414938 0.001106289
14.21917 911.07483 911.321148 825.825435 0.001097605
14.22798 915.88165 913.119942 826.236653 0.001091844
14.23678 919.04675 913.032843 826.648594 0.001088084
14.24559 918.87604 911.130865 827.061211 0.001088286
14.25440 915.41681 907.69471 827.474459 0.001092399
14.26321 909.63965 903.1448 827.888293 0.001099336
14.27201 903.1637 897.952078 828.302714 0.001107219
14.28082 895.75507 892.576062 828.717581 0.001116377
14.28963 888.98785 887.42518 829.132897 0.001124875
14.29843 883.19678 882.847994 829.548614 0.001132251
14.30724 879.51404 879.127842 829.964688 0.001136992
14.31605 876.9834 876.488501 830.38112 0.001140272
14.32486 875.71368 875.091001 830.797769 0.001141926
14.33366 875.71545 875.038409 831.214638 0.001141923
14.34247 877.18182 876.375938 831.63168 0.001140015
14.35128 879.44275 879.091689 832.048851 0.001137084
14.36008 882.99097 883.117075 832.466105 0.001132514
14.36889 887.69373 888.33286 832.883445 0.001126515
14.37770 892.90631 894.561025 833.30073 0.001119938
14.38651 898.81134 901.5736 833.717965 0.001112581
14.39531 904.46216 909.091269 834.135104 0.001105629
14.40412 912.47284 916.779259 834.552104 0.001095923
14.41293 920.70624 924.257781 834.968968 0.001086123
14.42174 929.09314 931.120288 835.385558 0.001076318
14.43054 938.63177 936.984318 835.801879 0.001065381
14.43935 948.69464 941.569404 836.217888 0.00105408
14.44816 955.43726 944.778096 836.633542 0.001046641
14.45696 961.63599 946.736702 837.0488 0.001039895
14.46577 964.68365 947.767047 837.463667 0.001036609
14.47458 962.95789 948.292517 837.878009 0.001038467
14.48339 962.29822 948.744612 838.291832 0.001039179
14.49219 960.33844 949.485231 838.705095 0.0010413
14.50100 956.49548 950.756339 839.117714 0.001045483
14.50981 956.81506 952.667115 839.529788 0.001045134
14.51861 957.14508 955.188154 839.94114 0.001044774
14.52742 957.00531 958.155111 840.351778 0.001044926
14.53623 959.06018 961.30913 840.761664 0.001042687
14.54504 960.02576 964.348648 841.170764 0.001041639
14.55384 960.62915 966.979187 841.579086 0.001040984
14.56265 959.88605 968.955513 841.986502 0.00104179
14.57146 959.62939 970.070013 842.393025 0.001042069
14.58026 958.63434 970.12771 842.79862 0.001043151
14.58907 957.10168 968.931553 843.203254 0.001044821
14.59788 954.31036 966.308746 843.606894 0.001047877
14.60669 950.70221 962.1655 844.009553 0.001051854
14.61549 945.55426 956.56035 844.41111 0.001057581
14.62430 939.43091 949.714607 844.811579 0.001064474
14.63311 933.70215 941.981299 845.21093 0.001071005
14.64191 927.35358 933.770616 845.609136 0.001078337
14.65072 921.02466 925.47427 846.006211 0.001085747
14.65953 915.95319 917.433287 846.402039 0.001091759
14.66834 911.38678 909.905258 846.796639 0.001097229
14.67714 907.00922 903.071911 847.189984 0.001102525
14.68595 903.36444 897.041588 847.582049 0.001106973
14.69476 900.55347 891.857578 847.972811 0.001110428
14.70356 897.59442 887.503652 848.36229 0.001114089
14.71237 895.17462 883.921113 848.750375 0.0011171
14.72118 891.78497 881.011905 849.137089 0.001121347
14.72999 889.1828 878.658311 849.52241 0.001124628
14.73879 886.94666 876.737143 849.90632 0.001127464
14.74760 884.30597 875.136929 850.288842 0.00113083
14.75641 881.58929 873.770895 850.669871 0.001134315
14.76521 880.3819 872.583037 851.049433 0.001135871
14.77402 879.23944 871.544762 851.427513 0.001137347
14.78283 877.62262 870.649157 851.804094 0.001139442
14.79164 876.98285 869.903283 852.179163 0.001140273
14.80044 876.13068 869.322861 852.552746 0.001141382
14.80925 875.46759 868.929588 852.924748 0.001142247
14.81806 875.22583 868.74888 853.295198 0.001142562
14.82686 875.84943 868.807991 853.664085 0.001141749
14.83567 876.49866 869.135049 854.0314 0.001140903
14.84448 877.11932 869.757632 854.397174 0.001140096
14.85329 878.14001 870.700174 854.761316 0.001138771
14.86209 880.52667 871.984135 855.123861 0.001135684
14.87090 883.22601 873.625146 855.484801 0.001132213
14.87971 886.68561 875.632041 855.844131 0.001127795
14.88851 891.87915 878.004633 856.201847 0.001121228
14.89732 897.87659 880.732805 856.557985 0.001113739
14.90613 907.54199 883.79142 856.912461 0.001101877
14.91494 915.37152 887.140834 857.265314 0.001092453
14.92374 920.29974 890.721147 857.616542 0.001086603
14.93255 918.01117 894.45257 857.966145 0.001089311
14.94136 915.30896 898.235556 858.314164 0.001092527
14.95017 912.24487 901.956722 858.66052 0.001096197
14.95897 911.30646 905.505131 859.005255 0.001097326
14.96778 910.49518 908.784383 859.348373 0.001098303
14.97659 910.38397 911.723769 859.689878 0.001098438
14.98539 909.55023 914.278738 860.029773 0.001099445
14.99420 909.92706 916.417163 860.368105 0.001098989
15.00301 911.65759 918.105593 860.704801 0.001096903
15.01182 913.42542 919.308812 861.039908 0.00109478
15.02062 914.55457 919.994586 861.373433 0.001093428
15.02943 915.61493 920.160372 861.705387 0.001092162
15.03824 917.1424 919.859486 862.035777 0.001090343
15.04704 918.27325 919.215693 862.364616 0.001089
15.05585 917.89258 918.417272 862.691913 0.001089452
15.06466 916.60895 917.693019 863.01768 0.001090978
15.07347 915.51782 917.279355 863.341931 0.001092278
15.08227 915.08813 917.392142 863.664716 0.001092791
15.09108 916.36737 918.208863 863.985974 0.001091265
15.09989 919.85327 919.855159 864.305757 0.00108713
15.10869 924.6394 922.397893 864.624081 0.001081503
15.11750 929.85565 925.840863 864.940962 0.001075436
15.12631 935.27802 930.119107 865.256416 0.001069201
15.13512 940.27081 935.097924 865.570497 0.001063523
15.14392 944.7973 940.572631 865.883151 0.001058428
15.15273 948.87482 946.270717 866.194431 0.00105388
15.16154 952.76318 951.857465 866.504359 0.001049579
15.17034 956.06781 956.953082 866.812952 0.001045951
15.17915 959.24561 961.156485 867.120266 0.001042486
15.18796 961.75629 964.090121 867.426252 0.001039764
15.19677 962.27435 965.460701 867.730966 0.001039205
15.20557 961.53247 965.107189 868.034431 0.001040006
15.21438 959.22101 963.031244 868.336667 0.001042513
15.22319 954.92969 959.386148 868.637699 0.001047198
15.23199 948.74774 954.438358 868.937582 0.001054021
15.24080 941.98438 948.517375 869.236274 0.001061589
15.24961 934.53619 941.961141 869.53383 0.00107005
15.25842 926.92194 935.091358 869.830277 0.001078839
15.26722 919.93329 928.190467 870.125638 0.001087035
15.27603 913.74475 921.494686 870.419972 0.001094398
15.28484 908.47583 915.190797 870.713238 0.001100745
15.29364 903.76965 909.413281 871.005495 0.001106477
15.30245 899.33295 904.245991 871.296768 0.001111935
15.31126 895.68555 899.734326 871.587084 0.001116463
15.32007 892.77789 895.883456 871.87647 0.001120099
15.32887 890.33179 892.66784 872.164985 0.001123177
15.33768 887.83142 890.043037 872.45259 0.00112634
15.34649 886.64056 887.948898 872.739345 0.001127853
15.35529 886.18402 886.317628 873.025278 0.001128434
15.36410 886.10925 885.080747 873.310416 0.001128529
15.37291 885.19281 884.172809 873.594818 0.001129697
15.38172 884.18695 883.533721 873.878449 0.001130983
15.39052 883.49939 883.111399 874.161367 0.001131863
15.39933 883.16394 882.862369 874.443601 0.001132293
15.40814 883.24316 882.751573 874.725178 0.001132191
15.41695 883.40247 882.752353 875.006127 0.001131987
15.42575 883.29175 882.84555 875.286507 0.001132129
15.43456 883.04297 883.018595 875.566282 0.001132448
15.44337 884.3432 883.265037 875.845512 0.001130783
15.45217 884.69452 883.583696 876.124225 0.001130334
15.46098 884.98273 883.978266 876.402448 0.001129966
15.46979 885.62024 884.456917 876.68024 0.001129152
15.47860 887.49182 885.03161 876.957567 0.001126771
15.48740 888.34235 885.718286 877.234486 0.001125692
15.49621 888.94623 886.53596 877.511024 0.001124927
15.50502 889.97632 887.504975 877.78721 0.001123625
15.51382 891.98358 888.651289 878.063069 0.001121097
15.52263 893.1123 889.998026 878.33866 0.00111968
15.53144 894.45081 891.568371 878.613945 0.001118004
15.54025 896.258 893.384376 878.888984 0.00111575
15.54905 898.78613 895.464189 879.1638 0.001112612
15.55786 900.73004 897.820707 879.438421 0.001110211
15.56667 902.8515 900.460713 879.712902 0.001107602
15.57547 905.0033 903.380639 879.987174 0.001104968
15.58428 908.17352 906.568881 880.261356 0.001101111
15.59309 911.60583 910.000803 880.53544 0.001096965
15.60190 915.04993 913.6379 880.809451 0.001092837
15.61070 918.14752 917.428434 881.083443 0.00108915
15.61951 921.25751 921.305446 881.357377 0.001085473
15.62832 925.44122 925.195635 881.631306 0.001080566
15.63712 929.58551 929.022183 881.905252 0.001075748
15.64593 933.88934 932.716515 882.179237 0.001070791
15.65474 937.78906 936.225866 882.453283 0.001066338
15.66355 940.65625 939.517008 882.72744 0.001063088
15.67235 941.8476 942.570963 883.001668 0.001061743
15.68116 944.06146 945.375432 883.276016 0.001059253
15.68997 947.05518 947.915675 883.550504 0.001055905
15.69877 950.29443 950.166837 883.82515 0.001052305
15.70758 952.9187 952.095307 884.100004 0.001049407
15.71639 956.38391 953.664972 884.375021 0.001045605
15.72520 959.49823 954.84607 884.650248 0.001042211
15.73400 961.72473 955.623331 884.925702 0.001039799
15.74281 962.77252 955.986549 885.201398 0.001038667
15.75162 963.20959 955.996628 885.477352 0.001038196
15.76042 961.98065 955.689668 885.75361 0.001039522
15.76923 959.76154 955.137705 886.030121 0.001041925
15.77804 955.81506 954.42503 886.306932 0.001046227
15.78685 952.74536 953.637958 886.584053 0.001049598
15.79565 950.8205 952.853365 886.861498 0.001051723
15.80446 949.40576 952.133056 887.139308 0.00105329
15.81327 947.94507 951.521321 887.417431 0.001054913
15.82207 947.46259 951.046859 887.695909 0.001055451
15.83088 948.80914 950.729871 887.974749 0.001053953
15.83969 949.76733 950.589398 888.253961 0.001052889
15.84850 951.22321 950.65022 888.533553 0.001051278
15.85730 952.79034 950.947889 888.813562 0.001049549
15.86611 954.56854 951.531773 889.093931 0.001047594
15.87492 956.71472 952.46043 889.374698 0.001045244
15.88373 957.51648 953.797345 889.655867 0.001044368
15.89253 958.44879 955.601375 889.937443 0.001043353
15.90134 961.01312 957.9172 890.21946 0.001040569
15.91015 963.53589 960.755884 890.501857 0.001037844
15.91895 966.77063 964.100151 890.784667 0.001034372
15.92776 969.56915 967.879118 891.067892 0.001031386
15.93657 973.11658 971.975483 891.351533 0.001027626
15.94538 977.45551 976.221692 891.635587 0.001023064
15.95418 983.20599 980.395887 891.920088 0.001017081
15.96299 989.19568 984.259123 892.204967 0.001010922
15.97180 997.05408 987.521025 892.490255 0.001002955
15.98060 1003.8093 989.895187 892.775948 0.000996205
15.98941 1009.2017 991.129689 893.062041 0.000990882
15.99822 1012.5336 991.048409 893.348564 0.000987622
16.00702 1013.5306 989.585892 893.635411 0.00098665
16.01583 1010.1475 986.79805 893.922707 0.000989954
16.02464 1003.2494 982.849223 894.210315 0.000996761
16.03345 995.21149 977.969259 894.498357 0.001004812
16.04225 986.37024 972.436455 894.786694 0.001013818
16.05106 978.22028 966.51258 895.07548 0.001022265
16.05987 970.85962 960.44952 895.364508 0.001030015
16.06868 964.05591 954.462837 895.653933 0.001037284
16.07748 957.81989 948.736984 895.94361 0.001044038
16.08629 952.10931 943.416145 896.233661 0.0010503
16.09510 947.00598 938.613263 896.523972 0.00105596
16.10391 943.27252 934.404579 896.814597 0.001060139
16.11271 938.98328 930.836213 897.105422 0.001064982
16.12152 935.58997 927.926324 897.396566 0.001068844
16.13032 933.2215 925.659003 897.687879 0.001071557
16.13913 931.24243 924.038594 897.979479 0.001073834
16.14794 928.44501 923.018247 898.27125 0.00107707
16.15675 926.69226 922.553794 898.56324 0.001079107
16.16555 926.31537 922.597231 898.855333 0.001079546
16.17436 926.17737 923.099043 899.147642 0.001079707
16.18317 925.97003 924.010772 899.440016 0.001079949
16.19198 925.51208 925.287392 899.732602 0.001080483
16.20078 924.45886 926.884276 900.025179 0.001081714
16.20959 923.88373 928.759463 900.317894 0.001082387
16.21840 923.80658 930.866565 900.610591 0.001082478
16.22721 923.8335 933.156984 900.903384 0.001082446
16.23601 924.38739 935.570801 901.196148 0.001081798
16.24482 926.34869 938.049552 901.48893 0.001079507
16.25363 927.82697 940.518873 901.781604 0.001077787
16.26243 929.50562 942.904396 902.074282 0.001075841
16.27124 931.59924 945.130985 902.366806 0.001073423
16.28005 933.78436 947.136497 902.659284 0.001070911
16.28886 935.65076 948.873017 902.951592 0.001068775
16.29766 936.4248 950.313504 903.243771 0.001067891
16.30647 936.43713 951.447695 903.535696 0.001067877
16.31528 936.14697 952.275232 903.827474 0.001068208
16.32408 935.77777 952.797437 904.118946 0.00106863
16.33289 935.95605 953.014266 904.410218 0.001068426
16.34170 936.08502 952.921759 904.701164 0.001068279
16.35051 936.21912 952.51925 904.991822 0.001068126
16.35931 936.92383 951.816804 905.282067 0.001067323
16.36812 937.29352 950.839576 905.572002 0.001066902
16.37693 937.1756 949.634286 905.861468 0.001067036
16.38573 936.29102 948.263044 906.150536 0.001068044
16.39454 936.25195 946.798723 906.439177 0.001068089
16.40335 936.17529 945.318293 906.727265 0.001068176
16.41215 936.1795 943.893109 907.014901 0.001068171
16.42096 935.6499 942.589255 907.301927 0.001068776
16.42977 936.35114 941.462582 907.588476 0.001067975
16.43858 937.38446 940.562721 907.874325 0.001066798
16.44738 938.67688 939.931544 908.159607 0.001065329
16.45619 939.84186 939.609077 908.444164 0.001064009
16.46500 940.4621 939.632489 908.728095 0.001063307
16.47380 941.34589 940.038623 909.011243 0.001062309
16.48261 942.77051 940.862587 909.293739 0.001060704
16.49142 943.76501 942.13427 909.575362 0.001059586
16.50023 944.89655 943.876566 909.856243 0.001058317
16.50903 946.68542 946.101138 910.136226 0.001056317
16.51784 948.52734 948.808003 910.415409 0.001054266
16.52665 951.61237 951.979821 910.693668 0.001050848
16.53546 955.04376 955.586431 910.971038 0.001047072
16.54426 959.95459 959.576775 911.247396 0.001041716
16.55307 964.44299 963.885016 911.522839 0.001036868
16.56188 969.5448 968.422978 911.797215 0.001031412
16.57068 974.66895 973.088509 912.07062 0.001025989
16.57949 981.6272 977.75919 912.342933 0.001018717
16.58830 987.52411 982.308181 912.61419 0.001012634
16.59710 993.02991 986.608025 912.88427 0.001007019
16.60591 997.04065 990.550235 913.153269 0.001002968
16.61472 1001.1168 994.051841 913.42104 0.000998884
16.62353 1003.4171 997.066765 913.687707 0.000996595
16.63233 1004.3165 999.575685 913.953063 0.000995702
16.64114 1003.8579 1001.584601 914.217234 0.000996157
16.64995 1003.8682 1003.107173 914.480075 0.000996147
16.65876 1002.6649 1004.157706 914.74168 0.000997342
16.66756 1001.9777 1004.74794 915.001907 0.000998026
16.67637 1002.4065 1004.893823 915.260879 0.000997599
16.68518 1003.3207 1004.625313 915.518397 0.00099669
16.69399 1003.1436 1004.000993 915.774583 0.000996866
16.70279 1001.2301 1003.116311 916.0293 0.000998771
16.71160 1000.1258 1002.102226 916.282641 0.000999874
16.72041 999.11755 1001.116783 916.534498 0.001000883
16.72921 999.97699 1000.328833 916.784908 0.001000023
16.73802 998.67865 999.902586 917.033765 0.001001323
16.74683 1000.56 999.982725 917.281163 0.00099944
16.75563 1000.3913 1000.684536 917.52697 0.000999609
16.76444 1005.3121 1002.090553 917.771279 0.000994716
16.77325 1007.9089 1004.245347 918.013989 0.000992153
16.78206 1016.0946 1007.154623 918.255137 0.00098416
16.79086 1020.4501 1010.78521 918.494626 0.00097996
16.79967 1032.3379 1015.067749 918.732546 0.000968675
16.80848 1035.7172 1019.894172 918.968776 0.000965515
16.81729 1047.5774 1025.133961 919.203435 0.000954583
16.82609 1050.7286 1030.630529 919.436347 0.000951721
16.83490 1060.1572 1036.227334 919.667634 0.000943256
16.84371 1060.2501 1041.768445 919.897176 0.000943174
16.85251 1067.6503 1047.119046 920.125066 0.000936636
16.86132 1065.0007 1052.164741 920.351189 0.000938967
16.87013 1066.9343 1056.825172 920.575663 0.000937265
16.87893 1061.8655 1061.043161 920.798326 0.000941739
16.88774 1060.1627 1064.804162 921.019294 0.000943251
16.89655 1052.9098 1068.117471 921.23846 0.000949749
16.90536 1049.8549 1071.021449 921.455914 0.000952513
16.91416 1045.0367 1073.566039 921.671577 0.000956904
16.92297 1043.4423 1075.790507 921.885442 0.000958366
16.93178 1041.0028 1077.712148 922.097577 0.000960612
16.94058 1040.7432 1079.311484 922.307881 0.000960852
16.94939 1041.4109 1080.526327 922.516446 0.000960236
16.95820 1044.0314 1081.252348 922.723198 0.000957826
16.96701 1047.1948 1081.365791 922.928181 0.000954932
16.97581 1050.4093 1080.734564 923.131325 0.00095201
16.98462 1053.0383 1079.254594 923.332722 0.000949633
16.99343 1054.8859 1076.875192 923.532279 0.00094797
17.00223 1056.3298 1073.611906 923.73009 0.000946674
17.01104 1056.4172 1069.551341 923.926087 0.000946596
17.01985 1055.0287 1064.832187 924.120319 0.000947842
17.02866 1051.603 1059.625542 924.312723 0.000950929
17.03746 1048.2925 1054.106212 924.50339 0.000953932
17.04627 1044.0452 1048.440252 924.69224 0.000957813
17.05508 1039.5601 1042.765089 924.879384 0.000961945
17.06388 1033.2856 1037.195679 925.064702 0.000967787
17.07269 1027.1669 1031.801966 925.248306 0.000973552
17.08150 1021.1132 1026.626831 925.430123 0.000979323
17.09031 1016.0162 1021.674774 925.610242 0.000984236
17.09911 1011.6458 1016.924591 925.788593 0.000988488
17.10792 1007.7338 1012.330857 925.965286 0.000992326
17.11673 1003.2582 1007.845428 926.140212 0.000996752
17.12554 998.42737 1003.414015 926.313484 0.001001575
17.13434 994.2085 999.002822 926.485034 0.001005825
17.14315 989.88947 994.594014 926.654955 0.001010214
17.15196 984.05927 990.194967 926.823203 0.001016199
17.16077 977.79907 985.830703 926.98983 0.001022705
17.16957 971.67206 981.542224 927.154796 0.001029154
17.17838 965.35492 977.371464 927.318192 0.001035888
17.18718 960.12054 973.366063 927.479961 0.001041536
17.19599 956.48828 969.565939 927.640194 0.001045491
17.20480 952.67017 966.007688 927.798854 0.001049681
17.21361 949.039 962.719057 927.955997 0.001053697
17.22241 946.5224 959.721747 928.111589 0.001056499
17.23122 944.33057 957.025839 928.26572 0.001058951
17.24003 943.24609 954.636455 928.418342 0.001060169
17.24884 942.60718 952.547808 928.569563 0.001060887
17.25764 941.47919 950.749174 928.719301 0.001062158
17.26645 940.11096 949.220989 928.867665 0.001063704
17.27526 939.5874 947.939781 929.01461 0.001064297
17.28406 938.45831 946.877822 929.160226 0.001065577
17.29287 938.13196 946.006854 929.304472 0.001065948
17.30168 938.41766 945.298467 929.447454 0.001065624
17.31049 938.90692 944.728021 929.5891 0.001065068
17.31929 938.90363 944.274464 929.729516 0.001065072
17.32810 939.03973 943.922338 929.868665 0.001064918
17.33691 938.86279 943.661591 930.006635 0.001065118
17.34571 938.81567 943.487272 930.143408 0.001065172
17.35452 938.99152 943.39884 930.279041 0.001064972
17.36333 938.99982 943.399346 930.413516 0.001064963
17.37214 938.63025 943.494523 930.546922 0.001065382
17.38094 938.65985 943.691754 930.679227 0.001065349
17.38975 939.88696 944.000119 930.81052 0.001063958
17.39856 941.14746 944.428711 930.940785 0.001062533
17.40737 941.76361 944.987252 931.07008 0.001061838
17.41617 942.54761 945.684977 931.198391 0.001060954
17.42498 943.35236 946.531167 931.325806 0.001060049
17.43379 945.01941 947.527314 931.452298 0.001058179
17.44260 946.979 948.694484 931.577967 0.00105599
17.45140 949.11938 950.031722 931.702759 0.001053608
17.46021 951.65997 951.535247 931.826747 0.001050795
17.46901 953.97375 953.227429 931.94999 0.001048247
17.47782 956.76984 955.099718 932.072461 0.001045183
17.48663 959.27869 957.152964 932.194247 0.00104245
17.49544 962.32489 959.385893 932.315337 0.00103915
17.50424 965.13574 961.796921 932.43579 0.001036124
17.51305 968.28687 964.383427 932.555595 0.001032752
17.52186 971.34991 967.143656 932.674837 0.001029495
17.53066 974.03534 970.070411 932.793493 0.001026657
17.53947 977.10809 973.154576 932.91166 0.001023428
17.54828 980.14124 976.375747 933.029289 0.001020261
17.55709 982.92584 979.706131 933.146476 0.001017371
17.56589 985.9776 983.102966 933.263199 0.001014222
17.57470 989.58295 986.51295 933.37954 0.001010527
17.58351 994.72906 989.866753 933.49549 0.001005299
17.59232 999.75018 993.086871 933.611105 0.00100025
17.60112 1004.5408 996.086321 933.726374 0.00099548
17.60993 1008.4396 998.778973 933.84138 0.000991631
17.61874 1012.1783 1001.081751 933.956097 0.000987968
17.62754 1014.7883 1002.926548 934.070608 0.000985427
17.63635 1016.2324 1004.262136 934.184902 0.000984027
17.64516 1016.02 1005.059948 934.299031 0.000984233
17.65396 1014.8881 1005.314336 934.412985 0.00098533
17.66277 1012.9209 1005.041368 934.526842 0.000987244
17.67158 1010.6141 1004.275908 934.640577 0.000989497
17.68039 1008.0376 1003.069037 934.754268 0.000992026
17.68919 1004.918 1001.485647 934.867902 0.000995106
17.69800 1001.49 999.596064 934.98153 0.000998512
17.70681 998.53253 997.474689 935.095138 0.00100147
17.71562 996.01093 995.191106 935.208801 0.001004005
17.72442 993.36371 992.808809 935.322492 0.001006681
17.73323 990.74609 990.379565 935.436297 0.00100934
17.74204 987.88922 987.948452 935.550163 0.001012259
17.75085 985.34668 985.547923 935.664175 0.001014871
17.75965 983.16443 983.206543 935.778303 0.001017124
17.76846 981.09198 980.946717 935.892618 0.001019272
17.77727 978.61713 978.789755 936.007103 0.00102185
17.78607 976.07867 976.755126 936.121802 0.001024508
17.79488 973.74847 974.86312 936.236694 0.001026959
17.80369 972.21368 973.132247 936.35185 0.00102858
17.81249 971.82159 971.583342 936.467234 0.001028995
17.82130 970.87671 970.236706 936.582915 0.001029997
17.83011 969.55005 969.114468 936.698868 0.001031406
17.83892 967.82196 968.238205 936.815136 0.001033248
17.84772 967.18585 967.628535 936.931691 0.001033927
17.85653 966.85663 967.302198 937.048601 0.00103428
17.86534 966.56299 967.271358 937.165823 0.001034594
17.87415 967.30066 967.541269 937.283438 0.001033805
17.88295 968.44965 968.109192 937.401373 0.001032578
17.89176 970.06042 968.963902 937.519707 0.001030864
17.90057 971.33429 970.083866 937.638395 0.001029512
17.90937 973.04828 971.43891 937.757497 0.001027698
17.91818 975.29254 972.988481 937.876968 0.001025333
17.92699 978.49908 974.683921 937.996881 0.001021973
17.93579 981.27271 976.466778 938.11716 0.001019085
17.94460 985.42615 978.273521 938.237877 0.001014789
17.95341 988.71967 980.033484 938.35898 0.001011409
17.96222 993.97229 981.675607 938.480528 0.001006064
17.97102 997.99005 983.129263 938.602481 0.001002014
17.97983 1002.2104 984.330651 938.724866 0.000997794
17.98864 1004.5684 985.228588 938.847641 0.000995452
17.99744 1007.7209 985.790558 938.970834 0.000992338
18.00625 1008.7874 986.007388 939.09447 0.000991289
18.01506 1009.5601 985.895809 939.218502 0.00099053
18.02387 1007.0557 985.497069 939.342957 0.000992994
18.03267 1004.7094 984.873169 939.467785 0.000995313
18.04148 999.50745 984.099893 939.593038 0.001000493
18.05029 995.28278 983.260886 939.718651 0.00100474
18.05909 990.67303 982.44133 939.844674 0.001009415
18.06790 987.62946 981.725217 939.971055 0.001012525
18.07671 983.75934 981.189614 940.097812 0.001016509
18.08552 981.46033 980.905323 940.224891 0.00101889
18.09432 980.37219 980.933307 940.352339 0.001020021
18.10313 981.60077 981.317202 940.480085 0.001018744
18.11194 983.29541 982.110213 940.608172 0.001016988
18.12074 985.74609 983.333281 940.736544 0.00101446
18.12955 988.17859 985.001523 940.865213 0.001011963
18.13836 991.2204 987.117491 940.99412 0.001008857
18.14717 994.99597 989.672709 941.123305 0.001005029
18.15597 999.53931 992.644974 941.252692 0.001000461
18.16478 1004.4496 996.004378 941.382335 0.00099557
18.17359 1010.9306 999.708223 941.512126 0.000989188
18.18240 1015.7116 1003.709495 941.642117 0.000984531
18.19120 1020.5446 1007.951757 941.77223 0.000979869
18.20001 1024.5873 1012.376943 941.902499 0.000976003
18.20882 1029.8248 1016.9206 942.032857 0.000971039
18.21763 1033.9363 1021.519107 942.163311 0.000967178
18.22643 1039.6542 1026.108894 942.29379 0.000961858
18.23524 1043.0129 1030.631264 942.424329 0.000958761
18.24404 1048.7231 1035.028002 942.554842 0.000953541
18.25285 1050.1316 1039.246616 942.685361 0.000952262
18.26166 1057.135 1043.228953 942.815814 0.000945953
18.27047 1060.1853 1046.925049 942.946203 0.000943231
18.27927 1067.1431 1050.273924 943.076453 0.000937081
18.28808 1071.3773 1053.218726 943.206595 0.000933378
18.29689 1077.3488 1055.705178 943.336539 0.000928204
18.30570 1079.329 1057.693429 943.466313 0.000926502
18.31450 1081.2546 1059.163464 943.595841 0.000924852
18.32331 1078.5917 1060.126075 943.725121 0.000927135
18.33212 1075.8862 1060.622699 943.854076 0.000929466
18.34092 1070.0963 1060.726765 943.982732 0.000934495
18.34973 1066.9381 1060.531433 944.110997 0.000937261
18.35854 1063.0498 1060.139842 944.23891 0.00094069
18.36735 1058.3396 1059.654182 944.366348 0.000944876
18.37615 1053.1194 1059.163145 944.49335 0.00094956
18.38496 1051.2428 1058.733682 944.619823 0.000951255
18.39377 1049.2118 1058.411236 944.745789 0.000953096
18.40257 1048.6924 1058.212072 944.871168 0.000953568
18.41138 1048.4585 1058.125799 944.995954 0.000953781
18.42019 1049.5494 1058.119526 945.120067 0.00095279
18.42900 1051.2588 1058.13457 945.243528 0.000951241
18.43780 1054.035 1058.096243 945.366243 0.000948735
18.44661 1055.8011 1057.918324 945.488231 0.000947148
18.45542 1057.6604 1057.50786 945.609413 0.000945483
18.46423 1059.1781 1056.775297 945.72978 0.000944128
18.47303 1060.3845 1055.643847 945.849254 0.000943054
18.48184 1059.7893 1054.052478 945.967851 0.000943584
18.49065 1057.5967 1051.965901 946.08548 0.00094554
18.49945 1054.0612 1049.369856 946.202157 0.000948712
18.50826 1050.0426 1046.274449 946.317805 0.000952342
18.51707 1045.4048 1042.70781 946.432414 0.000956567
18.52587 1039.7721 1038.715669 946.545907 0.000961749
18.53468 1033.486 1034.356054 946.658272 0.000967599
18.54349 1027.3485 1029.698697 946.7695 0.00097338
18.55230 1021.739 1024.823916 946.879515 0.000978724
18.56110 1015.3913 1019.812691 946.988305 0.000984842
18.56991 1009.9445 1014.75768 947.095798 0.000990153
18.57872 1003.6471 1009.73467 947.202007 0.000996366
18.58752 997.18225 1004.821636 947.306848 0.001002826
18.59633 991.61493 1000.081142 947.410346 0.001008456
18.60514 987.59863 995.571286 947.512395 0.001012557
18.61395 983.67426 991.333582 947.613019 0.001016597
18.62275 980.32214 987.403843 947.712139 0.001020073
18.63156 977.27844 983.803045 947.809767 0.00102325
18.64037 973.99176 980.54676 947.905836 0.001026703
18.64918 971.21155 977.640328 948.000335 0.001029642
18.65798 969.21344 975.082488 948.093203 0.001031764
18.66679 967.3421 972.863979 948.184449 0.00103376
18.67560 965.71753 970.972075 948.274002 0.001035499
18.68440 964.23883 969.387379 948.361872 0.001037087
18.69321 962.99567 968.08871 948.448002 0.001038426
18.70202 961.68823 967.051598 948.532382 0.001039838
18.71082 960.96643 966.250184 948.614956 0.001040619
18.71963 960.51678 965.657398 948.695735 0.001041106
18.72844 960.73889 965.246598 948.774657 0.001040866
18.73725 960.80457 964.991204 948.851732 0.001040794
18.74605 960.36743 964.866276 948.92691 0.001041268
18.75486 960.38263 964.848512 949.000184 0.001041252
18.76367 960.73029 964.916706 949.071508 0.001040875
18.77248 960.3454 965.052489 949.140893 0.001041292
18.78128 959.75043 965.240197 949.208287 0.001041938
18.79009 960.03821 965.467381 949.273708 0.001041625
18.79890 960.08246 965.724847 949.337093 0.001041577
18.80770 959.95697 966.007338 949.398461 0.001041713
18.81651 960.74249 966.313215 949.457769 0.001040862
18.82532 961.12854 966.64523 949.515027 0.001040444
18.83413 960.44897 967.009954 949.570202 0.00104118
18.84293 960.92151 967.417071 949.623294 0.001040668
18.85174 962.20325 967.878595 949.674272 0.001039281
18.86055 962.55804 968.407838 949.723149 0.001038898
18.86935 963.11432 969.017426 949.769894 0.001038298
18.87816 964.55518 969.719072 949.814519 0.001036747
18.88697 966.49463 970.52238 949.857 0.001034667
18.89578 967.78186 971.433897 949.897343 0.001033291
18.90458 969.79425 972.45689 949.935529 0.001031147
18.91339 972.00293 973.591614 949.97157 0.001028803
18.92220 974.56665 974.833363 950.00545 0.001026097
18.93100 976.65833 976.175099 950.037181 0.0010239
18.93981 978.57611 977.604757 950.066753 0.001021893
18.94862 981.00775 979.107155 950.094174 0.00101936
18.95743 982.82117 980.663611 950.119438 0.001017479
18.96623 984.45898 982.253992 950.142559 0.001015786
18.97504 986.51337 983.855356 950.163534 0.001013671
18.98385 988.43146 985.447092 950.182378 0.001011704
18.99265 989.66962 987.008783 950.199088 0.001010438
19.00146 990.94122 988.52538 950.213682 0.001009142
19.01027 992.57196 989.985236 950.226164 0.001007484
19.01908 993.7912 991.382472 950.236551 0.001006248
19.02788 994.70087 992.713311 950.244851 0.001005327
19.03669 994.47351 993.977369 950.251082 0.001005557
19.04550 994.83569 995.173043 950.255255 0.001005191
19.05431 995.65039 996.297947 950.25739 0.001004369
19.06311 996.68463 997.345391 950.257503 0.001003326
19.07192 997.62506 998.305348 950.255615 0.001002381
19.08073 998.91119 999.163236 950.251743 0.00100109
19.08953 999.84656 999.899719 950.245911 0.001000153
19.09834 1001.3298 1000.493815 950.23814 0.000998672
19.10715 1002.7947 1000.923597 950.228456 0.000997213
19.11595 1003.429 1001.169559 950.21688 0.000996583
19.12476 1003.3628 1001.216961 950.203442 0.000996648
19.13357 1002.7723 1001.058525 950.188166 0.000997235
19.14238 1001.5601 1000.694997 950.171085 0.000998442
19.15118 1001.1837 1000.135129 950.152222 0.000998818
19.15999 999.92969 999.39508 950.131615 0.00100007
19.16880 997.14185 998.494476 950.109287 0.001002866
19.17760 994.46667 997.455778 950.085277 0.001005564
19.18641 992.49274 996.302263 950.059614 0.001007564
19.19522 990.50739 995.05667 950.032342 0.001009584
19.20403 988.401 993.740399 950.003482 0.001011735
19.21283 986.16516 992.374865 949.973086 0.001014029
19.22164 984.81195 990.977472 949.941172 0.001015422
19.23045 983.84656 989.564675 949.907801 0.001016419
19.23926 982.91858 988.147941 949.872993 0.001017378
19.24806 981.72711 986.735456 949.836804 0.001018613
19.25687 980.47919 985.330447 949.799258 0.001019909
19.26568 979.88971 983.933523 949.760414 0.001020523
19.27448 979.01196 982.540807 949.720291 0.001021438
19.28329 978.50586 981.148454 949.67896 0.001021966
19.29210 977.83844 979.751296 949.636441 0.001022664
19.30091 976.91742 978.347058 949.592797 0.001023628
19.30971 976.12445 976.93501 949.548054 0.00102446
19.31852 974.88953 975.519229 949.502271 0.001025757
19.32733 973.20813 974.106362 949.455485 0.001027529
19.33613 971.74213 972.706206 949.407756 0.00102908
19.34494 969.99304 971.329835 949.359112 0.001030935
19.35375 968.05786 969.990809 949.30962 0.001032996
19.36256 965.8006 968.701604 949.259305 0.00103541
19.37136 964.34454 967.476415 949.208234 0.001036974
19.38017 963.4024 966.328478 949.156441 0.001037988
19.38898 962.4715 965.271325 949.103994 0.001038992
19.39778 961.62653 964.31752 949.050916 0.001039905
19.40659 961.18793 963.480141 948.997281 0.001040379
19.41540 960.9328 962.770371 948.943108 0.001040655
19.42421 959.22791 962.199793 948.888482 0.001042505
19.43301 958.5246 961.777735 948.83342 0.00104327
19.44182 958.74457 961.5126 948.777998 0.001043031
19.45063 959.20923 961.410684 948.722239 0.001042525
19.45943 959.74298 961.476622 948.666211 0.001041946
19.46824 961.14813 961.712322 948.60995 0.001040422
19.47705 961.81244 962.117118 948.553524 0.001039704
19.48586 961.87433 962.68708 948.496955 0.001039637
19.49466 962.45636 963.416684 948.440319 0.001039008
19.50347 963.22009 964.29564 948.383636 0.001038184
19.51228 964.50824 965.310513 948.326975 0.001036798
19.52109 965.63873 966.444643 948.270369 0.001035584
19.52989 966.75226 967.677138 948.213885 0.001034391
19.53870 968.46747 968.984807 948.157544 0.001032559
19.54751 969.91321 970.340341 948.101418 0.00103102
19.55631 971.76215 971.714261 948.045526 0.001029058
19.56512 974.35297 973.073865 947.989933 0.001026322
19.57393 976.4267 974.385033 947.934671 0.001024142
19.58273 977.40698 975.61154 947.879803 0.001023115
19.59154 977.9632 976.718031 947.825346 0.001022533
19.60035 979.5354 977.669547 947.771369 0.001020892
19.60916 981.323 978.434716 947.717895 0.001019032
19.61796 982.41003 978.986921 947.664964 0.001017905
19.62677 982.29187 979.307107 947.612637 0.001018027
19.63558 982.53979 979.385676 947.560928 0.00101777
19.64438 981.36926 979.223442 947.5099 0.001018984
19.65319 980.51367 978.83156 947.459562 0.001019874
19.66200 979.16949 978.231333 947.409986 0.001021274
19.67081 977.09802 977.451124 947.36118 0.001023439
19.67961 974.7406 976.525107 947.3132 0.001025914
19.68842 973.66718 975.490007 947.26606 0.001027045
19.69723 972.7608 974.38482 947.219815 0.001028002
19.70604 971.22437 973.246347 947.174471 0.001029628
19.71484 969.73993 972.112025 947.13009 0.001031204
19.72365 969.17706 971.015284 947.086677 0.001031803
19.73246 968.43079 969.987426 947.044281 0.001032598
19.74126 968.18073 969.055893 947.002912 0.001032865
19.75007 968.50989 968.245639 946.962611 0.001032514
19.75888 968.27692 967.576605 946.923394 0.001032762
19.76769 967.24591 967.066347 946.885301 0.001033863
19.77649 966.92987 966.728053 946.848336 0.001034201
19.78530 967.47882 966.571622 946.812541 0.001033614
19.79411 967.73383 966.60407 946.77792 0.001033342
19.80291 967.70239 966.829641 946.744506 0.001033376
19.81172 968.25232 967.250021 946.712311 0.001032789
19.82053 968.164 967.865179 946.681363 0.001032883
19.82934 967.83551 968.673619 946.651665 0.001033233
19.83814 967.76581 969.671715 946.623247 0.001033308
19.84695 968.76184 970.856071 946.596107 0.001032245
19.85576 970.22345 972.221123 946.570277 0.00103069
19.86456 971.61346 973.761595 946.545754 0.001029216
19.87337 972.05493 975.47035 946.522561 0.001028748
19.88218 972.60016 977.340074 946.500697 0.001028172
19.89099 973.78021 979.360139 946.48018 0.001026926
19.89979 975.64789 981.520318 946.461008 0.00102496
19.90860 977.82928 983.806309 946.443198 0.001022673
19.91741 979.37103 986.204118 946.426746 0.001021063
19.92621 980.79968 988.696565 946.411664 0.001019576
19.93502 983.0705 991.266788 946.397947 0.001017221
19.94383 986.4231 993.894387 946.385602 0.001013764
19.95264 990.21698 996.55986 946.374627 0.00100988
19.96144 993.25964 999.239657 946.365025 0.001006786
19.97025 996.07465 1001.910479 946.35679 0.001003941
19.97906 999.64948 1004.544547 946.349923 0.001000351
19.98786 1003.5576 1007.11399 946.344416 0.000996455
19.99667 1007.636 1009.587509 946.340268 0.000992422
20.00548 1010.8843 1011.935043 946.337471 0.000989233
20.01429 1013.8116 1014.126995 946.336018 0.000986377
20.02309 1017.1548 1016.13907 946.335902 0.000983135
20.03190 1020.2148 1017.950562 946.337112 0.000980186
20.04071 1023.075 1019.549458 946.33964 0.000977445
20.04951 1025.5713 1020.928847 946.343473 0.000975066
20.05832 1027.62 1022.088627 946.348601 0.000973122
20.06713 1027.8326 1023.032322 946.355007 0.000972921
20.07594 1028.5533 1023.765328 946.362681 0.000972239
20.08474 1028.5549 1024.291512 946.371604 0.000972238
20.09355 1029.3179 1024.614134 946.381765 0.000971517
20.10236 1029.4329 1024.733503 946.39314 0.000971409
20.11117 1029.7928 1024.64779 946.405718 0.000971069
20.11997 1029.8302 1024.354873 946.419473 0.000971034
20.12878 1030.5071 1023.851614 946.434393 0.000970396
20.13759 1030.6415 1023.135438 946.450452 0.000970269
20.14639 1030.3048 1022.20614 946.467626 0.000970587
20.15520 1029.9159 1021.064084 946.485901 0.000970953
20.16401 1029.5526 1019.711508 946.505244 0.000971296
20.17281 1028.0718 1018.151625 946.525639 0.000972695
20.18162 1025.9856 1016.390233 946.547056 0.000974673
20.19043 1024.0564 1014.433398 946.56947 0.000976509
20.19924 1021.5048 1012.292311 946.59285 0.000978948
20.20804 1018.1429 1009.979078 946.617176 0.00098218
20.21685 1014.0639 1007.511844 946.642409 0.000986131
20.22566 1009.6733 1004.910857 946.66853 0.000990419
20.23447 1005.2371 1002.201364 946.695501 0.00099479
20.24327 1001.1099 999.409909 946.723295 0.000998891
20.25208 996.7392 996.565417 946.75187 0.001003271
20.26089 992.47778 993.694975 946.781206 0.001007579
20.26969 988.93713 990.827198 946.811255 0.001011187
20.27850 985.05273 987.985562 946.841998 0.001015174
20.28731 981.88776 985.196503 946.873378 0.001018446
20.29612 979.55341 982.479441 946.905376 0.001020873
20.30492 977.1535 979.854259 946.937938 0.001023381
20.31373 975.04285 977.336795 946.97104 0.001025596
20.32254 973.05634 974.942897 947.004625 0.00102769
20.33134 970.53094 972.683837 947.038671 0.001030364
20.34015 968.61938 970.571398 947.073112 0.001032397
20.34896 966.612 968.61289 947.107924 0.001034541
20.35777 964.93298 966.814829 947.143044 0.001036341
20.36657 964.20953 965.181983 947.178443 0.001037119
20.37538 963.13916 963.71738 947.214061 0.001038272
20.38419 961.50714 962.422029 947.249857 0.001040034
20.39299 960.50732 961.296819 947.285768 0.001041116
20.40180 960.09332 960.340783 947.321758 0.001041565
20.41061 959.89001 959.553151 947.357759 0.001041786
20.41942 959.86469 958.932177 947.393732 0.001041814
20.42822 959.88062 958.476374 947.429608 0.001041796
20.43703 959.27136 958.183899 947.465339 0.001042458
20.44584 958.27136 958.053093 947.500853 0.001043546
20.45464 957.94135 958.082165 947.536104 0.001043905
20.46345 958.04999 958.269377 947.571016 0.001043787
20.47226 958.62567 958.612989 947.605544 0.00104316
20.48107 958.82904 959.11059 947.639598 0.001042939
20.48987 959.26855 959.760044 947.67313 0.001042461
20.49868 960.35364 960.557597 947.706057 0.001041283
20.50749 962.06439 961.499522 947.738322 0.001039431
20.51629 963.61462 962.580058 947.769838 0.001037759
20.52510 964.15509 963.793185 947.800548 0.001037178
20.53391 964.89667 965.125133 947.830354 0.00103638
20.54272 966.07568 966.575545 947.859196 0.001035116
20.55152 967.63177 968.127409 947.886981 0.001033451
20.56033 969.81213 969.767204 947.913638 0.001031128
20.56914 971.05817 971.478102 947.939076 0.001029804
20.57795 972.73938 973.242527 947.963213 0.001028025
20.58675 975.18982 975.039714 947.985955 0.001025441
20.59556 977.56964 976.848841 948.007222 0.001022945
20.60437 980.47668 978.645922 948.026914 0.001019912
20.61317 983.74365 980.407865 948.044947 0.001016525
20.62198 986.61188 982.110222 948.06122 0.00101357
20.63079 988.76312 983.729624 948.075639 0.001011365
20.63959 991.19336 985.242875 948.088103 0.001008885
20.64840 994.16003 986.630715 948.098518 0.001005874
20.65721 996.92615 987.874798 948.106779 0.001003083
20.66602 998.6391 988.96139 948.112788 0.001001363
20.67482 999.93353 989.879543 948.116437 0.001000066
20.68363 1001.315 990.622901 948.117624 0.000998687
20.69244 1002.8771 991.18909 948.116245 0.000997131
20.70124 1003.7498 991.57898 948.112192 0.000996264
20.71005 1004.0409 991.79777 948.10536 0.000995975
20.71886 1003.073 991.853582 948.095641 0.000996936
20.72767 1002.114 991.757124 948.082926 0.00099789
20.73647 1001.3233 991.52172 948.067114 0.000998678
20.74528 997.09137 991.161611 948.04809 0.001002917
20.75409 993.85071 990.691932 948.025757 0.001006187
20.76290 992.36926 990.127389 947.999996 0.001007689
20.77170 990.2486 989.482603 947.970721 0.001009847
20.78051 987.57654 988.770647 947.937812 0.00101258
20.78932 985.98047 988.003802 947.901184 0.001014219
20.79812 983.9989 987.192802 947.860721 0.001016261
20.80693 981.70715 986.347762 947.816341 0.001018634
20.81574 979.65057 985.477655 947.76794 0.001020772
20.82455 978.05896 984.590698 947.715446 0.001022433
20.83335 975.79791 983.693744 947.658749 0.001024802
20.84216 974.50464 982.7939 947.597795 0.001026162
20.85097 973.81342 981.896353 947.532479 0.001026891
20.85977 972.40723 981.002066 947.462751 0.001028376
20.86858 971.18121 980.122525 947.388533 0.001029674
20.87739 970.34528 979.257397 947.30979 0.001030561
20.88620 969.57501 978.40776 947.226437 0.00103138
20.89500 969.23401 977.574754 947.138469 0.001031743
20.90381 968.67273 976.758124 947.045799 0.00103234
20.91262 967.953 975.958052 946.948468 0.001033108
20.92142 967.37994 975.173488 946.846405 0.00103372
20.93023 967.12823 974.404778 946.739652 0.001033989
20.93904 967.0296 973.65206 946.628166 0.001034095
20.94785 966.2981 972.917096 946.512016 0.001034877
20.95665 965.96747 972.201707 946.39117 0.001035232
20.96546 965.09003 971.509255 946.265751 0.001036173
20.97427 964.13293 970.842494 946.135752 0.001037201
20.98307 962.85907 970.20476 946.001305 0.001038574
20.99188 961.72595 969.5982 945.86244 0.001039797
21.00069 962.1886 969.024448 945.719312 0.001039297
21.00950 963.14313 968.484032 945.572012 0.001038267
21.01830 963.19495 967.976391 945.420735 0.001038211
21.02711 962.39471 967.499558 945.265574 0.001039075
21.03592 961.91162 967.051141 945.106782 0.001039597
21.04472 962.61542 966.627543 944.944488 0.001038836
21.05353 962.88177 966.224938 944.778973 0.001038549
21.06234 962.38208 965.839399 944.610441 0.001039088
21.07115 962.41681 965.46752 944.439221 0.001039051
21.07995 963.5567 965.105514 944.265524 0.001037822
21.08876 963.6004 964.752451 944.089741 0.001037775
21.09757 964.21747 964.40638 943.912112 0.00103711
21.10637 964.74988 964.067285 943.733117 0.001036538
21.11518 965.66821 963.735523 943.553043 0.001035552
21.12399 965.21301 963.412679 943.372378 0.001036041
21.13280 964.61981 963.10041 943.191474 0.001036678
21.14160 963.95331 962.800883 943.010874 0.001037395
21.15041 964.0744 962.516063 942.830953 0.001037264
21.15922 964.06915 962.248393 942.65234 0.00103727
21.16803 963.99603 961.999369 942.475461 0.001037349
21.17683 963.73981 961.77106 942.300945 0.001037624
21.18564 963.71124 961.564419 942.129279 0.001037655
21.19445 964.17401 961.379606 941.961113 0.001037157
21.20325 964.15295 961.216553 941.797011 0.00103718
21.21206 964.24164 961.073491 941.637651 0.001037084
21.22087 964.56976 960.947744 941.483629 0.001036732
21.22968 964.63403 960.835171 941.335554 0.001036663
21.23848 964.81372 960.730486 941.194132 0.00103647
21.24729 965.18402 960.627447 941.059984 0.001036072
21.25610 966.35486 960.51853 940.933815 0.001034817
21.26490 966.6875 960.395768 940.816217 0.00103446
21.27371 966.84351 960.250966 940.707886 0.001034294
21.28252 966.9928 960.075952 940.609403 0.001034134
21.29133 966.57684 959.863698 940.521408 0.001034579
21.30013 965.88495 959.607733 940.444468 0.00103532
21.30894 965.35413 959.303736 940.37915 0.001035889
21.31775 964.76624 958.948904 940.325932 0.001036521
21.32655 963.49548 958.543178 940.285285 0.001037888
21.33536 961.71179 958.088093 940.257587 0.001039813
21.34417 960.44299 957.587728 940.243168 0.001041186
21.35298 958.34698 957.047529 940.24226 0.001043463
21.36178 956.32593 956.474596 940.254998 0.001045669
21.37059 955.21301 955.876405 940.281423 0.001046887
21.37940 954.4613 955.261512 940.321423 0.001047711
21.38820 953.81464 954.637751 940.374784 0.001048422
21.39701 952.7558 954.013201 940.44108 0.001049587
21.40582 951.2677 953.394972 940.519763 0.001051229
21.41463 950.58203 952.789402 940.61003 0.001051987
21.42343 949.70807 952.201661 940.710928 0.001052955
21.43224 949.44855 951.636299 940.821183 0.001053243
21.44105 949.37982 951.096152 940.939308 0.001053319
21.44985 949.02527 950.583327 941.063459 0.001053713
21.45866 948.58234 950.098209 941.191549 0.001054205
21.46747 947.75684 949.640555 941.321028 0.001055123
21.47628 946.90106 949.20849 941.449063 0.001056077
21.48508 946.91199 948.799662 941.572286 0.001056064
21.49389 946.90826 948.410208 941.686932 0.001056069
21.50270 947.01849 948.035945 941.788658 0.001055946
21.51150 946.94177 947.671467 941.872645 0.001056031
21.52031 946.6543 947.310765 941.933392 0.001056352
21.52912 945.98218 946.94684 941.964796 0.001057102
21.53793 945.82489 946.572209 941.960003 0
21.54673 945.71307 0 0 0
21.55554 945.27386 0 0 0
21.56435 945.07465 0 0 0
21.57315 945.05841 0 0 0
21.58196 945.16425 0 0 0
21.59077 945.07336 0 0 0
21.59958 944.40179 0 0 0
21.60838 943.91602 0 0 0
21.61719 943.68463 0 0 0
21.62600 943.11322 0 0 0
21.63481 943.01208 0 0 0
21.64361 942.84967 0 0 0
21.65242 943.12366 0 0 0
21.66123 943.35272 0 0 0
21.67003 943.65106 0 0 0
21.67884 943.00153 0 0 0
21.68765 943.01172 0 0 0
21.69646 943.65552 0 0 0
21.70526 944.30432 0 0 0
21.71407 944.23102 0 0 0
21.72288 944.23083 0 0 0
21.73168 943.81995 0 0 0
21.74049 943.1925 0 0 0
21.74930 943.51971 0 0 0
21.75810 943.90509 0 0 0
21.76691 943.63086 0 0 0
21.77572 943.59998 0 0 0
21.78453 944.5448 0 0 0
21.79333 945.27814 0 0 0
21.80214 945.16748 0 0 0
21.81095 944.76642 0 0 0
21.81976 944.56512 0 0 0
21.82856 945.1955 0 0 0
21.83737 944.88422 0 0 0
21.84618 944.2511 0 0 0
21.85498 944.11084 0 0 0
21.86379 944.3327 0 0 0
21.87260 944.86682 0 0 0
21.88141 944.68054 0 0 0
21.89021 944.13599 0 0 0
21.89902 944.38855 0 0 0
21.90783 944.52448 0 0 0
21.91663 944.95508 0 0 0
21.92544 945.16272 0 0 0
21.93425 945.66333 0 0 0
21.94306 946.29907 0 0 0
21.95186 946.43298 0 0 0
21.96067 946.98151 0 0 0
21.96948 947.78967 0 0 0
21.97828 948.91443 0 0 0
21.98709 949.49695 0 0 0
21.99590 949.80121 0 0 0
22.00471 951.24609 0 0 0
22.01351 953.37 0 0 0
22.02232 954.7229 0 0 0
22.03113 956.64966 0 0 0
22.03993 958.2854 0 0 0
22.04874 959.09027 0 0 0
22.05755 960.50818 0 0 0
22.06636 963.0647 0 0 0
22.07516 964.92468 0 0 0
22.08397 967.58105 0 0 0
22.09278 970.15424 0 0 0
22.10159 971.8916 0 0 0
22.11039 973.16467 0 0 0
22.11920 975.49445 0 0 0
22.12801 978.99176 0 0 0
22.13681 981.909 0 0 0
22.14562 983.88391 0 0 0
22.15443 986.14752 0 0 0
22.16324 988.88263 0 0 0
22.17204 991.43909 0 0 0
22.18085 993.86572 0 0 0
22.18966 995.9953 0 0 0
22.19846 997.93085 0 0 0
22.20727 999.20703 0 0 0
22.21608 999.52008 0 0 0
22.22489 999.44 0 0 0
22.23369 997.29279 0 0 0
22.24250 995.05927 0 0 0
22.25131 993.19745 0 0 0
22.26011 991.3631 0 0 0
22.26892 989.25372 0 0 0
22.27773 987.09406 0 0 0
22.28654 984.62665 0 0 0
22.29534 983.01788 0 0 0
22.30415 981.17786 0 0 0
22.31296 979.55145 0 0 0
22.32176 977.60663 0 0 0
22.33057 974.60156 0 0 0
22.33938 971.80194 0 0 0
22.34819 969.62292 0 0 0
22.35699 967.6275 0 0 0
22.36580 965.22852 0 0 0
22.37461 962.57513 0 0 0
22.38341 959.9491 0 0 0
22.39222 958.81488 0 0 0
22.40103 958.13116 0 0 0
22.40984 956.27802 0 0 0
22.41864 954.30072 0 0 0
22.42745 953.59534 0 0 0
22.43626 953.9856 0 0 0
22.44506 953.41907 0 0 0
22.45387 952.61523 0 0 0
22.46268 951.32269 0 0 0
22.47149 949.73364 0 0 0
22.48029 949.62354 0 0 0
22.48910 949.10016 0 0 0
22.49791 947.96948 0 0 0
22.50671 947.9845 0 0 0
22.51552 948.06329 0 0 0
22.52433 947.49261 0 0 0
22.53314 947.2879 0 0 0
22.54194 947.61829 0 0 0
22.55075 948.84015 0 0 0
22.55956 948.84082 0 0 0
22.56837 947.58386 0 0 0
22.57717 946.8443 0 0 0
22.58598 946.72797 0 0 0
22.59479 947.04474 0 0 0
22.60359 947.43231 0 0 0
22.61240 946.66492 0 0 0
22.62121 946.38348 0 0 0
22.63001 946.76691 0 0 0
22.63882 946.31244 0 0 0
22.64763 945.94525 0 0 0
22.65644 946.68256 0 0 0
22.66524 946.63818 0 0 0
22.67405 946.7832 0 0 0
22.68286 947.09906 0 0 0
22.69167 947.46686 0 0 0
22.70047 947.47461 0 0 0
22.70928 948.23022 0 0 0
22.71809 949.16022 0 0 0
22.72689 949.19312 0 0 0
22.73570 949.35785 0 0 0
22.74451 949.89844 0 0 0
22.75332 950.10962 0 0 0
22.76212 950.91437 0 0 0
22.77093 951.81256 0 0 0
22.77974 951.5766 0 0 0
22.78854 951.84314 0 0 0
22.79735 952.61884 0 0 0
22.80616 953.3407 0 0 0
22.81497 953.65167 0 0 0
22.82377 954.45831 0 0 0
22.83258 955.07928 0 0 0
22.84139 955.70074 0 0 0
22.85019 955.73779 0 0 0
22.85900 956.43378 0 0 0
22.86781 956.87335 0 0 0
22.87662 958.03784 0 0 0
22.88542 959.46844 0 0 0
22.89423 960.70984 0 0 0
22.90304 961.31262 0 0 0
22.91184 962.6496 0 0 0
22.92065 963.40948 0 0 0
22.92946 963.85315 0 0 0
22.93827 964.54572 0 0 0
22.94707 965.0072 0 0 0
22.95588 964.89154 0 0 0
22.96469 964.396 0 0 0
22.97349 964.41302 0 0 0
22.98230 964.33472 0 0 0
22.99111 963.43781 0 0 0
22.99992 961.9317 0 0 0
23.00872 961.95386 0 0 0
23.01753 962.42133 0 0 0
23.02634 962.30243 0 0 0
23.03514 962.052 0 0 0
23.04395 961.96338 0 0 0
23.05276 961.56396 0 0 0
23.06157 961.31006 0 0 0
23.07037 961.22137 0 0 0
23.07918 961.82837 0 0 0
23.08799 961.31561 0 0 0
23.09679 959.77631 0 0 0
23.10560 958.64948 0 0 0
23.11441 958.68298 0 0 0
23.12322 957.45007 0 0 0
23.13202 955.59784 0 0 0
23.14083 953.89703 0 0 0
23.14964 953.17554 0 0 0
23.15845 952.8418 0 0 0
23.16725 951.99622 0 0 0
23.17606 951.36353 0 0 0
23.18487 950.61621 0 0 0
23.19367 950.28363 0 0 0
23.20248 950.36371 0 0 0
23.21129 950.177 0 0 0
23.22010 949.74408 0 0 0
23.22890 949.87506 0 0 0
23.23771 950.54828 0 0 0
23.24652 949.88324 0 0 0
23.25532 948.83148 0 0 0
23.26413 948.79315 0 0 0
23.27294 948.82703 0 0 0
23.28175 949.45685 0 0 0
23.29055 949.86798 0 0 0
23.29936 948.78937 0 0 0
23.30817 947.73285 0 0 0
23.31697 947.04205 0 0 0
23.32578 947.01593 0 0 0
23.33459 947.87732 0 0 0
23.34340 948.63593 0 0 0
23.35220 949.01788 0 0 0
23.36101 949.15637 0 0 0
23.36982 948.49243 0 0 0
23.37862 948.92493 0 0 0
23.38743 949.48126 0 0 0
23.39624 949.16101 0 0 0
23.40505 949.6123 0 0 0
23.41385 951.06891 0 0 0
23.42266 952.27777 0 0 0
23.43147 952.82672 0 0 0
23.44027 953.26489 0 0 0
23.44908 953.44757 0 0 0
23.45789 953.91388 0 0 0
23.46670 954.75348 0 0 0
23.47550 954.72424 0 0 0
23.48431 955.0213 0 0 0
23.49312 955.94702 0 0 0
23.50192 956.01563 0 0 0
23.51073 955.60968 0 0 0
23.51954 955.96924 0 0 0
23.52835 957.56683 0 0 0
23.53715 957.77264 0 0 0
23.54596 957.70557 0 0 0
23.55477 958.21338 0 0 0
23.56357 958.33618 0 0 0
23.57238 958.67108 0 0 0
23.58119 959.23828 0 0 0
23.59000 960.02997 0 0 0
23.59880 960.8623 0 0 0
23.60761 960.81287 0 0 0
23.61642 961.42883 0 0 0
23.62523 961.94873 0 0 0
23.63403 961.2959 0 0 0
23.64284 960.92163 0 0 0
23.65165 961.24396 0 0 0
23.66045 961.45807 0 0 0
23.66926 961.49982 0 0 0
23.67807 962.67328 0 0 0
23.68687 964.55774 0 0 0
23.69568 965.64301 0 0 0
23.70449 966.46008 0 0 0
23.71330 967.62805 0 0 0
23.72210 968.60535 0 0 0
23.73091 970.63806 0 0 0
23.73972 971.98761 0 0 0
23.74853 972.66101 0 0 0
23.75733 974.00726 0 0 0
23.76614 975.0061 0 0 0
23.77495 975.70062 0 0 0
23.78375 976.95068 0 0 0
23.79256 977.8894 0 0 0
23.80137 978.80719 0 0 0
23.81018 980.32648 0 0 0
23.81898 981.61023 0 0 0
23.82779 982.51746 0 0 0
23.83660 983.14392 0 0 0
23.84540 984.49945 0 0 0
23.85421 986.23718 0 0 0
23.86302 987.97986 0 0 0
23.87183 989.51508 0 0 0
23.88063 992.34137 0 0 0
23.88944 994.48138 0 0 0
23.89825 995.99902 0 0 0
23.90705 996.54584 0 0 0
23.91586 996.24121 0 0 0
23.92467 995.53271 0 0 0
23.93348 994.93402 0 0 0
23.94228 993.20117 0 0 0
23.95109 990.52356 0 0 0
23.95990 987.93811 0 0 0
23.96870 984.28528 0 0 0
23.97751 980.66199 0 0 0
23.98632 978.25665 0 0 0
23.99513 976.03442 0 0 0
24.00393 974.03339 0 0 0
24.01274 971.95227 0 0 0
24.02155 970.12366 0 0 0
24.03035 968.49103 0 0 0
24.03916 965.74689 0 0 0
24.04797 964.17432 0 0 0
24.05678 963.211 0 0 0
24.06558 962.14679 0 0 0
24.07439 961.76135 0 0 0
24.08320 960.69684 0 0 0
24.09201 958.47852 0 0 0
24.10081 957.7168 0 0 0
24.10962 958.18616 0 0 0
24.11842 957.98285 0 0 0
24.12723 957.66711 0 0 0
24.13604 957.75824 0 0 0
24.14485 958.33356 0 0 0
24.15365 958.44708 0 0 0
24.16246 959.01373 0 0 0
24.17127 960.10736 0 0 0
24.18008 961.04108 0 0 0
24.18888 961.69025 0 0 0
24.19769 962.26764 0 0 0
24.20650 961.92181 0 0 0
24.21531 960.19525 0 0 0
24.22411 959.7854 0 0 0
24.23292 959.62201 0 0 0
24.24173 959.37878 0 0 0
24.25053 959.27148 0 0 0
24.25934 960.51263 0 0 0
24.26815 961.93677 0 0 0
24.27696 963.17902 0 0 0
24.28576 963.80957 0 0 0
24.29457 964.3996 0 0 0
24.30338 964.9162 0 0 0
24.31218 965.39032 0 0 0
24.32099 965.77655 0 0 0
24.32980 964.90466 0 0 0
24.33861 963.98676 0 0 0
24.34741 963.37854 0 0 0
24.35622 962.18842 0 0 0
24.36503 960.50189 0 0 0
24.37383 959.245 0 0 0
24.38264 957.92194 0 0 0
24.39145 957.1037 0 0 0
24.40026 956.04449 0 0 0
24.40906 954.58203 0 0 0
24.41787 952.93353 0 0 0
24.42668 951.04547 0 0 0
24.43548 949.75153 0 0 0
24.44429 948.42059 0 0 0
24.45310 946.47192 0 0 0
24.46191 944.60577 0 0 0
24.47071 942.66406 0 0 0
24.47952 941.23785 0 0 0
24.48833 939.5824 0 0 0
24.49713 938.49536 0 0 0
24.50594 937.91895 0 0 0
24.51475 937.02515 0 0 0
24.52356 936.75452 0 0 0
24.53236 936.31183 0 0 0
24.54117 936.01764 0 0 0
24.54998 935.48743 0 0 0
24.55878 935.22815 0 0 0
24.56759 934.73993 0 0 0
24.57640 934.27142 0 0 0
24.58520 934.59631 0 0 0
24.59401 934.15289 0 0 0
24.60282 933.81213 0 0 0
24.61163 934.36969 0 0 0
24.62043 934.88531 0 0 0
24.62924 934.9704 0 0 0
24.63805 935.42218 0 0 0
24.64686 936.81451 0 0 0
24.65566 938.42194 0 0 0
24.66447 939.01086 0 0 0
24.67328 938.64838 0 0 0
24.68209 938.99127 0 0 0
24.69089 939.66327 0 0 0
24.69970 939.91296 0 0 0
24.70851 941.1582 0 0 0
24.71731 941.65057 0 0 0
24.72612 941.29688 0 0 0
24.73493 940.70648 0 0 0
24.74373 939.62909 0 0 0
24.75254 939.39447 0 0 0
24.76135 940.06439 0 0 0
24.77016 939.70667 0 0 0
24.77896 939.04822 0 0 0
24.78777 939.25336 0 0 0
24.79658 939.1944 0 0 0
24.80539 939.73969 0 0 0
24.81419 940.04169 0 0 0
24.82300 939.65686 0 0 0
24.83181 938.76843 0 0 0
24.84061 938.23608 0 0 0
24.84942 938.93988 0 0 0
24.85823 939.43109 0 0 0
24.86704 938.88605 0 0 0
24.87584 939.05035 0 0 0
24.88465 938.39099 0 0 0
24.89346 937.0658 0 0 0
24.90226 936.27606 0 0 0
24.91107 935.68439 0 0 0
24.91988 935.06171 0 0 0
24.92869 933.81836 0 0 0
24.93749 933.02454 0 0 0
24.94630 932.40314 0 0 0
24.95511 931.19135 0 0 0
24.96392 930.52527 0 0 0
24.97272 929.88544 0 0 0
24.98153 928.68787 0 0 0
24.99034 928.96759 0 0 0
24.99914 929.64728 0 0 0
25.00795 929.60638 0 0 0
25.01676 929.67389 0 0 0
25.02556 929.47803 0 0 0
25.03437 930.15247 0 0 0
25.04318 930.03754 0 0 0
25.05198 929.17847 0 0 0
25.06079 929.63165 0 0 0
25.06960 930.5993 0 0 0
25.07841 931.78009 0 0 0
25.08721 932.7226 0 0 0
25.09602 932.62952 0 0 0
25.10483 932.78436 0 0 0
25.11364 933.67639 0 0 0
25.12244 934.62964 0 0 0
25.13125 934.88708 0 0 0
25.14006 934.76294 0 0 0
25.14887 935.23505 0 0 0
25.15767 935.84686 0 0 0
25.16648 936.75427 0 0 0
25.17528 937.8222 0 0 0
25.18409 938.46326 0 0 0
25.19290 938.88116 0 0 0
25.20171 939.66742 0 0 0
25.21051 940.72351 0 0 0
25.21932 941.52704 0 0 0
25.22813 942.10553 0 0 0
25.23694 942.09607 0 0 0
25.24574 942.70575 0 0 0
25.25455 942.61896 0 0 0
25.26336 942.49664 0 0 0
25.27217 942.88727 0 0 0
25.28097 943.08923 0 0 0
25.28978 942.39813 0 0 0
25.29859 941.48077 0 0 0
25.30739 941.53809 0 0 0
25.31620 940.56012 0 0 0
25.32501 939.36542 0 0 0
25.33382 939.14734 0 0 0
25.34262 939.25116 0 0 0
25.35143 938.35266 0 0 0
25.36024 937.51483 0 0 0
25.36904 937.05402 0 0 0
25.37785 936.32318 0 0 0
25.38666 935.90143 0 0 0
25.39547 934.97272 0 0 0
25.40427 933.47058 0 0 0
25.41308 932.54083 0 0 0
25.42189 932.66913 0 0 0
25.43070 931.55048 0 0 0
25.43950 929.46124 0 0 0
25.44831 927.35754 0 0 0
25.45712 925.8833 0 0 0
25.46592 925.18677 0 0 0
25.47473 924.99323 0 0 0
25.48354 924.31366 0 0 0
25.49234 923.3382 0 0 0
25.50115 922.57324 0 0 0
25.50996 921.88635 0 0 0
25.51876 922.1897 0 0 0
25.52757 922.13031 0 0 0
25.53638 922.31677 0 0 0
25.54519 922.58246 0 0 0
25.55399 922.36902 0 0 0
25.56280 922.29987 0 0 0
25.57161 922.9765 0 0 0
25.58042 923.50195 0 0 0
25.58922 923.70441 0 0 0
25.59803 923.08813 0 0 0
25.60684 922.95728 0 0 0
25.61564 923.77625 0 0 0
25.62445 924.12701 0 0 0
25.63326 925.25476 0 0 0
25.64206 925.54346 0 0 0
25.65087 924.92316 0 0 0
25.65968 925.12671 0 0 0
25.66849 926.23413 0 0 0
25.67729 927.73651 0 0 0
25.68610 927.75244 0 0 0
25.69491 926.68384 0 0 0
25.70372 926.92096 0 0 0
25.71252 927.69562 0 0 0
25.72133 927.23907 0 0 0
25.73014 926.47076 0 0 0
25.73895 925.50952 0 0 0
25.74775 926.10913 0 0 0
25.75656 927.05481 0 0 0
25.76537 926.72168 0 0 0
25.77417 926.75818 0 0 0
25.78298 926.80804 0 0 0
25.79179 926.96875 0 0 0
25.80059 927.12762 0 0 0
25.80940 926.99036 0 0 0
25.81821 926.76141 0 0 0
25.82702 926.08423 0 0 0
25.83582 926.31812 0 0 0
25.84463 927.54504 0 0 0
25.85344 927.98102 0 0 0
25.86225 927.79694 0 0 0
25.87105 928.34369 0 0 0
25.87986 929.22699 0 0 0
25.88867 929.39319 0 0 0
25.89747 929.07648 0 0 0
25.90628 929.32904 0 0 0
25.91509 930.48444 0 0 0
25.92390 931.8692 0 0 0
25.93270 932.74921 0 0 0
25.94151 933.38043 0 0 0
25.95032 934.36285 0 0 0
25.95912 935.25238 0 0 0
25.96793 935.45526 0 0 0
25.97674 935.7691 0 0 0
25.98555 936.79474 0 0 0
25.99435 937.66235 0 0 0
26.00316 938.07025 0 0 0
26.01197 938.22583 0 0 0
26.02078 937.97797 0 0 0
26.02958 937.73944 0 0 0
26.03839 937.5871 0 0 0
26.04719 936.86371 0 0 0
26.05600 936.0918 0 0 0
26.06481 935.01898 0 0 0
26.07362 933.23621 0 0 0
26.08242 933.07117 0 0 0
26.09123 932.84192 0 0 0
26.10004 931.20892 0 0 0
26.10884 929.83777 0 0 0
26.11765 929.42834 0 0 0
26.12646 929.35077 0 0 0
26.13527 928.46674 0 0 0
26.14407 928.00378 0 0 0
26.15288 928.30609 0 0 0
26.16169 927.7038 0 0 0
26.17050 926.93274 0 0 0
26.17930 927.62305 0 0 0
26.18811 928.34827 0 0 0
26.19692 928.07916 0 0 0
26.20573 927.24774 0 0 0
26.21453 927.14703 0 0 0
26.22334 929.00031 0 0 0
26.23214 930.69983 0 0 0
26.24095 931.22351 0 0 0
26.24976 931.6651 0 0 0
26.25857 932.10858 0 0 0
26.26737 932.98615 0 0 0
26.27618 933.82874 0 0 0
26.28499 934.00146 0 0 0
26.29380 934.26862 0 0 0
26.30260 934.72705 0 0 0
26.31141 934.4787 0 0 0
26.32022 935.38147 0 0 0
26.32903 935.76221 0 0 0
26.33783 933.89191 0 0 0
26.34664 933.2782 0 0 0
26.35545 933.52722 0 0 0
26.36425 932.62482 0 0 0
26.37306 931.63257 0 0 0
26.38187 931.59253 0 0 0
26.39068 930.83765 0 0 0
26.39948 929.92499 0 0 0
26.40829 929.43182 0 0 0
26.41710 928.60944 0 0 0
26.42590 927.30426 0 0 0
26.43471 925.57135 0 0 0
26.44352 924.66095 0 0 0
26.45233 924.24719 0 0 0
26.46113 924.81384 0 0 0
26.46994 924.77423 0 0 0
26.47875 924.32507 0 0 0
26.48756 925.08856 0 0 0
26.49636 925.53534 0 0 0
26.50517 924.62836 0 0 0
26.51397 924.11511 0 0 0
26.52278 924.32281 0 0 0
26.53159 923.5791 0 0 0
26.54040 923.25739 0 0 0
26.54920 923.03772 0 0 0
26.55801 922.95728 0 0 0
26.56682 922.78949 0 0 0
26.57563 922.61597 0 0 0
26.58443 922.31622 0 0 0
26.59324 921.73651 0 0 0
26.60205 921.63123 0 0 0
26.61085 921.65356 0 0 0
26.61966 921.86804 0 0 0
26.62847 921.67004 0 0 0
26.63728 921.73212 0 0 0
26.64608 920.66943 0 0 0
26.65489 919.61157 0 0 0
26.66370 918.41937 0 0 0
26.67250 916.42023 0 0 0
26.68131 915.56982 0 0 0
26.69012 914.99683 0 0 0
26.69892 913.58246 0 0 0
26.70773 911.34729 0 0 0
26.71654 909.77362 0 0 0
26.72535 908.05878 0 0 0
26.73415 906.17749 0 0 0
26.74296 906.46527 0 0 0
26.75177 907.18481 0 0 0
26.76058 906.31714 0 0 0
26.76938 904.80701 0 0 0
26.77819 904.19226 0 0 0
26.78700 904.54999 0 0 0
26.79581 903.89569 0 0 0
26.80461 903.09583 0 0 0
26.81342 902.87177 0 0 0
26.82223 903.17328 0 0 0
26.83103 903.84723 0 0 0
26.83984 904.88928 0 0 0
26.84865 904.58435 0 0 0
26.85745 903.74414 0 0 0
26.86626 904.08972 0 0 0
26.87507 904.09674 0 0 0
26.88388 904.64032 0 0 0
26.89268 905.50677 0 0 0
26.90149 905.64215 0 0 0
26.91030 905.60742 0 0 0
26.91911 906.51508 0 0 0
26.92791 907.12744 0 0 0
26.93672 907.13525 0 0 0
26.94553 907.41357 0 0 0
26.95433 908.61658 0 0 0
26.96314 909.44684 0 0 0
26.97195 909.51459 0 0 0
26.98075 909.41797 0 0 0
26.98956 908.56085 0 0 0
26.99837 908.51276 0 0 0
27.00718 909.40625 0 0 0
27.01598 910.28961 0 0 0
27.02479 910.81921 0 0 0
27.03360 911.33978 0 0 0
27.04241 911.30566 0 0 0
27.05121 911.37469 0 0 0
27.06002 911.30988 0 0 0
27.06883 911.35883 0 0 0
27.07764 911.52563 0 0 0
27.08644 911.0976 0 0 0
27.09525 910.80133 0 0 0
27.10405 910.47601 0 0 0
27.11286 909.95685 0 0 0
27.12167 910.22443 0 0 0
27.13048 911.56 0 0 0
27.13928 912.39105 0 0 0
27.14809 911.88202 0 0 0
27.15690 910.89673 0 0 0
27.16570 910.08722 0 0 0
27.17451 909.79022 0 0 0
27.18332 910.98145 0 0 0
27.19213 910.56561 0 0 0
27.20093 908.5202 0 0 0
27.20974 908.28339 0 0 0
27.21855 909.22382 0 0 0
27.22736 909.19409 0 0 0
27.23616 906.86517 0 0 0
27.24497 904.98383 0 0 0
27.25378 904.99725 0 0 0
27.26259 904.40643 0 0 0
27.27139 903.21985 0 0 0
27.28020 903.29816 0 0 0
27.28900 903.05579 0 0 0
27.29781 901.92035 0 0 0
27.30662 901.25787 0 0 0
27.31543 900.729 0 0 0
27.32423 900.43689 0 0 0
27.33304 899.80432 0 0 0
27.34185 898.73407 0 0 0
27.35066 898.6723 0 0 0
27.35946 899.10504 0 0 0
27.36827 898.8396 0 0 0
27.37708 898.03845 0 0 0
27.38588 897.30273 0 0 0
27.39469 897.23914 0 0 0
27.40350 898.00043 0 0 0
27.41231 898.47717 0 0 0
27.42111 897.29236 0 0 0
27.42992 896.94928 0 0 0
27.43873 897.51886 0 0 0
27.44753 897.0993 0 0 0
27.45634 896.17847 0 0 0
27.46515 896.14734 0 0 0
27.47396 895.29315 0 0 0
27.48276 893.9809 0 0 0
27.49157 893.93457 0 0 0
27.50038 894.44348 0 0 0
27.50919 894.12152 0 0 0
27.51799 893.15692 0 0 0
27.52680 894.52808 0 0 0
27.53561 895.6532 0 0 0
27.54442 894.49084 0 0 0
27.55322 895.02325 0 0 0
27.56203 895.04706 0 0 0
27.57083 893.50244 0 0 0
27.57964 894.40283 0 0 0
27.58845 895.98883 0 0 0
27.59726 896.5097 0 0 0
27.60606 896.45068 0 0 0
27.61487 896.35791 0 0 0
27.62368 896.12073 0 0 0
27.63249 895.85382 0 0 0
27.64129 895.93365 0 0 0
27.65010 895.95917 0 0 0
27.65891 895.90649 0 0 0
27.66771 895.96606 0 0 0
27.67652 896.73529 0 0 0
27.68533 897.27625 0 0 0
27.69414 897.06085 0 0 0
27.70294 897.52081 0 0 0
27.71175 898.88605 0 0 0
27.72056 899.96832 0 0 0
27.72936 899.5307 0 0 0
27.73817 898.79437 0 0 0
27.74698 898.53986 0 0 0
27.75578 897.80304 0 0 0
27.76459 898.13965 0 0 0
27.77340 899.4826 0 0 0
27.78221 901.46106 0 0 0
27.79101 902.24426 0 0 0
27.79982 901.28394 0 0 0
27.80863 900.76953 0 0 0
27.81744 900.36969 0 0 0
27.82624 899.7959 0 0 0
27.83505 900.62195 0 0 0
27.84386 902.46204 0 0 0
27.85266 903.00153 0 0 0
27.86147 903.48486 0 0 0
27.87028 902.67126 0 0 0
27.87909 901.24567 0 0 0
27.88789 902.4082 0 0 0
27.89670 902.87183 0 0 0
27.90551 903.54364 0 0 0
27.91431 904.76843 0 0 0
27.92312 905.20251 0 0 0
27.93193 904.16364 0 0 0
27.94074 901.89478 0 0 0
27.94954 901.19025 0 0 0
27.95835 901.75922 0 0 0
27.96716 902.67151 0 0 0
27.97596 903.26013 0 0 0
27.98477 902.81604 0 0 0
27.99358 901.60156 0 0 0
28.00239 900.86145 0 0 0
28.01119 901.79437 0 0 0
28.02000 902.42773 0 0 0
28.02881 901.39185 0 0 0
28.03761 900.41107 0 0 0
28.04642 899.29443 0 0 0
28.05523 898.93866 0 0 0
28.06404 898.72955 0 0 0
28.07284 899.25262 0 0 0
28.08165 901.05719 0 0 0
28.09046 902.32074 0 0 0
28.09927 902.8717 0 0 0
28.10807 902.59161 0 0 0
28.11688 901.87378 0 0 0
28.12569 900.98444 0 0 0
28.13450 900.1889 0 0 0
28.14330 900.20074 0 0 0
28.15211 900.71497 0 0 0
28.16091 902.16791 0 0 0
28.16972 903.32501 0 0 0
28.17853 904.41931 0 0 0
28.18734 903.9743 0 0 0
28.19614 903.54205 0 0 0
28.20495 905.14142 0 0 0
28.21376 906.18463 0 0 0
28.22256 906.52747 0 0 0
28.23137 905.85687 0 0 0
28.24018 905.71967 0 0 0
28.24899 906.00885 0 0 0
28.25779 905.93622 0 0 0
28.26660 905.43274 0 0 0
28.27541 904.43109 0 0 0
28.28422 904.06366 0 0 0
28.29302 905.27283 0 0 0
28.30183 907.18451 0 0 0
28.31064 907.73267 0 0 0
28.31945 906.92926 0 0 0
28.32825 906.71667 0 0 0
28.33706 906.94647 0 0 0
28.34586 904.96729 0 0 0
28.35467 886.79712 0 0 0
28.36348 878.24652 0 0 0
28.37229 887.97516 0 0 0
28.38109 892.44165 0 0 0
28.38990 894.28436 0 0 0
28.39871 894.14777 0 0 0
28.40752 894.70129 0 0 0
28.41632 895.33868 0 0 0
28.42513 895.03552 0 0 0
28.43394 894.86218 0 0 0
28.44274 895.09937 0 0 0
28.45155 895.45197 0 0 0
28.46036 894.23792 0 0 0
28.46917 891.88904 0 0 0
28.47797 891.2489 0 0 0
28.48678 892.69629 0 0 0
28.49559 893.0965 0 0 0
28.50439 892.0672 0 0 0
28.51320 891.44513 0 0 0
28.52201 891.48962 0 0 0
28.53082 891.95612 0 0 0
28.53962 892.09149 0 0 0
28.54843 891.67877 0 0 0
28.55724 891.7356 0 0 0
28.56605 892.02502 0 0 0
28.57485 892.73468 0 0 0
28.58366 893.0799 0 0 0
28.59247 893.31549 0 0 0
28.60127 893.95068 0 0 0
28.61008 893.40131 0 0 0
28.61889 893.7063 0 0 0
28.62769 894.76666 0 0 0
28.63650 894.32806 0 0 0
28.64531 894.68488 0 0 0
28.65412 893.54999 0 0 0
28.66292 892.99054 0 0 0
28.67173 893.80145 0 0 0
28.68054 892.99115 0 0 0
28.68935 893.82593 0 0 0
28.69815 894.41095 0 0 0
28.70696 894.56757 0 0 0
28.71577 894.62689 0 0 0
28.72458 894.95258 0 0 0
28.73338 896.14142 0 0 0
28.74219 896.98175 0 0 0
28.75100 898.20764 0 0 0
28.75980 897.12134 0 0 0
28.76861 896.61664 0 0 0
28.77742 897.60266 0 0 0
28.78622 897.56604 0 0 0
28.79503 898.45581 0 0 0
28.80384 899.57111 0 0 0
28.81264 899.92651 0 0 0
28.82145 900.68695 0 0 0
28.83026 901.86298 0 0 0
28.83907 902.51416 0 0 0
28.84787 904.09827 0 0 0
28.85668 905.64587 0 0 0
28.86549 906.92102 0 0 0
28.87430 907.72272 0 0 0
28.88310 907.82538 0 0 0
28.89191 906.85638 0 0 0
28.90072 906.07849 0 0 0
28.90952 906.53827 0 0 0
28.91833 907.99628 0 0 0
28.92714 908.44836 0 0 0
28.93595 907.95172 0 0 0
28.94475 908.18042 0 0 0
28.95356 906.84784 0 0 0
28.96237 905.33472 0 0 0
28.97117 904.466 0 0 0
28.97998 904.41455 0 0 0
28.98879 904.00482 0 0 0
28.99760 902.68457 0 0 0
29.00640 902.84338 0 0 0
29.01521 903.24976 0 0 0
29.02402 902.67352 0 0 0
29.03282 902.39209 0 0 0
29.04163 901.8717 0 0 0
29.05044 901.43445 0 0 0
29.05925 900.50281 0 0 0
29.06805 899.46808 0 0 0
29.07686 898.76642 0 0 0
29.08567 897.78827 0 0 0
29.09447 896.95416 0 0 0
29.10328 897.06555 0 0 0
29.11209 896.44543 0 0 0
29.12090 895.69696 0 0 0
29.12970 895.41858 0 0 0
29.13851 894.08606 0 0 0
29.14732 892.97339 0 0 0
29.15613 891.30505 0 0 0
29.16493 890.9928 0 0 0
29.17374 890.70569 0 0 0
29.18255 890.2713 0 0 0
29.19136 889.68964 0 0 0
29.20016 888.87506 0 0 0
29.20897 889.49811 0 0 0
29.21777 889.49036 0 0 0
29.22658 888.9585 0 0 0
29.23539 888.08081 0 0 0
29.24420 886.97791 0 0 0
29.25300 887.18091 0 0 0
29.26181 887.82617 0 0 0
29.27062 889.00983 0 0 0
29.27942 890.56812 0 0 0
29.28823 889.74365 0 0 0
29.29704 889.224 0 0 0
29.30585 890.32477 0 0 0
29.31465 889.79492 0 0 0
29.32346 890.52032 0 0 0
29.33227 890.42212 0 0 0
29.34108 887.43018 0 0 0
29.34988 887.23029 0 0 0
29.35869 887.22479 0 0 0
29.36750 887.35602 0 0 0
29.37630 888.61823 0 0 0
29.38511 889.36182 0 0 0
29.39392 890.12549 0 0 0
29.40273 891.1377 0 0 0
29.41153 892.52954 0 0 0
29.42034 891.76141 0 0 0
29.42915 890.74689 0 0 0
29.43795 889.97717 0 0 0
29.44676 889.9104 0 0 0
29.45557 890.62268 0 0 0
29.46438 892.39801 0 0 0
29.47318 893.75372 0 0 0
29.48199 893.5144 0 0 0
29.49080 893.56683 0 0 0
29.49960 893.39008 0 0 0
29.50841 894.82623 0 0 0
29.51722 895.56824 0 0 0
29.52603 895.54425 0 0 0
29.53483 894.79608 0 0 0
29.54364 893.6424 0 0 0
29.55245 893.96014 0 0 0
29.56125 894.70477 0 0 0
29.57006 895.96655 0 0 0
29.57887 897.08075 0 0 0
29.58768 897.66016 0 0 0
29.59648 897.39349 0 0 0
29.60529 897.16644 0 0 0
29.61410 896.2616 0 0 0
29.62291 897.17145 0 0 0
29.63171 898.12262 0 0 0
29.64052 896.80713 0 0 0
29.64933 895.69861 0 0 0
29.65813 894.77594 0 0 0
29.66694 893.91095 0 0 0
29.67575 894.12445 0 0 0
29.68455 895.3186 0 0 0
29.69336 897.22491 0 0 0
29.70217 898.09644 0 0 0
29.71098 896.54852 0 0 0
29.71978 895.73254 0 0 0
29.72859 897.77393 0 0 0
29.73740 900.43292 0 0 0
29.74621 900.25946 0 0 0
29.75501 899.46753 0 0 0
29.76382 900.01129 0 0 0
29.77263 900.84448 0 0 0
29.78143 901.22638 0 0 0
29.79024 900.34436 0 0 0
29.79905 900.49725 0 0 0
29.80786 901.53107 0 0 0
29.81666 902.01959 0 0 0
29.82547 901.54004 0 0 0
29.83428 902.06348 0 0 0
29.84308 903.57227 0 0 0
29.85189 904.9903 0 0 0
29.86070 905.72797 0 0 0
29.86951 905.60028 0 0 0
29.87831 905.92047 0 0 0
29.88712 904.84808 0 0 0
29.89593 904.16907 0 0 0
29.90473 906.05237 0 0 0
29.91354 908.49139 0 0 0
29.92235 908.02759 0 0 0
29.93116 907.92139 0 0 0
29.93996 910.09705 0 0 0
29.94877 910.21722 0 0 0
29.95758 908.27521 0 0 0
29.96638 908.10779 0 0 0
29.97519 908.34119 0 0 0
29.98400 907.29132 0 0 0
29.99281 908.1037 0 0 0
30.00161 908.76385 0 0 0
30.01042 909.04694 0 0 0
30.01923 909.12286 0 0 0
30.02803 907.96588 0 0 0
30.03684 906.49109 0 0 0
30.04565 905.18439 0 0 0
30.05446 904.82935 0 0 0
30.06326 904.16193 0 0 0
30.07207 904.48853 0 0 0
30.08088 902.85541 0 0 0
30.08968 901.63123 0 0 0
30.09849 900.55908 0 0 0
30.10730 900.20709 0 0 0
30.11611 900.13031 0 0 0
30.12491 899.63489 0 0 0
30.13372 899.50836 0 0 0
30.14253 897.7016 0 0 0
30.15133 897.30902 0 0 0
30.16014 897.28583 0 0 0
30.16895 896.40875 0 0 0
30.17776 895.82013 0 0 0
30.18656 893.52832 0 0 0
30.19537 893.30322 0 0 0
30.20418 893.19342 0 0 0
30.21299 891.99255 0 0 0
30.22179 892.14044 0 0 0
30.23060 893.76758 0 0 0
30.23941 893.69403 0 0 0
30.24821 894.20978 0 0 0
30.25702 895.15887 0 0 0
30.26583 895.54871 0 0 0
30.27463 894.55255 0 0 0
30.28344 893.24487 0 0 0
30.29225 893.97223 0 0 0
30.30106 895.33026 0 0 0
30.30986 896.20477 0 0 0
30.31867 895.98547 0 0 0
30.32748 896.04401 0 0 0
30.33629 894.78644 0 0 0
30.34509 895.71222 0 0 0
30.35390 896.06964 0 0 0
30.36271 894.94794 0 0 0
30.37151 895.78937 0 0 0
30.38032 896.03241 0 0 0
30.38913 897.81805 0 0 0
30.39794 897.66644 0 0 0
30.40674 896.61182 0 0 0
30.41555 898.85602 0 0 0
30.42436 899.5788 0 0 0
30.43316 898.51343 0 0 0
30.44197 900.45825 0 0 0
30.45078 901.98151 0 0 0
30.45959 901.33459 0 0 0
30.46839 900.57648 0 0 0
30.47720 901.32117 0 0 0
30.48601 902.42682 0 0 0
30.49481 902.77313 0 0 0
30.50362 901.23383 0 0 0
30.51243 899.74353 0 0 0
30.52124 898.73157 0 0 0
30.53004 900.31122 0 0 0
30.53885 901.39178 0 0 0
30.54766 900.73004 0 0 0
30.55646 900.57141 0 0 0
30.56527 900.84119 0 0 0
30.57408 901.57043 0 0 0
30.58289 899.07709 0 0 0
30.59169 897.45428 0 0 0
30.60050 898.11841 0 0 0
30.60931 898.24036 0 0 0
30.61811 896.82263 0 0 0
30.62692 895.18408 0 0 0
30.63573 894.93164 0 0 0
30.64454 895.07721 0 0 0
30.65334 894.67419 0 0 0
30.66215 894.29187 0 0 0
30.67096 893.9353 0 0 0
30.67977 894.04218 0 0 0
30.68857 893.41644 0 0 0
30.69738 892.55365 0 0 0
30.70619 892.16418 0 0 0
30.71499 888.31061 0 0 0
30.72380 887.16547 0 0 0
30.73261 889.3916 0 0 0
30.74141 889.87866 0 0 0
30.75022 890.84778 0 0 0
30.75903 891.12311 0 0 0
30.76784 890.79956 0 0 0
30.77664 888.21692 0 0 0
30.78545 884.74463 0 0 0
30.79426 884.74146 0 0 0
30.80307 885.93091 0 0 0
30.81187 886.09833 0 0 0
30.82068 887.69604 0 0 0
30.82949 887.7804 0 0 0
30.83829 887.84796 0 0 0
30.84710 887.32733 0 0 0
30.85591 885.39294 0 0 0
30.86472 884.88947 0 0 0
30.87352 884.32703 0 0 0
30.88233 885.06958 0 0 0
30.89114 885.01666 0 0 0
30.89994 884.62476 0 0 0
30.90875 883.71753 0 0 0
30.91756 880.34546 0 0 0
30.92637 880.38544 0 0 0
30.93517 879.56799 0 0 0
30.94398 877.83209 0 0 0
30.95279 879.84576 0 0 0
30.96159 879.19794 0 0 0
30.97040 878.48621 0 0 0
30.97921 878.1676 0 0 0
30.98802 878.18353 0 0 0
30.99682 878.97925 0 0 0
31.00563 876.513 0 0 0
31.01444 876.02051 0 0 0
31.02324 877.81787 0 0 0
31.03205 875.17969 0 0 0
31.04086 873.70917 0 0 0
31.04967 874.13867 0 0 0
31.05847 874.38654 0 0 0
31.06728 875.05756 0 0 0
31.07609 874.32239 0 0 0
31.08489 871.78021 0 0 0
31.09370 871.49463 0 0 0
31.10251 871.9563 0 0 0
31.11132 872.38605 0 0 0
31.12012 872.97015 0 0 0
31.12893 873.78735 0 0 0
31.13774 873.45313 0 0 0
31.14654 870.91547 0 0 0
31.15535 871.15411 0 0 0
31.16416 871.45575 0 0 0
31.17297 869.55621 0 0 0
31.18177 871.82623 0 0 0
31.19058 873.98059 0 0 0
31.19939 873.3822 0 0 0
31.20819 870.54663 0 0 0
31.21700 869.7757 0 0 0
31.22581 869.99579 0 0 0
31.23462 873.26123 0 0 0
31.24342 874.47479 0 0 0
31.25223 875.06726 0 0 0
31.26104 873.52429 0 0 0
31.26985 870.90161 0 0 0
31.27865 870.43658 0 0 0
31.28746 871.09583 0 0 0
31.29627 870.8808 0 0 0
31.30507 872.31177 0 0 0
31.31388 874.43024 0 0 0
31.32269 873.01343 0 0 0
31.33150 870.45087 0 0 0
31.34030 871.39294 0 0 0
31.34911 872.35046 0 0 0
31.35792 871.76947 0 0 0
31.36672 871.3313 0 0 0
31.37553 869.39075 0 0 0
31.38434 866.75592 0 0 0
31.39315 868.56018 0 0 0
31.40195 869.92682 0 0 0
31.41076 864.31573 0 0 0
31.41957 865.19757 0 0 0
31.42837 868.87836 0 0 0
31.43718 869.95642 0 0 0
31.44599 871.42255 0 0 0
31.45480 870.57861 0 0 0
31.46360 870.14691 0 0 0
31.47241 866.97235 0 0 0
31.48122 866.30298 0 0 0
31.49002 866.8811 0 0 0
31.49883 865.44757 0 0 0
31.50764 864.49774 0 0 0
31.51645 866.81909 0 0 0
31.52525 864.99908 0 0 0
31.53406 863.0639 0 0 0
31.54287 862.91205 0 0 0
31.55167 862.48071 0 0 0
31.56048 861.98456 0 0 0
31.56929 863.80164 0 0 0
31.57810 866.08783 0 0 0
31.58690 863.93854 0 0 0
31.59571 861.32056 0 0 0
31.60452 861.12561 0 0 0
31.61332 862.70288 0 0 0
31.62213 861.51776 0 0 0
31.63094 860.28851 0 0 0
31.63975 860.4259 0 0 0
31.64855 857.43823 0 0 0
31.65736 856.21838 0 0 0
31.66617 858.62189 0 0 0
31.67497 860.10443 0 0 0
31.68378 859.8476 0 0 0
31.69259 858.22546 0 0 0
31.70140 859.00854 0 0 0
31.71020 856.82532 0 0 0
31.71901 856.00262 0 0 0
31.72782 856.70483 0 0 0
31.73663 859.61377 0 0 0
31.74543 859.37213 0 0 0
31.75424 855.59302 0 0 0
31.76305 856.11328 0 0 0
31.77185 855.23303 0 0 0
31.78066 852.84583 0 0 0
31.78947 854.1496 0 0 0
31.79828 852.58508 0 0 0
31.80708 852.93097 0 0 0
31.81589 855.41071 0 0 0
31.82470 856.87799 0 0 0
31.83350 857.3833 0 0 0
31.84231 856.67938 0 0 0
31.85112 852.87823 0 0 0
31.85993 850.77136 0 0 0
31.86873 853.90228 0 0 0
31.87754 855.1178 0 0 0
31.88635 854.33191 0 0 0
31.89515 854.4328 0 0 0
31.90396 855.88586 0 0 0
31.91277 854.7226 0 0 0
31.92158 854.84723 0 0 0
31.93038 861.25555 0 0 0
31.93919 861.45935 0 0 0
31.94800 858.65045 0 0 0
31.95680 855.0354 0 0 0
31.96561 852.13495 0 0 0
31.97442 852.39374 0 0 0
31.98323 855.1286 0 0 0
31.99203 860.25012 0 0 0
32.00084 859.24396 0 0 0
32.00965 857.64618 0 0 0
32.01846 857.24646 0 0 0
32.02726 857.16309 0 0 0
32.03607 858.26892 0 0 0
32.04488 859.80524 0 0 0
32.05368 857.06818 0 0 0
32.06249 855.7334 0 0 0
32.07130 856.64929 0 0 0
32.08011 854.60742 0 0 0
32.08891 852.96216 0 0 0
32.09772 848.95404 0 0 0
32.10652 850.22772 0 0 0
32.11533 858.33472 0 0 0
32.12414 857.68494 0 0 0
32.13295 856.28949 0 0 0
32.14175 856.42163 0 0 0
32.15056 855.08264 0 0 0
32.15937 854.14197 0 0 0
32.16817 854.36536 0 0 0
32.17698 853.0448 0 0 0
32.18579 848.01312 0 0 0
32.19460 846.6582 0 0 0
32.20340 843.15063 0 0 0
32.21221 841.28497 0 0 0
32.22102 842.13641 0 0 0
32.22983 843.07611 0 0 0
32.23863 846.29028 0 0 0
32.24744 848.28705 0 0 0
32.25625 850.38074 0 0 0
32.26506 846.20441 0 0 0
32.27386 839.95538 0 0 0
32.28267 835.09387 0 0 0
32.29148 830.00555 0 0 0
32.30029 833.24005 0 0 0
32.30909 834.71429 0 0 0
32.31790 833.45325 0 0 0
32.32671 832.6922 0 0 0
32.33551 833.52338 0 0 0
32.34432 838.64032 0 0 0
32.35313 836.57709 0 0 0
32.36194 828.51599 0 0 0
32.37074 823.58508 0 0 0
32.37955 824.81421 0 0 0
32.38835 830.78967 0 0 0
32.39716 831.50903 0 0 0
32.40597 831.97278 0 0 0
32.41478 830.27655 0 0 0
32.42358 831.44342 0 0 0
32.43239 833.83228 0 0 0
32.44120 830.4458 0 0 0
32.45000 827.05457 0 0 0
32.45881 827.99799 0 0 0
32.46762 821.40436 0 0 0
32.47643 818.92365 0 0 0
32.48523 819.13745 0 0 0
32.49404 814.33301 0 0 0
32.50285 811.75464 0 0 0
32.51165 816.82269 0 0 0
32.52046 811.67639 0 0 0
32.52927 808.12115 0 0 0
32.53808 807.32068 0 0 0
32.54688 804.16583 0 0 0
32.55569 808.38629 0 0 0
32.56450 814.7934 0 0 0
32.57331 810.17645 0 0 0
32.58211 808.10327 0 0 0
32.59092 802.31427 0 0 0
32.59973 795.11127 0 0 0
32.60854 792.81335 0 0 0
32.61734 791.40137 0 0 0
32.62615 794.32971 0 0 0
32.63496 800.18835 0 0 0
32.64376 802.17676 0 0 0
32.65257 792.74243 0 0 0
32.66138 781.21198 0 0 0
32.67018 778.03241 0 0 0
32.67899 778.15778 0 0 0
32.68780 778.50629 0 0 0
32.69661 764.55225 0 0 0
32.70541 759.53644 0 0 0
32.71422 760.75372 0 0 0
32.72303 759.99115 0 0 0
32.73183 762.95447 0 0 0
32.74064 749.31036 0 0 0
32.74945 735.50653 0 0 0
32.75825 733.83948 0 0 0
32.76706 730.11615 0 0 0
32.77587 720.98059 0 0 0
32.78468 695.77087 0 0 0
32.79348 668.12219 0 0 0
32.80229 647.086 0 0 0
32.81110 622.87317 0 0 0
32.81991 599.2818 0 0 0
32.82871 545.65631 0 0 0
32.83752 508.17838 0 0 0
32.84633 437.74402 0 0 0
32.85514 301.96988 0 0 0
32.86394 204.11441 0 0 0
32.87275 194.52652 0 0 0
32.88156 185.73793 0 0 0
32.89037 180.79596 0 0 0
32.89917 181.74687 0 0 0
32.90798 191.33044 0 0 0
32.91679 195.87262 0 0 0
32.92559 192.63557 0 0 0
32.93440 188.80405 0 0 0
32.94321 194.00415 0 0 0
32.95202 198.36551 0 0 0
32.96082 203.70662 0 0 0
32.96963 209.57651 0 0 0
32.97844 202.00862 0 0 0
32.98724 194.61192 0 0 0
32.99605 187.49794 0 0 0
33.00486 180.90463 0 0 0
33.01366 188.99701 0 0 0
33.02247 197.26031 0 0 0
33.03128 193.61009 0 0 0
33.04008 187.57199 0 0 0
33.04889 190.15379 0 0 0
33.05770 190.6835 0 0 0
33.06650 188.52347 0 0 0
33.07531 195.2547 0 0 0
33.08412 201.65202 0 0 0
33.09293 202.28244 0 0 0
33.10173 195.06895 0 0 0
33.11054 184.8362 0 0 0
33.11935 189.20282 0 0 0
33.12816 191.54404 0 0 0
33.13696 192.82578 0 0 0
33.14577 196.41978 0 0 0
33.15458 197.51579 0 0 0
33.16339 199.56256 0 0 0
33.17219 212.59265 0 0 0
33.18100 222.93317 0 0 0
33.18981 212.48544 0 0 0
33.19862 204.53816 0 0 0
33.20742 196.13203 0 0 0
33.21623 194.86336 0 0 0
33.22504 200.181 0 0 0
33.23385 199.81343 0 0 0
33.24265 194.3302 0 0 0
33.25146 194.28951 0 0 0
33.26026 190.18919 0 0 0
33.26907 185.16095 0 0 0
33.27788 186.38225 0 0 0
33.28669 193.71126 0 0 0
33.29549 199.36047 0 0 0
33.30430 198.46063 0 0 0
33.31311 199.22412 0 0 0
33.32191 197.7773 0 0 0
33.33072 189.66295 0 0 0
33.33953 195.23068 0 0 0
33.34833 207.95177 0 0 0
33.35714 209.71561 0 0 0
33.36595 201.1412 0 0 0
33.37476 201.00616 0 0 0
33.38356 208.90247 0 0 0
33.39237 209.2601 0 0 0
33.40118 208.93954 0 0 0
33.40999 202.54955 0 0 0
33.41879 191.89384 0 0 0
33.42760 190.03326 0 0 0
33.43641 193.34483 0 0 0
33.44522 194.94312 0 0 0
33.45402 193.85504 0 0 0
33.46283 190.53758 0 0 0
33.47164 188.79497 0 0 0
33.48045 196.81271 0 0 0
33.48925 201.51254 0 0 0
33.49806 192.54744 0 0 0
33.50687 186.90175 0 0 0
33.51568 192.90424 0 0 0
33.52448 205.50975 0 0 0
33.53329 205.05609 0 0 0
33.54210 200.13857 0 0 0
33.55090 197.24463 0 0 0
33.55971 199.26878 0 0 0
33.56852 200.80849 0 0 0
33.57732 204.45985 0 0 0
33.58613 202.50107 0 0 0
33.59494 203.69757 0 0 0
33.60375 204.48613 0 0 0
33.61255 204.23602 0 0 0
33.62136 204.74287 0 0 0
33.63016 195.47816 0 0 0
33.63897 192.13994 0 0 0
33.64778 201.45389 0 0 0
33.65659 205.35603 0 0 0
33.66539 204.69461 0 0 0
33.67420 202.13196 0 0 0
33.68301 193.52737 0 0 0
33.69181 194.19899 0 0 0
33.70062 197.49678 0 0 0
33.70943 202.11137 0 0 0
33.71824 208.50595 0 0 0
33.72704 214.69719 0 0 0
33.73585 217.58495 0 0 0
33.74466 219.60086 0 0 0
33.75347 208.71315 0 0 0
33.76227 196.41455 0 0 0
33.77108 193.97905 0 0 0
33.77989 195.54108 0 0 0
33.78870 194.19397 0 0 0
33.79750 194.1013 0 0 0
33.80631 194.93425 0 0 0
33.81512 194.78407 0 0 0
33.82393 206.19672 0 0 0
33.83273 211.46846 0 0 0
33.84154 205.02718 0 0 0
33.85035 198.20036 0 0 0
33.85915 211.04291 0 0 0
33.86796 222.68309 0 0 0
33.87677 212.85753 0 0 0
33.88557 205.88974 0 0 0
33.89438 202.79633 0 0 0
33.90319 205.58183 0 0 0
33.91199 212.63887 0 0 0
33.92080 216.49619 0 0 0
33.92961 215.825 0 0 0
33.93842 207.12474 0 0 0
33.94722 202.69901 0 0 0
33.95603 189.38158 0 0 0
33.96484 179.60606 0 0 0
33.97364 189.49556 0 0 0
33.98245 194.39749 0 0 0
33.99126 189.1465 0 0 0
34.00007 190.47064 0 0 0
34.00887 203.62346 0 0 0
34.01768 219.02048 0 0 0
34.02649 217.67145 0 0 0
34.03530 207.31999 0 0 0
34.04410 209.16086 0 0 0
34.05291 209.40114 0 0 0
34.06172 201.05878 0 0 0
34.07053 198.47089 0 0 0
34.07933 200.2672 0 0 0
34.08814 200.9684 0 0 0
34.09695 202.5602 0 0 0
34.10575 203.62415 0 0 0
34.11456 209.1776 0 0 0
34.12337 210.69991 0 0 0
34.13217 206.57666 0 0 0
34.14098 199.64743 0 0 0
34.14979 200.30016 0 0 0
34.15860 198.24503 0 0 0
34.16740 194.9735 0 0 0
34.17621 183.78397 0 0 0
34.18502 182.53204 0 0 0
34.19382 183.56509 0 0 0
34.20263 198.63881 0 0 0
34.21144 213.0267 0 0 0
34.22024 219.12852 0 0 0
34.22905 222.88602 0 0 0
34.23786 211.48598 0 0 0
34.24667 203.02423 0 0 0
34.25547 197.6236 0 0 0
34.26428 201.18918 0 0 0
34.27309 198.50459 0 0 0
34.28189 195.28302 0 0 0
34.29070 200.87614 0 0 0
34.29951 197.14581 0 0 0
34.30832 192.97993 0 0 0
34.31712 190.89719 0 0 0
34.32593 188.33929 0 0 0
34.33474 191.12488 0 0 0
34.34355 198.94678 0 0 0
34.35235 214.59235 0 0 0
34.36116 218.51309 0 0 0
34.36997 211.36198 0 0 0
34.37878 205.91335 0 0 0
34.38758 209.33252 0 0 0
34.39639 210.18958 0 0 0
34.40520 204.61279 0 0 0
34.41401 202.40965 0 0 0
34.42281 206.67006 0 0 0
34.43162 211.16975 0 0 0
34.44043 206.83791 0 0 0
34.44923 207.18033 0 0 0
34.45804 206.44443 0 0 0
34.46685 201.48087 0 0 0
34.47566 204.69698 0 0 0
34.48446 206.94873 0 0 0
34.49327 206.85323 0 0 0
34.50207 204.81508 0 0 0
34.51088 201.07855 0 0 0
34.51969 197.30678 0 0 0
34.52850 200.30795 0 0 0
34.53730 213.06137 0 0 0
34.54611 213.93549 0 0 0
34.55492 205.82408 0 0 0
34.56372 203.34059 0 0 0
34.57253 205.13194 0 0 0
34.58134 208.84273 0 0 0
34.59015 204.72192 0 0 0
34.59895 206.91388 0 0 0
34.60776 208.79895 0 0 0
34.61657 206.77019 0 0 0
34.62538 213.87717 0 0 0
34.63418 217.28897 0 0 0
34.64299 215.94479 0 0 0
34.65180 215.28334 0 0 0
34.66060 213.18622 0 0 0
34.66941 210.65828 0 0 0
34.67822 207.93619 0 0 0
34.68703 209.64011 0 0 0
34.69583 213.31505 0 0 0
34.70464 204.8976 0 0 0
34.71345 198.23384 0 0 0
34.72226 209.39246 0 0 0
34.73106 208.84502 0 0 0
34.73987 210.79655 0 0 0
34.74868 211.51535 0 0 0
34.75748 216.38022 0 0 0
34.76629 227.23567 0 0 0
34.77510 223.66072 0 0 0
34.78390 220.56374 0 0 0
34.79271 210.80585 0 0 0
34.80152 200.35326 0 0 0
34.81033 200.07382 0 0 0
34.81913 210.537 0 0 0
34.82794 217.81613 0 0 0
34.83675 219.69493 0 0 0
34.84555 214.58632 0 0 0
34.85436 215.38084 0 0 0
34.86317 214.70941 0 0 0
34.87197 199.73119 0 0 0
34.88078 185.54193 0 0 0
34.88959 195.47533 0 0 0
34.89840 213.07597 0 0 0
34.90720 220.22884 0 0 0
34.91601 209.88756 0 0 0
34.92482 196.57582 0 0 0
34.93363 190.38052 0 0 0
34.94243 197.85274 0 0 0
34.95124 211.51944 0 0 0
34.96005 213.62444 0 0 0
34.96886 213.72162 0 0 0
34.97766 211.44624 0 0 0
34.98647 210.95575 0 0 0
34.99528 211.14386 0 0 0
35.00409 215.33609 0 0 0
35.01289 218.5157 0 0 0
35.02170 216.88794 0 0 0
35.03051 206.71576 0 0 0
35.03931 199.07945 0 0 0
35.04812 201.76796 0 0 0
35.05693 214.46809 0 0 0
35.06573 214.72937 0 0 0
35.07454 213.29359 0 0 0
35.08335 212.84624 0 0 0
35.09215 212.07071 0 0 0
35.10096 210.51247 0 0 0
35.10977 216.16483 0 0 0
35.11858 218.69463 0 0 0
35.12738 217.56082 0 0 0
35.13619 209.05896 0 0 0
35.14500 209.89915 0 0 0
35.15380 214.55293 0 0 0
35.16261 219.08704 0 0 0
35.17142 214.05917 0 0 0
35.18023 210.58887 0 0 0
35.18903 216.21625 0 0 0
35.19784 221.04924 0 0 0
35.20665 225.59706 0 0 0
35.21545 219.64777 0 0 0
35.22426 214.95766 0 0 0
loop_
_gsas_i100_meas
0.70
12.05
6.07
2.22
8.25
3.27
100.00
10.66
57.59
22.37
77.21
16.63
2.25
0.91
37.54
53.50
0.62
43.34
16.28
17.29
4.74
0.26
1.86
4.90
3.61
35.36
1.74
32.83
4.87
0.97
0.57
0.01
0.01
6.43
1.24
0.50
2.66
3.62
3.66
16.97
23.09
5.75
3.74
0.01
4.83
0.27
0.26
0.59
17.73
0.38
5.47
5.89
12.64
0.14
7.94
11.77
1.84
4.13
6.06
0.06
8.75
5.24
0.00
0.50
2.79
1.56
2.39
2.22
3.58
0.78
2.62
1.55
1.05
16.77
0.19
0.54
0.05
3.21
3.02
0.44
1.08
7.91
0.01
8.99
0.30
7.38
10.31
17.24
1.36
0.44
0.30
3.87
2.58
0.48
0.14
1.76
6.78
2.23
2.35
0.14
1.24
0.08
2.49
1.70
0.64
0.00
8.61
1.76
0.30
5.65
14.59
2.58
2.14
11.65
2.37
3.14
0.56
0.14
0.01
0.30
1.13
0.05
0.13
3.93
0.00
0.42
6.40
1.95
0.51
2.43
0.06
0.20
0.04
0.03
4.76
1.49
0.21
0.03
0.41
0.44
1.91
0.10
0.09
8.96
5.14
1.05
0.60
0.00
0.13
5.29
1.71
1.14
0.19
0.13
0.17
1.46
2.15
1.55
3.38
0.13
0.74
1.37
0.55
0.82
0.80
1.43
0.00
0.14
0.68
1.37
1.14
0.82
2.63
0.35
0.03
0.03
0.10
0.23
