#------------------------------------------------------------------------------
#$Date: 2021-02-05 01:04:31 +0200 (Fri, 05 Feb 2021) $
#$Revision: 261628 $
#$URL: file:///home/coder/svn-repositories/cod/cif/7/24/18/7241833.cif $
#------------------------------------------------------------------------------
#
# This file is available in the Crystallography Open Database (COD),
# http://www.crystallography.net/
#
# All data on this site have been placed in the public domain by the
# contributors.
#
data_7241833
loop_
_publ_author_name
'Gu\'nka, Piotr A.'
'Hanfland, Michael'
'Chen, Yu-Sheng'
'Zachara, Janusz'
_publ_section_title
;
 High-pressure and low-temperature structural study of claudetite I, a
 monoclinic layered As2O3 polymorph
;
_journal_issue                   3
_journal_name_full               CrystEngComm
_journal_page_first              638
_journal_page_last               644
_journal_paper_doi               10.1039/D0CE01401J
_journal_volume                  23
_journal_year                    2021
_chemical_formula_moiety         'As2 O3'
_chemical_formula_sum            'As2 O3'
_chemical_formula_weight         197.84
_chemical_name_common            'claudetite I'
_chemical_name_systematic
;
arsenic(III) oxide
;
_space_group_IT_number           14
_space_group_name_Hall           '-P 2yn'
_space_group_name_H-M_alt        'P 1 21/n 1'
_symmetry_cell_setting           monoclinic
_symmetry_space_group_name_H-M   'P 1 21/n 1'
_audit_creation_date             2020-10-21T11:47
_audit_creation_method           'created in GSAS-II'
_audit_update_record
;
2020-10-22 deposited with the CCDC.	2020-12-10 downloaded from the CCDC.
;
_cell_angle_alpha                90
_cell_angle_beta                 94.603(4)
_cell_angle_gamma                90
_cell_formula_units_Z            4
_cell_length_a                   4.8627(5)
_cell_length_b                   12.05705(19)
_cell_length_c                   4.2663(3)
_cell_measurement_pressure       9.81e6(5)
_cell_measurement_temperature    293
_cell_volume                     249.33(3)
_computing_data_reduction        Fit2D
_computing_structure_refinement
'GSAS-II (Toby & Von Dreele, J. Appl. Cryst. 46, 544-549, 2013)'
_diffrn_ambient_pressure         9.81e6(5)
_diffrn_ambient_temperature      293
_diffrn_detector                 'Mar555 flat panel'
_diffrn_detector_type            'Mar555 flat panel'
_diffrn_measurement_device_type  'ESRF ID09A beamline'
_diffrn_radiation_monochromator  Si
_diffrn_radiation_polarisn_ratio 0.9900
_diffrn_radiation_probe          x-ray
_diffrn_radiation_wavelength     0.41421
_diffrn_source                   'ESRF ID09A'
_diffrn_source_type              synchrotron
_exptl_crystal_colour            colourless
_exptl_crystal_density_diffrn    5.2705
_exptl_crystal_description       'white powder'
_pd_block_id                     2020-10-21T11:47|clau1_013rietveld||id09a
_pd_calc_method                  'Rietveld Refinement'
_pd_meas_number_of_points        4000
_pd_phase_name                   claudetiteI
_pd_prep_pressure                100.0(1)
_pd_prep_temperature             293
_pd_proc_info_datetime           2020-10-21T11:47
_pd_proc_ls_background_function
;
Background function: "chebyschev" function with 15 terms:
    714.5(14), 386(9), 690(31), -1.92(12)e3, -3.79(17)e3, 1.80(5)e4, 
    -6.4(26)e2, -6.40(8)e4, 3.402(12)e4, 1.0640(10)e5, -7.480(19)e4, 
    -8.41(9)e4, 6.475(21)e4, 2.56(5)e4, -2.032(20)e4, 
;
_pd_proc_ls_pref_orient_corr
;
Simple spherical harmonic correction Order = 6
    Coefficients:  0:0:C(6,6) = 0.008(22); 0:0:C(4,4) = 0.632(24); 
    0:0:C(6,-2) = -0.124(27); 0:0:C(2,-2) = 0.284(14); 0:0:C(4,-4) = 0.137(19); 
    0:0:C(2,2) = 0.569(17); 0:0:C(4,0) = -0.011(17); 0:0:C(6,-6) = -0.303(30); 
    0:0:C(6,4) = 0.233(26); 0:0:C(4,2) = 0.060(17); 0:0:C(6,2) = 0.328(24); 
    0:0:C(6,-4) = -0.188(23); 0:0:C(6,0) = 0.138(28); 0:0:C(2,0) = 0.869(15); 
    0:0:C(4,-2) = -0.138(18); 
;
_pd_proc_ls_profile_function
;
Finger-Cox-Jephcoat function parameters U, V, W, X, Y, SH/L:
  peak variance(Gauss) = Utan(Th)^2^+Vtan(Th)+W:
  peak HW(Lorentz) = X/cos(Th)+Ytan(Th); SH/L = S/L+H/L
  U, V, W in (centideg)^2^, X & Y in centideg
    8.7(9)e2, -136(15), 7.0(7), 65.20(16), 9(4), 0.002, 
  Crystallite size in microns with "isotropic" model:
  parameters: Size, G/L mix
    1.000, 1.000, 
  Microstrain, "isotropic" model (10^6^ * delta Q/Q)
    parameters: Mustrain, G/L mix
    1000.000, 1.000, 

;
_pd_proc_ls_prof_R_factor        0.01582
_pd_proc_ls_prof_wR_expected     0.03498
_pd_proc_ls_prof_wR_factor       0.02555
_refine_ls_goodness_of_fit_all   0.742
_refine_ls_matrix_type           full
_refine_ls_number_parameters     57
_refine_ls_R_Fsqd_factor         0.27269
_refine_ls_shift/su_max          0.0002
_refine_ls_wR_factor_obs         0.02560
_reflns_d_resolution_high        1.119
_reflns_d_resolution_low         6.029
_reflns_limit_h_max              4
_reflns_limit_h_min              0
_reflns_limit_k_max              10
_reflns_limit_k_min              0
_reflns_limit_l_max              3
_reflns_limit_l_min              -3
_reflns_number_total             185
_cod_data_source_file            d0ce01401j3.cif
_cod_data_source_block           clau1_013rietveld
_cod_depositor_comments
'Adding full bibliography for 7241824--7241862.cif.'
_cod_original_cell_volume        249.329(13)
_cod_database_code               7241833
_refine_ls_r_f_factor            0.08611
_gsas_proc_ls_prof_r_b_factor    0.02995
_gsas_proc_ls_prof_wr_b_factor   0.04749
loop_
_space_group_symop_id
_space_group_symop_operation_xyz
1 x,y,z
2 1/2-x,1/2+y,1/2-z
3 -x,-y,-z
4 1/2+x,1/2-y,1/2+z
loop_
_atom_site_label
_atom_site_type_symbol
_atom_site_fract_x
_atom_site_fract_y
_atom_site_fract_z
_atom_site_occupancy
_atom_site_adp_type
_atom_site_U_iso_or_equiv
_atom_site_symmetry_multiplicity
As1 As 0.2670(9) 0.08990(21) 0.0591(7) 1.000 Uiso 0.0034(10) 4
As2 As 0.3311(7) 0.35729(23) 0.0271(7) 1.000 Uiso 0.0034 4
O3 O 0.4326(31) 0.2194(5) 0.130(4) 1.000 Uiso 0.0034 4
O4 O 0.6611(21) 0.4075(12) 0.1562(19) 1.000 Uiso 0.0034 4
O5 O -0.0532(26) 0.1473(16) 0.1455(24) 1.000 Uiso 0.0034 4
loop_
_atom_type_symbol
_atom_type_number_in_cell
_atom_type_scat_Cromer_Mann_a1
_atom_type_scat_Cromer_Mann_a2
_atom_type_scat_Cromer_Mann_a3
_atom_type_scat_Cromer_Mann_a4
_atom_type_scat_Cromer_Mann_b1
_atom_type_scat_Cromer_Mann_b2
_atom_type_scat_Cromer_Mann_b3
_atom_type_scat_Cromer_Mann_b4
_atom_type_scat_Cromer_Mann_c
_atom_type_scat_length_neutron
_atom_type_scat_source
_atom_type_scat_dispersion_real
_atom_type_scat_dispersion_imag
_atom_type_scat_dispersion_source
As 8 16.6723 6.0701 3.4313 4.2779 2.6345 0.2647 12.9479 47.7972 2.531 0.658
https://subversion.xray.aps.anl.gov/pyGSAS/trunk/atmdata.py 0.283 0.775
https://subversion.xray.aps.anl.gov/pyGSAS/trunk/atmdata.py
O 12 3.0485 2.2868 1.5463 0.867 13.2771 5.7011 0.3239 32.9089 0.2508 0.5805
https://subversion.xray.aps.anl.gov/pyGSAS/trunk/atmdata.py 0.002 0.002
https://subversion.xray.aps.anl.gov/pyGSAS/trunk/atmdata.py
loop_
_geom_angle_atom_site_label_1
_geom_angle_atom_site_label_2
_geom_angle_atom_site_label_3
_geom_angle
_geom_angle_site_symmetry_1
_geom_angle_site_symmetry_2
_geom_angle_site_symmetry_3
_geom_angle_publ_flag
O3 As1 O4 104.2(8) 1_555 1_555 4_454 yes
O3 As1 O5 90.8(9) 1_555 1_555 1_555 yes
O4 As1 O5 90.2(6) 4_454 1_555 1_555 yes
O3 As2 O4 90.9(6) 1_555 1_555 1_555 yes
O3 As2 O5 95.5(11) 1_555 1_555 4_554 yes
O4 As2 O5 87.1(5) 1_555 1_555 4_554 yes
As1 O3 As2 131.9(7) 1_555 1_555 1_555 yes
As1 O4 As2 120.1(6) 4_555 1_555 1_555 yes
As1 O5 As2 122.1(7) 1_555 1_555 4_455 yes
loop_
_geom_bond_atom_site_label_1
_geom_bond_atom_site_label_2
_geom_bond_distance
_geom_bond_site_symmetry_1
_geom_bond_site_symmetry_2
_geom_bond_publ_flag
As1 O3 1.772(7) 1_555 1_555 yes
As1 O4 1.754(7) 1_555 4_454 yes
As1 O5 1.769(7) 1_555 1_555 yes
As2 O3 1.779(7) 1_555 1_555 yes
As2 O4 1.762(7) 1_555 1_555 yes
As2 O5 1.766(7) 1_555 4_554 yes
loop_
_pd_meas_2theta_scan
_pd_meas_intensity_total
_pd_calc_intensity_total
_pd_proc_intensity_bkg_calc
_pd_proc_ls_weight
0.00440 105.05066 0 0 0
0.01320 105.51192 0 0 0
0.02201 103.83892 0 0 0
0.03081 105.03394 0 0 0
0.03961 106.70547 0 0 0
0.04841 107.86555 0 0 0
0.05721 107.32773 0 0 0
0.06602 108.14159 0 0 0
0.07482 104.11967 0 0 0
0.08362 102.27688 0 0 0
0.09242 101.51394 0 0 0
0.10122 102.20422 0 0 0
0.11003 101.7676 0 0 0
0.11883 102.14679 0 0 0
0.12763 102.17944 0 0 0
0.13643 102.19208 0 0 0
0.14523 102.22773 0 0 0
0.15404 103.11078 0 0 0
0.16284 105.50429 0 0 0
0.17164 105.45799 0 0 0
0.18044 105.68668 0 0 0
0.18925 104.31951 0 0 0
0.19805 103.60762 0 0 0
0.20685 103.62691 0 0 0
0.21565 104.88136 0 0 0
0.22445 106.07629 0 0 0
0.23326 107.01081 0 0 0
0.24206 107.09173 0 0 0
0.25086 107.53014 0 0 0
0.25966 108.84922 0 0 0
0.26846 109.96301 0 0 0
0.27727 108.69451 0 0 0
0.28607 106.58778 0 0 0
0.29487 106.6936 0 0 0
0.30367 108.03698 0 0 0
0.31248 107.84193 0 0 0
0.32128 107.41127 0 0 0
0.33008 106.24302 0 0 0
0.33888 106.20541 0 0 0
0.34768 106.29836 0 0 0
0.35649 106.94622 0 0 0
0.36529 107.00811 0 0 0
0.37409 108.27443 0 0 0
0.38289 108.47314 0 0 0
0.39169 108.52416 0 0 0
0.40050 107.80222 0 0 0
0.40930 108.8673 0 0 0
0.41810 109.17081 0 0 0
0.42690 108.97694 0 0 0
0.43570 108.69432 0 0 0
0.44451 107.92043 0 0 0
0.45331 106.52306 0 0 0
0.46211 105.99236 0 0 0
0.47091 106.88652 0 0 0
0.47972 108.21217 0 0 0
0.48852 108.74588 0 0 0
0.49732 108.64895 0 0 0
0.50612 107.98355 0 0 0
0.51492 106.64607 0 0 0
0.52373 106.76244 0 0 0
0.53253 106.74143 0 0 0
0.54133 105.65826 0 0 0
0.55013 105.64217 0 0 0
0.55893 107.00037 0 0 0
0.56774 107.64708 0 0 0
0.57654 107.15693 0 0 0
0.58534 106.57767 0 0 0
0.59414 106.11806 0 0 0
0.60295 106.54222 0 0 0
0.61175 106.93958 0 0 0
0.62055 107.23351 0 0 0
0.62935 107.8351 0 0 0
0.63815 108.54389 0 0 0
0.64696 108.05444 0 0 0
0.65576 107.46366 0 0 0
0.66456 106.66082 0 0 0
0.67336 106.66917 0 0 0
0.68216 107.0541 0 0 0
0.69097 108.00668 0 0 0
0.69977 109.05138 0 0 0
0.70857 109.16542 0 0 0
0.71737 109.17462 0 0 0
0.72617 108.27818 0 0 0
0.73498 108.04011 0 0 0
0.74378 108.64401 0 0 0
0.75258 109.14986 0 0 0
0.76138 109.6318 0 0 0
0.77019 109.82214 0 0 0
0.77899 110.78806 0 0 0
0.78779 110.45849 0 0 0
0.79659 111.10854 0 0 0
0.80539 111.42502 0 0 0
0.81420 111.37289 0 0 0
0.82300 111.31303 0 0 0
0.83180 110.94428 0 0 0
0.84060 111.33867 0 0 0
0.84940 112.20013 0 0 0
0.85821 113.19164 0 0 0
0.86701 114.38026 0 0 0
0.87581 114.51064 0 0 0
0.88461 115.61839 0 0 0
0.89342 117.1194 0 0 0
0.90222 119.01157 0 0 0
0.91102 119.95517 0 0 0
0.91982 122.04501 0 0 0
0.92862 122.18093 0 0 0
0.93743 123.38348 0 0 0
0.94623 122.11153 0 0 0
0.95503 120.06477 0 0 0
0.96383 121.40934 0 0 0
0.97263 125.23928 0 0 0
0.98144 126.84387 0 0 0
0.99024 128.5173 0 0 0
0.99904 129.7081 0 0 0
1.00784 131.91884 0 0 0
1.01664 137.85515 0 0 0
1.02545 141.4541 0 0 0
1.03425 152.32343 0 0 0
1.04305 159.74307 0 0 0
1.05185 168.2578 0 0 0
1.06066 171.49654 0 0 0
1.06946 181.86656 0 0 0
1.07826 187.71179 0 0 0
1.08706 193.83875 0 0 0
1.09586 199.95747 0 0 0
1.10467 208.09767 0 0 0
1.11347 216.1347 0 0 0
1.12227 221.22162 0 0 0
1.13107 226.25003 0 0 0
1.13987 229.42229 0 0 0
1.14868 233.88214 0 0 0
1.15748 235.89159 0 0 0
1.16628 237.95183 0 0 0
1.17508 241.30237 0 0 0
1.18389 242.78864 0 0 0
1.19269 245.41931 0 0 0
1.20149 247.20494 0 0 0
1.21029 250.19341 0 0 0
1.21909 251.94118 0 0 0
1.22790 254.52332 0 0 0
1.23670 257.35477 0 0 0
1.24550 259.46939 0 0 0
1.25430 261.19397 0 0 0
1.26310 261.76663 0 0 0
1.27191 262.98029 0 0 0
1.28071 264.61115 0 0 0
1.28951 266.93295 0 0 0
1.29831 268.78406 0 0 0
1.30711 270.39462 0 0 0
1.31592 271.26263 0 0 0
1.32472 272.20428 0 0 0
1.33352 274.1575 0 0 0
1.34232 275.59372 0 0 0
1.35113 277.13235 0 0 0
1.35993 277.17447 0 0 0
1.36873 278.28278 0 0 0
1.37753 279.96378 0 0 0
1.38633 281.9733 0 0 0
1.39514 283.18121 0 0 0
1.40394 284.16461 0 0 0
1.41274 284.78751 0 0 0
1.42154 286.10583 0 0 0
1.43034 289.04449 0 0 0
1.43915 289.50052 0 0 0
1.44795 288.98285 0 0 0
1.45675 290.97223 0 0 0
1.46555 293.46509 0 0 0
1.47436 293.7276 0 0 0
1.48316 293.45639 0 0 0
1.49196 294.80484 0 0 0
1.50076 297.49673 0 0 0
1.50956 298.92468 0 0 0
1.51837 299.12015 0 0 0
1.52717 299.38541 0 0 0
1.53597 300.14835 0 0 0
1.54477 301.17624 0 0 0
1.55357 301.83725 0 0 0
1.56238 302.23926 0 0 0
1.57118 302.84354 0 0 0
1.57998 304.1554 0 0 0
1.58878 305.96515 0 0 0
1.59758 307.20792 0 0 0
1.60639 306.70886 0 0 0
1.61519 306.99814 0 0 0
1.62399 307.33017 0 0 0
1.63279 307.56384 0 0 0
1.64160 309.04489 0 0 0
1.65040 310.25183 0 0 0
1.65920 312.01523 0 0 0
1.66800 312.74658 0 0 0
1.67680 313.69485 0 0 0
1.68561 314.75937 0 0 0
1.69441 315.18155 0 0 0
1.70321 314.70282 0 0 0
1.71201 315.06024 0 0 0
1.72081 316.54959 0 0 0
1.72962 318.26224 0 0 0
1.73842 319.39453 0 0 0
1.74722 320.73532 0 0 0
1.75602 320.72873 0 0 0
1.76483 319.65793 0 0 0
1.77363 319.43015 0 0 0
1.78243 320.33823 0 0 0
1.79123 321.97177 0 0 0
1.80003 322.58179 0 0 0
1.80884 322.76923 0 0 0
1.81764 323.51517 0 0 0
1.82644 324.565 0 0 0
1.83524 325.78989 0 0 0
1.84404 326.88779 0 0 0
1.85285 328.04871 0 0 0
1.86165 329.59552 312.832947 312.832844 0.003034022
1.87045 330.4227 315.034929 315.034826 0.003026426
1.87925 330.81702 317.155639 317.155534 0.003022819
1.88805 330.32343 319.197533 319.197428 0.003027336
1.89686 330.35916 321.162995 321.162888 0.003027009
1.90566 329.93073 323.054371 323.054264 0.003030939
1.91446 330.97186 324.873898 324.873789 0.003021405
1.92326 332.35327 326.623821 326.623712 0.003008847
1.93207 332.64114 328.306338 328.306228 0.003006243
1.94087 333.33676 329.923519 329.923408 0.002999969
1.94967 333.82938 331.477518 331.477406 0.002995542
1.95847 335.18552 332.970312 332.970199 0.002983422
1.96727 335.79974 334.403905 334.403791 0.002977965
1.97608 336.29294 335.780238 335.780123 0.002973598
1.98488 335.60403 337.10122 337.101104 0.002979702
1.99368 336.16861 338.368658 338.368541 0.002974698
2.00248 337.1796 339.584405 339.584287 0.002965778
2.01128 337.80908 340.750223 340.750103 0.002960252
2.02009 338.4021 341.867809 341.867688 0.002955064
2.02889 338.82516 342.93887 342.938749 0.002951375
2.03769 339.35208 343.965002 343.96488 0.002946792
2.04649 338.97183 344.947876 344.947752 0.002950098
2.05530 339.54254 345.889019 345.888894 0.002945139
2.06410 340.86255 346.789956 346.78983 0.002933734
2.07290 342.53061 347.652164 347.652037 0.002919447
2.08170 343.87677 348.477095 348.476966 0.002908018
2.09050 344.14868 349.26619 349.26606 0.002905721
2.09931 345.03568 350.020798 350.020667 0.002898251
2.10811 346.1698 350.742282 350.742149 0.002888756
2.11691 346.25818 351.431917 351.431783 0.002888018
2.12571 345.26328 352.091025 352.09089 0.00289634
2.13451 345.69351 352.720824 352.720688 0.002892736
2.14332 346.34509 353.322524 353.322387 0.002887294
2.15212 347.87582 353.910626 353.897145 0.002874589
2.16092 348.08411 354.459705 354.446147 0.002872869
2.16972 347.81668 354.984124 354.970488 0.002875078
2.17852 348.42386 355.484964 355.47125 0.002870068
2.18733 348.83334 355.96329 355.949498 0.002866698
2.19613 349.90689 356.42011 356.406238 0.002857903
2.20493 350.53491 356.856452 356.8425 0.002852783
2.21373 350.98376 357.273271 357.259238 0.002849135
2.22254 351.27771 357.67151 357.657395 0.002846751
2.23134 351.99197 358.052073 358.037876 0.002840974
2.24014 352.87296 358.415875 358.401594 0.002833881
2.24894 353.08954 358.763766 358.749402 0.002832143
2.25774 352.69925 359.096583 359.082135 0.002835277
2.26655 353.42004 359.41514 359.400606 0.002829494
2.27535 354.52203 359.720234 359.705614 0.002820699
2.28415 354.98141 360.012629 359.997922 0.002817049
2.29295 355.5462 360.293066 360.278271 0.002812574
2.30175 355.4975 360.562254 360.547371 0.002812959
2.31056 355.45627 360.82091 360.805938 0.002813286
2.31936 356.12305 361.0697 361.054638 0.002808018
2.32816 357.29272 361.309277 361.294124 0.002798826
2.33696 358.05273 361.540273 361.525028 0.002792885
2.34576 358.28168 361.763298 361.747961 0.0027911
2.35457 358.43976 361.978954 361.963523 0.002789869
2.36337 358.51468 362.187804 362.172279 0.002789286
2.37217 358.36993 362.390407 362.374788 0.002790413
2.38097 360.12195 362.587289 362.571573 0.002776837
2.38978 360.67065 362.778977 362.763164 0.002772613
2.39858 359.55634 362.965963 362.950052 0.002781205
2.40738 359.2648 363.148726 363.132717 0.002783462
2.41618 360.42914 363.327724 363.311615 0.00277447
2.42498 361.71356 363.503414 363.487204 0.002764619
2.43379 362.36188 363.676218 363.659907 0.002759672
2.44259 363.12918 363.846548 363.830134 0.002753841
2.45139 362.11234 364.014804 363.998288 0.002761574
2.46019 362.16483 364.181362 364.16474 0.002761174
2.46899 362.65143 364.346597 364.32987 0.002757469
2.47780 363.10382 364.510857 364.494023 0.002754033
2.48660 363.34937 364.674478 364.657537 0.002752172
2.49540 363.67508 364.837778 364.820729 0.002749707
2.50420 364.93958 365.001078 364.983919 0.00274018
2.51301 365.93964 365.164668 365.147398 0.002732691
2.52181 366.29041 365.328828 365.311447 0.002730074
2.53061 366.82397 365.49383 365.476336 0.002726103
2.53941 366.70483 365.659934 365.642326 0.002726989
2.54821 366.88556 365.827385 365.809662 0.002725646
2.55702 366.80096 365.996416 365.978576 0.002726274
2.56582 366.89178 366.167242 366.149285 0.002725599
2.57462 366.98563 366.340085 366.322009 0.002724902
2.58342 367.75812 366.515139 366.496944 0.002719179
2.59222 368.85422 366.692594 366.674277 0.002711098
2.60103 370.18243 366.872625 366.854186 0.002701371
2.60983 370.3364 367.0554 367.036838 0.002700248
2.61863 370.57623 367.241082 367.222395 0.0026985
2.62743 370.14206 367.42982 367.411007 0.002701665
2.63624 370.62549 367.62175 367.60281 0.002698141
2.64504 371.00131 367.816997 367.797928 0.002695408
2.65384 371.3566 368.015693 367.996494 0.002692829
2.66264 371.27469 368.217947 368.198616 0.002693424
2.67144 371.49408 368.42386 368.404397 0.002691833
2.68025 372.73639 368.633523 368.613926 0.002682861
2.68905 373.56622 368.847038 368.827305 0.002676902
2.69785 374.20135 369.064476 369.044607 0.002672358
2.70665 373.93439 369.28591 369.265902 0.002674266
2.71545 373.47153 369.511409 369.491261 0.00267758
2.72426 374.56342 369.741021 369.720732 0.002669775
2.73306 375.84766 369.974814 369.954382 0.002660652
2.74186 376.54416 370.212824 370.192248 0.002655731
2.75066 376.75842 370.455091 370.434368 0.002654221
2.75946 377.34515 370.701637 370.680767 0.002650094
2.76827 376.54022 370.952506 370.931487 0.002655759
2.77707 375.65274 371.20771 371.18654 0.002662033
2.78587 376.09421 371.467261 371.445938 0.002658908
2.79467 375.99118 371.731167 371.70969 0.002659637
2.80348 376.5997 371.999439 371.977806 0.002655339
2.81228 377.01715 372.272075 372.250285 0.002652399
2.82108 377.80481 372.549067 372.527117 0.002646869
2.82988 378.00851 372.830393 372.808283 0.002645443
2.83868 378.79184 373.116058 373.093784 0.002639972
2.84749 378.40591 373.410583 373.383594 0.002642665
2.85629 378.13074 373.704868 373.677686 0.002644588
2.86509 378.48944 374.003406 373.976029 0.002642082
2.87389 379.34018 374.306165 374.278591 0.002636156
2.88269 380.50778 374.613116 374.585342 0.002628067
2.89150 381.4985 374.924219 374.896244 0.002621242
2.90030 382.32974 375.239428 375.211248 0.002615543
2.90910 382.51559 375.558684 375.530299 0.002614273
2.91790 383.01324 375.881961 375.853366 0.002610876
2.92670 383.62866 376.209193 376.180388 0.002606687
2.93551 382.82764 376.540326 376.511307 0.002612142
2.94431 382.84512 376.875289 376.846055 0.002612022
2.95311 383.33203 377.214044 377.184591 0.002608705
2.96191 383.58102 377.556512 377.526838 0.002607011
2.97072 383.54068 377.902633 377.872735 0.002607285
2.97952 384.14243 378.252336 378.222212 0.002603201
2.98832 384.40015 378.605537 378.575184 0.002601456
2.99712 383.83063 378.962187 378.931603 0.002605316
3.00592 383.74475 379.322201 379.291382 0.002605899
3.01473 384.64679 379.6855 379.654444 0.002599788
3.02353 385.98697 380.051994 380.020698 0.002590761
3.03233 386.41461 380.421627 380.390089 0.002587894
3.04113 386.78519 380.794307 380.762522 0.002585414
3.04993 387.32623 381.169944 381.13791 0.002581803
3.05874 387.66406 381.548454 381.516168 0.002579553
3.06754 387.09686 381.929761 381.89722 0.002583333
3.07634 386.79858 382.313777 382.280978 0.002585325
3.08514 387.285 382.700411 382.66735 0.002582078
3.09395 387.7189 383.089559 383.056233 0.002579188
3.10275 387.78488 383.481159 383.447565 0.002578749
3.11155 387.26642 383.875107 383.841241 0.002582202
3.12035 387.6937 384.271312 384.23717 0.002579356
3.12915 389.03564 384.669676 384.635256 0.002570459
3.13796 389.94257 385.070108 385.035405 0.00256448
3.14676 389.79828 385.472524 385.437535 0.002565429
3.15556 390.04083 385.87683 385.841551 0.002563834
3.16436 390.06204 386.282928 386.247355 0.002563695
3.17316 390.36218 386.69071 386.654839 0.002561724
3.18197 390.496 387.10011 387.063937 0.002560846
3.19077 391.41254 387.51102 387.47454 0.002554849
3.19957 391.67041 387.923345 387.886555 0.002553167
3.20837 391.8801 388.336976 388.299872 0.002551801
3.21717 392.22931 388.751849 388.714426 0.002549529
3.22598 392.42041 389.16785 389.130103 0.002548287
3.23478 392.72546 389.584894 389.546819 0.002546308
3.24358 392.98196 390.005694 389.964476 0.002544646
3.25238 393.33252 390.424537 390.382965 0.002542378
3.26119 393.41196 390.844153 390.802222 0.002541865
3.26999 393.47302 391.264436 391.22214 0.00254147
3.27879 393.85892 391.685292 391.642627 0.00253898
3.28759 394.25415 392.106617 392.063577 0.002536435
3.29639 393.64352 392.528348 392.484927 0.00254037
3.30520 393.14575 392.950375 392.906568 0.002543586
3.31400 393.49677 393.372618 393.328419 0.002541317
3.32280 394.14859 393.794973 393.750376 0.002537114
3.33160 395.13034 394.217367 394.172366 0.00253081
3.34040 395.40125 394.639712 394.594301 0.002529076
3.34921 395.46701 395.061917 395.016088 0.002528656
3.35801 396.4765 395.483895 395.437642 0.002522218
3.36681 397.12717 395.905547 395.858863 0.002518085
3.37561 397.11023 396.326817 396.279696 0.002518192
3.38442 396.599 396.747604 396.700038 0.002521439
3.39322 396.21777 397.167835 397.119816 0.002523865
3.40202 396.93893 397.587414 397.538934 0.002519279
3.41082 397.48694 398.006275 397.957327 0.002515806
3.41962 398.06528 398.42434 398.374915 0.002512151
3.42843 398.08871 398.841526 398.791616 0.002512003
3.43723 398.31448 399.257742 399.207337 0.002510579
3.44603 398.45319 399.67294 399.622031 0.002509705
3.45483 398.44711 400.087033 400.035611 0.002509743
3.46363 397.63943 400.499946 400.448001 0.002514841
3.47244 398.85547 400.911594 400.859115 0.002507174
3.48124 399.72644 401.321935 401.268912 0.002501711
3.49004 399.99396 401.73088 401.677301 0.002500038
3.49884 399.9317 402.13837 402.084224 0.002500427
3.50764 399.65875 402.544335 402.489608 0.002502135
3.51645 399.63345 402.948695 402.893375 0.002502293
3.52525 399.36172 403.351413 403.295487 0.002503996
3.53405 399.64429 403.752413 403.695866 0.002502225
3.54285 400.96329 404.151635 404.094452 0.002493994
3.55166 401.9798 404.549004 404.491169 0.002487687
3.56046 402.72165 404.944489 404.885986 0.002483105
3.56926 402.68329 405.338016 405.278827 0.002483341
3.57806 402.47879 405.729539 405.669644 0.002484603
3.58686 402.84259 406.11899 406.058369 0.002482359
3.59567 403.47037 406.506331 406.444962 0.002478497
3.60447 403.72617 406.89151 406.82937 0.002476926
3.61327 403.85449 407.274474 407.211538 0.002476139
3.62207 403.56656 407.655177 407.591418 0.002477906
3.63087 403.85291 408.03356 407.968947 0.002476149
3.63968 403.94269 408.409604 408.344107 0.002475599
3.64848 404.06674 408.783251 408.716833 0.002474839
3.65728 404.79205 409.154468 409.087093 0.002470404
3.66608 405.33633 409.523207 409.45483 0.002467087
3.67489 405.73959 409.889442 409.820017 0.002464635
3.68369 406.30655 410.25314 410.182614 0.002461196
3.69249 406.89157 410.614265 410.54258 0.002457657
3.70129 406.83722 410.972777 410.899867 0.002457986
3.71009 406.99576 411.328675 411.254464 0.002457028
3.71890 406.20026 411.681922 411.606325 0.00246184
3.72770 405.51587 412.032496 411.955415 0.002465995
3.73650 405.26254 412.380383 412.301704 0.002467536
3.74530 406.0531 412.725583 412.645174 0.002462732
3.75410 407.25607 413.068081 412.985787 0.002455458
3.76291 408.17822 413.407888 413.323523 0.00244991
3.77171 407.87564 413.745011 413.658355 0.002451728
3.78051 407.78577 414.079462 413.990248 0.002452268
3.78931 408.49704 414.411302 414.319203 0.002447998
3.79811 409.61688 414.740575 414.645189 0.002441306
3.80692 410.2662 415.067367 414.968186 0.002437442
3.81572 410.14777 415.397112 415.288167 0.002438146
3.82452 409.55661 415.719389 415.605137 0.002441665
3.83332 409.58987 416.039754 415.919067 0.002441467
3.84213 409.5242 416.358707 416.229951 0.002441858
3.85093 410.08228 416.677277 416.537767 0.002438535
3.85973 410.37323 416.997898 416.842515 0.002436806
3.86853 411.66479 417.326094 417.144185 0.002429161
3.87733 411.87299 417.673027 417.442767 0.002427933
3.88614 412.63214 418.057374 417.738254 0.002423466
3.89494 414.1759 418.502886 418.03063 0.002414433
3.90374 415.888 419.027972 418.319914 0.002404494
3.91254 420.95346 419.627682 418.606088 0.00237556
3.92134 431.70337 420.25451 418.889158 0.002316405
3.93015 445.37332 420.805228 419.169115 0.002245307
3.93895 449.9115 421.148241 419.44597 0.002222659
3.94775 442.02142 421.243221 419.719725 0.002262334
3.95655 430.48001 421.193114 419.990382 0.002322988
3.96535 422.672 421.124735 420.257936 0.002365901
3.97416 419.03271 421.113248 420.522413 0.002386449
3.98296 417.29309 421.183031 420.78381 0.002396397
3.99176 416.19739 421.325057 421.042135 0.002402706
4.00056 416.02994 421.516429 421.297402 0.002403673
4.00937 415.87347 421.735139 421.549615 0.002404578
4.01817 415.44162 421.966295 421.798804 0.002407077
4.02697 414.81516 422.201821 422.044955 0.002410712
4.03577 414.58252 422.438017 422.288099 0.002412065
4.04457 414.69238 422.673313 422.528268 0.002411426
4.05338 414.77136 422.906977 422.765445 0.002410967
4.06218 415.01642 423.138666 422.999666 0.002409543
4.07098 415.42282 423.368181 423.230962 0.002407186
4.07978 415.8508 423.595355 423.459331 0.002404709
4.08858 415.65848 423.820115 423.684813 0.002405821
4.09739 415.48062 424.04237 423.907409 0.002406851
4.10619 415.74997 424.262093 424.127157 0.002405292
4.11499 416.52075 424.479203 424.344089 0.002400841
4.12379 417.2681 424.693786 424.558207 0.002396541
4.13260 417.54706 424.905792 424.769554 0.00239494
4.14140 417.94348 425.115229 424.978162 0.002392668
4.15020 417.66537 425.322085 425.18404 0.002394261
4.15900 417.78455 425.526398 425.387239 0.002393578
4.16780 418.7258 425.728163 425.587769 0.002388198
4.17661 420.23111 425.927409 425.785668 0.002379643
4.18541 420.32916 426.124173 425.98098 0.002379088
4.19421 420.16171 426.31846 426.173719 0.002380036
4.20301 419.01819 426.510317 426.363935 0.002386531
4.21181 419.14212 426.699754 426.551642 0.002385826
4.22062 419.69275 426.886814 426.736888 0.002382695
4.22942 419.91727 427.071544 426.919721 0.002381421
4.23822 420.42273 427.253952 427.100151 0.002378558
4.24702 420.35922 427.434088 427.278229 0.002378918
4.25582 420.96136 427.611998 427.454004 0.002375515
4.26463 421.49826 427.787704 427.627495 0.002372489
4.27343 422.35016 427.961261 427.798758 0.002367704
4.28223 422.39005 428.132692 427.967816 0.00236748
4.29103 422.29095 428.302049 428.134721 0.002368036
4.29984 422.90564 428.469382 428.299521 0.002364594
4.30864 423.57932 428.634716 428.462241 0.002360833
4.31744 423.83502 428.798115 428.622942 0.002359409
4.32624 424.57022 428.959607 428.781652 0.002355323
4.33504 424.28506 429.119244 428.938419 0.002356906
4.34385 423.96259 429.277082 429.093298 0.002358699
4.35265 424.63998 429.433154 429.24632 0.002354936
4.36145 425.11783 429.587513 429.397535 0.002352289
4.37025 424.46576 429.740218 429.547 0.002355903
4.37905 424.33774 429.891301 429.694744 0.002356613
4.38786 425.03409 430.064861 429.840832 0.002352752
4.39666 425.40439 430.213013 429.985293 0.002350704
4.40546 425.51074 430.359705 430.128184 0.002350117
4.41426 425.60852 430.505 430.269563 0.002349577
4.42307 426.15302 430.648936 430.409463 0.002346575
4.43187 426.68576 430.791578 430.547947 0.002343645
4.44067 426.24408 430.932968 430.685049 0.002346074
4.44947 426.39883 431.073169 430.820831 0.002345222
4.45827 426.15094 431.212243 430.955346 0.002346586
4.46708 426.14368 431.350231 431.088632 0.002346626
4.47588 426.11401 431.487199 431.220748 0.00234679
4.48468 427.11984 431.62321 431.351752 0.002341263
4.49348 427.62039 431.758309 431.48168 0.002338523
4.50228 427.93042 431.892569 431.610601 0.002336828
4.51109 428.43314 432.026036 431.738552 0.002334086
4.51989 428.21152 432.158776 431.865591 0.002335294
4.52869 427.64786 432.290858 431.991779 0.002338373
4.53749 428.82635 432.422331 432.117156 0.002331946
4.54630 429.87961 432.553268 432.241786 0.002326233
4.55510 430.09329 432.68372 432.365711 0.002325077
4.56390 429.99097 432.813758 432.48899 0.00232563
4.57270 430.54446 432.943455 432.611686 0.002322641
4.58150 430.52393 433.07286 432.733835 0.002322751
4.59031 430.91525 433.202048 432.8555 0.002320642
4.59911 431.4483 433.331094 432.976742 0.002317775
4.60791 432.30481 433.460053 433.097602 0.002313183
4.61671 432.4227 433.589005 433.218146 0.002312552
4.62551 432.72836 433.71801 433.338415 0.002310919
4.63432 432.59009 433.847146 433.458472 0.002311657
4.64312 432.78009 433.976492 433.578375 0.002310642
4.65192 432.92972 434.106108 433.698166 0.002309844
4.66072 433.96738 434.236079 433.817907 0.002304321
4.66952 433.84915 434.382544 433.937658 0.002304949
4.67833 433.86584 434.513549 434.05746 0.00230486
4.68713 434.07239 434.645152 434.177381 0.002303763
4.69593 434.80164 434.777424 434.297462 0.002299899
4.70473 435.44666 434.910453 434.417763 0.002296493
4.71354 435.99948 435.054781 434.538345 0.002293581
4.72234 435.78577 435.189654 434.659249 0.002294705
4.73114 435.56677 435.325564 434.780544 0.002295859
4.73994 435.63934 435.462589 434.902267 0.002295477
4.74874 435.78015 435.600838 435.024479 0.002294735
4.75755 435.79541 435.74042 435.147242 0.002294655
4.76635 435.86581 435.881427 435.270596 0.002294284
4.77515 435.96506 436.023976 435.394598 0.002293762
4.78395 436.57318 436.168193 435.519311 0.002290567
4.79275 437.02774 436.314184 435.644774 0.002288184
4.80156 437.61859 436.46209 435.771051 0.002285095
4.81036 437.32629 436.61203 435.898182 0.002286622
4.81916 437.34872 436.764157 436.026228 0.002286505
4.82796 437.69409 436.918628 436.155244 0.002284701
4.83676 437.53989 437.075585 436.285271 0.002285506
4.84557 437.47339 437.235219 436.416373 0.002285853
4.85437 437.5033 437.397696 436.548589 0.002285697
4.86317 438.33383 437.563218 436.681975 0.002281366
4.87197 439.42905 437.87401 436.816589 0.00227568
4.88078 439.92056 438.047119 436.95247 0.002273138
4.88958 440.00623 438.223973 437.089671 0.002272695
4.89838 439.99847 438.40486 437.228251 0.002272735
4.90718 440.47824 438.590055 437.368245 0.00227026
4.91598 440.71692 438.779912 437.509719 0.00226903
4.92479 440.69788 438.974769 437.652703 0.002269128
4.93359 440.91544 439.175042 437.797254 0.002268009
4.94239 441.39163 439.381194 437.943429 0.002265562
4.95119 441.97641 439.593705 438.091261 0.002262564
4.95999 442.60135 439.83358 438.240811 0.00225937
4.96880 443.40512 440.060718 438.39211 0.002255274
4.97760 442.67358 440.296158 438.545216 0.002259001
4.98640 442.0181 440.540739 438.700179 0.002262351
4.99520 442.23486 440.795379 438.857029 0.002261242
5.00401 443.42242 441.061191 439.015823 0.002255186
5.01281 444.55939 441.339441 439.176611 0.002249418
5.02161 444.87686 441.631579 439.339421 0.002247813
5.03041 444.55835 441.939362 439.504315 0.002249424
5.03921 444.79382 442.264784 439.671321 0.002248233
5.04802 445.71149 442.610273 439.840486 0.002243604
5.05682 446.75974 442.978708 440.011866 0.00223834
5.06562 447.54648 443.373517 440.185483 0.002234405
5.07442 447.55917 443.798926 440.3614 0.002234341
5.08322 448.09515 444.259982 440.539635 0.002231669
5.09203 448.69778 444.762995 440.72024 0.002228672
5.10083 449.30048 445.315809 440.903266 0.002225682
5.10963 450.20279 445.928161 441.088734 0.002221221
5.11843 451.06403 446.638363 441.27669 0.00221698
5.12723 451.22046 447.411334 441.467186 0.002216212
5.13604 452.61331 448.292286 441.660239 0.002209392
5.14484 455.19391 449.309136 441.855905 0.002196866
5.15364 456.91144 450.498184 442.054202 0.002188608
5.16244 458.78482 451.90912 442.255179 0.002179671
5.17125 462.19354 453.61151 442.458879 0.002163596
5.18005 468.33386 455.707662 442.665318 0.002135229
5.18885 477.047 458.367354 442.874541 0.00209623
5.19765 491.02841 461.926466 443.086597 0.002036542
5.20645 513.73901 467.154354 443.301492 0.001946514
5.21526 547.65643 475.849396 443.519286 0.001825962
5.22406 594.40332 491.767164 443.739989 0.001682359
5.23286 648.87854 521.305933 443.96364 0.00154112
5.24166 708.6073 572.440062 444.190287 0.001411219
5.25046 765.85822 650.467269 444.419935 0.001305725
5.25927 826.55963 750.904495 444.652643 0.001209834
5.26807 879.14752 851.21719 444.888408 0.001137466
5.27687 876.34863 906.740169 445.127277 0.001141098
5.28567 808.44818 879.959566 445.369292 0.001236938
5.29448 710.95276 790.514215 445.614455 0.001406563
5.30328 620.01392 686.791382 445.862803 0.001612867
5.31208 555.21729 599.753126 446.114379 0.001801097
5.32088 513.66266 539.51971 446.369184 0.001946803
5.32968 491.12878 503.473625 446.627267 0.002036126
5.33849 478.47299 483.934824 446.888626 0.002089982
5.34729 471.46655 473.658629 447.153304 0.002121041
5.35609 467.41232 467.945958 447.421333 0.002139439
5.36489 464.55365 464.398897 447.69271 0.002152604
5.37369 463.19958 461.960669 447.967487 0.002158897
5.38250 462.08994 460.181373 448.245658 0.002164081
5.39130 461.26038 458.848269 448.527254 0.002167973
5.40010 460.36169 457.840015 448.812316 0.002172205
5.40890 459.9425 457.077413 449.10083 0.002174185
5.41770 460.01044 456.504556 449.392836 0.002173864
5.42651 459.83173 456.080784 449.688363 0.002174709
5.43531 459.96313 455.776001 449.987399 0.002174087
5.44411 460.26215 455.567427 450.289994 0.002172675
5.45291 460.73703 455.437587 450.596136 0.002170435
5.46172 460.5957 455.373058 450.905851 0.002171101
5.47052 460.77585 455.363232 451.219175 0.002170253
5.47932 461.22491 455.399744 451.536092 0.00216814
5.48812 461.71225 455.475887 451.856645 0.002165851
5.49692 461.1857 455.586262 452.180815 0.002168324
5.50573 460.98999 455.726486 452.508638 0.002169244
5.51453 461.78357 455.89297 452.840136 0.002165517
5.52333 462.8761 456.082753 453.175288 0.002160405
5.53213 463.01959 456.293398 453.514124 0.002159736
5.54093 463.53314 456.522894 453.856678 0.002157343
5.54974 464.27383 456.769524 454.202913 0.002153901
5.55854 464.38562 457.03191 454.552882 0.002153383
5.56734 464.21375 457.308855 454.906558 0.00215418
5.57614 464.54599 457.599391 455.263962 0.002152639
5.58495 464.86874 457.902733 455.625124 0.002151145
5.59375 465.29407 458.218189 455.99001 0.002149178
5.60255 465.54025 458.545269 456.358674 0.002148042
5.61135 465.80838 458.883515 456.73107 0.002146806
5.62015 465.29108 459.232984 457.107228 0.002149192
5.62896 464.7562 459.59281 457.487174 0.002151666
5.63776 464.37769 459.96319 457.870873 0.00215342
5.64656 464.26761 460.344123 458.258342 0.00215393
5.65536 465.58405 460.735725 458.649609 0.00214784
5.66416 467.1514 461.138155 459.044636 0.002140634
5.67297 467.62469 461.551763 459.443461 0.002138467
5.68177 467.74548 461.976953 459.846044 0.002137915
5.69057 468.33371 462.414349 460.252411 0.00213523
5.69937 469.15622 462.864749 460.662577 0.002131486
5.70817 469.37686 463.329099 461.076499 0.002130484
5.71698 469.25555 463.808685 461.494197 0.002131035
5.72578 469.37341 464.305133 461.9157 0.0021305
5.73458 469.62988 464.820381 462.340945 0.002129336
5.74338 469.69745 465.357037 462.769984 0.00212903
5.75219 470.33664 465.918275 463.202762 0.002126137
5.76099 470.7081 466.508282 463.639306 0.002124459
5.76979 471.129 467.132459 464.079624 0.002122561
5.77859 471.58682 467.79777 464.523667 0.0021205
5.78739 472.59296 468.513617 464.971477 0.002115986
5.79620 472.93588 469.292458 465.423003 0.002114452
5.80500 473.00238 470.151479 465.878252 0.002114154
5.81380 473.81979 471.11479 466.337248 0.002110507
5.82260 475.01538 472.217541 466.799934 0.002105195
5.83140 475.82095 473.516449 467.266317 0.002101631
5.84021 477.07611 475.119729 467.73642 0.002096102
5.84901 478.46484 477.270543 468.210185 0.002090018
5.85781 480.20135 480.540317 468.687642 0.00208246
5.86661 482.70029 486.150294 469.168733 0.002071679
5.87541 487.62543 496.232649 469.653473 0.002050754
5.88422 498.25903 513.507337 470.141882 0.002006988
5.89302 523.55817 539.821438 470.63388 0.001910007
5.90182 571.44775 573.611594 471.129517 0.001749941
5.91062 630.46149 606.697689 471.628727 0.00158614
5.91943 659.90039 622.792047 472.131513 0.00151538
5.92823 634.03979 610.284693 472.637893 0.001577188
5.93703 579.39093 579.063421 473.147795 0.00172595
5.94583 533.65912 545.871765 473.661238 0.001873855
5.95463 508.17609 519.705547 474.178223 0.001967822
5.96344 496.34811 502.626914 474.698679 0.002014715
5.97224 490.71851 492.992029 475.222648 0.002037828
5.98104 487.59366 488.081132 475.75006 0.002050888
5.98984 485.332 485.677362 476.280912 0.002060445
5.99864 483.8808 484.477674 476.815224 0.002066625
6.00745 483.22665 483.863203 477.352919 0.002069422
6.01625 482.39539 483.56971 477.894028 0.002072988
6.02505 482.43024 483.481173 478.438475 0.002072839
6.03385 482.66534 483.537885 478.986276 0.002071829
6.04266 482.96341 483.703456 479.537428 0.00207055
6.05146 483.77127 483.953373 480.091854 0.002067093
6.06026 485.02161 484.270379 480.649562 0.002061764
6.06906 486.10934 484.642141 481.210569 0.00205715
6.07786 486.20432 485.059702 481.774774 0.002056748
6.08667 486.27869 485.516727 482.342225 0.002056434
6.09547 486.6048 486.008713 482.912834 0.002055056
6.10427 486.77197 486.532758 483.486614 0.00205435
6.11307 487.02805 487.087228 484.063561 0.00205327
6.12187 487.75681 487.671605 484.643592 0.002050202
6.13068 488.10861 488.286651 485.226745 0.002048724
6.13948 488.41974 488.934297 485.812936 0.002047419
6.14828 488.86658 489.618 486.402159 0.002045548
6.15708 489.22055 490.343154 486.994426 0.002044068
6.16589 489.49374 491.147869 487.589651 0.002042927
6.17469 490.5061 491.983126 488.187825 0.002038711
6.18349 492.43903 492.95794 488.788963 0.002030708
6.19229 494.02881 493.973694 489.392975 0.002024173
6.20109 494.73083 495.135789 489.999886 0.002021301
6.20990 496.47919 496.532396 490.609607 0.002014183
6.21870 499.87848 498.368517 491.222142 0.002000486
6.22750 504.22443 501.117275 491.837503 0.001983244
6.23630 510.00345 505.728672 492.455578 0.001960771
6.24510 519.25092 513.702188 493.076378 0.001925851
6.25391 532.703 526.64176 493.699914 0.001877219
6.26271 550.69769 545.047402 494.326071 0.001815878
6.27151 570.94727 566.505 494.954896 0.001751475
6.28031 583.86353 583.538635 495.586286 0.001712729
6.28911 583.46808 585.515882 496.220252 0.00171389
6.29792 565.80933 571.339232 496.856784 0.00176738
6.30672 542.45166 551.187659 497.495785 0.001843482
6.31552 523.54254 533.351784 498.137295 0.001910064
6.32432 512.16669 520.861622 498.781214 0.001952489
6.33313 506.10959 513.515551 499.427532 0.001975857
6.34193 502.94858 509.778722 500.076259 0.001988275
6.35073 501.19989 508.091608 500.727296 0.001995212
6.35953 500.62289 507.419498 501.380631 0.001997512
6.36833 500.78421 507.232283 502.036273 0.001996868
6.37714 500.97754 507.297036 502.694123 0.001996097
6.38594 500.9841 507.513923 503.354203 0.001996071
6.39474 501.19 507.834743 504.016414 0.001995251
6.40354 502.18289 508.231611 504.680755 0.001991306
6.41234 502.99603 508.686211 505.347239 0.001988087
6.42115 502.92227 509.185641 506.015738 0.001988379
6.42995 502.71344 509.720694 506.6863 0.001989205
6.43875 502.68954 510.284495 507.358814 0.001989299
6.44755 503.48682 510.871987 508.033288 0.001986149
6.45636 504.39377 511.479333 508.709709 0.001982578
6.46516 505.17752 512.103521 509.387972 0.001979502
6.47396 505.181 512.742313 510.068086 0.001979489
6.48276 505.65503 513.393962 510.750038 0.001977633
6.49156 506.38699 514.057023 511.433721 0.001974774
6.50037 506.74481 514.730501 512.119175 0.00197338
6.50917 507.82977 515.413503 512.806292 0.001969164
6.51797 508.1091 516.105476 513.49506 0.001968081
6.52677 508.64362 516.805917 514.185487 0.001966013
6.53557 509.09958 517.514493 514.877464 0.001964252
6.54438 510.24411 518.231091 515.571017 0.001959846
6.55318 510.88345 518.95558 516.266038 0.001957394
6.56198 511.4765 519.688061 516.962526 0.001955124
6.57078 511.92984 520.468838 517.660491 0.001953393
6.57958 512.78033 521.21819 518.359801 0.001950153
6.58839 513.96918 521.976457 519.060463 0.001945642
6.59719 514.54236 522.744279 519.76248 0.001943475
6.60599 514.07251 523.522348 520.465741 0.001945251
6.61479 514.41705 524.311703 521.17027 0.001943948
6.62360 515.11981 525.113511 521.875958 0.001941296
6.63240 516.08179 525.938088 522.582814 0.001937677
6.64120 516.68909 526.770015 523.290822 0.0019354
6.65000 517.67828 527.620331 523.999871 0.001931702
6.65880 518.22473 528.492212 524.710002 0.001929665
6.66761 519.00055 529.389504 525.421105 0.00192678
6.67641 519.83459 530.317252 526.133164 0.001923689
6.68521 520.85834 531.28205 526.846187 0.001919908
6.69401 520.73853 532.292413 527.560064 0.00192035
6.70281 521.16772 533.359724 528.274779 0.001918768
6.71162 522.33496 534.499441 528.990342 0.00191448
6.72042 524.06732 535.732685 529.70664 0.001908152
6.72922 524.3161 537.08927 530.423698 0.001907246
6.73802 525.77051 538.612642 531.141405 0.001901971
6.74682 527.37262 540.372288 531.859762 0.001896192
6.75563 529.69177 542.497486 532.578777 0.00188789
6.76443 531.89276 545.272407 533.298315 0.001880078
6.77323 535.23859 549.362066 534.018384 0.001868326
6.78203 540.24323 556.188742 534.738987 0.001851018
6.79084 549.7984 568.225658 535.460009 0.001818849
6.79964 566.36047 588.578237 536.181479 0.00176566
6.80844 599.41302 619.191826 536.903281 0.001668299
6.81724 659.32239 657.638699 537.625428 0.001516709
6.82604 725.05933 692.774051 538.347903 0.001379197
6.83485 761.56317 704.067657 539.070595 0.001313089
6.84365 727.62885 682.757602 539.793545 0.001374327
6.85245 658.86041 645.831421 540.516642 0.001517772
6.86125 603.86072 611.200942 541.239871 0.001656011
6.87005 571.65283 586.101928 541.963242 0.001749313
6.87886 557.69879 570.828036 542.686643 0.001793083
6.88766 549.54437 562.686338 543.41006 0.001819689
6.89646 544.51611 558.685536 544.133503 0.001836493
6.90526 542.51874 556.762122 544.856852 0.001843254
6.91407 541.94666 555.833051 545.580158 0.0018452
6.92287 541.22906 555.416766 546.303285 0.001847647
6.93167 540.7182 555.306254 547.026244 0.001849392
6.94047 540.83978 555.402045 547.749038 0.001848976
6.94927 541.92859 555.647033 548.471554 0.001845262
6.95808 542.45892 556.003925 549.193821 0.001843458
6.96688 542.60815 556.446813 549.915727 0.001842951
6.97568 543.94867 556.957172 550.637283 0.001838409
6.98448 545.01617 557.521459 551.358476 0.001834808
6.99328 545.52814 558.12957 552.079197 0.001833086
7.00209 546.03339 558.773963 552.799455 0.00183139
7.01089 547.11224 559.44885 553.519239 0.001827779
7.01969 548.24866 560.149651 554.238438 0.00182399
7.02849 548.80457 560.872835 554.957097 0.001822142
7.03729 550.14978 561.615316 555.675106 0.001817687
7.04610 551.69739 562.374238 556.392453 0.001812588
7.05490 554.06519 563.14612 557.10915 0.001804842
7.06370 554.43695 563.92474 557.825088 0.001803632
7.07250 556.34454 564.697642 558.540296 0.001797447
7.08131 559.01764 565.441405 559.254665 0.001788852
7.09011 561.8421 566.122264 559.9682 0.00177986
7.09891 563.51727 566.70954 560.680914 0.001774569
7.10771 567.22174 567.206118 561.392675 0.001762979
7.11651 571.64154 567.695467 562.103496 0.001749348
7.12532 574.75903 568.387432 562.813382 0.00173986
7.13412 576.73102 569.480709 563.522226 0.001733911
7.14292 576.01367 570.871132 564.230059 0.00173607
7.15172 575.18945 572.323284 564.936773 0.001738558
7.16052 573.54498 573.715796 565.642382 0.001743542
7.16933 572.48175 575.028647 566.346878 0.001746781
7.17813 571.94153 576.290655 567.050153 0.00174843
7.18693 571.63043 577.544008 567.752254 0.001749382
7.19573 572.11206 578.824199 568.453077 0.001747909
7.20453 572.45911 580.156754 569.152612 0.00174685
7.21334 573.13788 581.561191 569.850874 0.001744781
7.22214 573.91101 583.055665 570.54776 0.00174243
7.23094 575.31018 584.6609 571.24326 0.001738193
7.23974 577.59125 586.402374 571.93739 0.001731328
7.24855 579.69092 588.31214 572.630039 0.001725057
7.25735 582.70117 590.432467 573.321263 0.001716146
7.26615 584.80792 592.818751 574.010935 0.001709963
7.27495 587.75214 595.550489 574.699072 0.001701397
7.28375 592.12677 598.723092 575.385682 0.001688828
7.29256 597.64386 602.486511 576.070663 0.001673237
7.30136 604.48291 607.056395 576.75401 0.001654306
7.31016 613.19769 612.780333 577.435738 0.001630795
7.31896 624.71484 620.312316 578.115748 0.00160073
7.32777 642.04102 631.102507 578.794072 0.001557533
7.33657 665.99225 648.490603 579.470612 0.001501519
7.34537 702.51257 679.422057 580.145384 0.001423462
7.35417 751.54553 735.465925 580.818384 0.001330591
7.36297 832.66827 830.10126 581.489513 0.001200958
7.37178 933.70135 969.745869 582.15882 0.001071006
7.38058 1045.3492 1138.256378 582.826209 0.000956618
7.38938 1134.5316 1275.31439 583.491674 0.000881421
7.39818 1195.5797 1287.683092 584.155234 0.000836414
7.40698 1203.1915 1165.473803 584.816793 0.000831123
7.41579 1144.3064 998.57465 585.476349 0.000873892
7.42459 1075.493 855.011102 586.133918 0.000929806
7.43339 967.57098 755.97642 586.7894 0.001033516
7.44219 853.80548 697.238611 587.442851 0.001171227
7.45099 770.16461 665.640439 588.094158 0.001298424
7.45980 705.4325 649.035553 588.743337 0.00141757
7.46860 673.40179 639.824476 589.390403 0.001484998
7.47740 652.67316 634.26139 590.035263 0.00153216
7.48620 639.3559 630.717016 590.677952 0.001564074
7.49501 631.39478 628.475365 591.318381 0.001583795
7.50381 626.53381 627.174963 591.956569 0.001596083
7.51261 625.66528 626.605072 592.592514 0.001598299
7.52141 624.80695 626.635085 593.226129 0.001600494
7.53021 623.70056 627.185526 593.857433 0.001603333
7.53902 624.1037 628.214825 594.486427 0.001602298
7.54782 626.22394 629.713107 595.113022 0.001596873
7.55662 628.53796 631.700266 595.73727 0.001590994
7.56542 630.67584 634.228341 596.359084 0.001585601
7.57422 634.46283 637.388675 596.978464 0.001576136
7.58303 639.41138 641.32929 597.595431 0.001563938
7.59183 646.05042 646.29445 598.209896 0.001547867
7.60063 654.8399 652.736202 598.821914 0.001527091
7.60943 665.68933 661.621143 599.431383 0.001502202
7.61823 682.04303 675.13416 600.038324 0.001466183
7.62704 706.42297 697.797624 600.642752 0.001415583
7.63584 746.30286 737.221146 601.244587 0.001339939
7.64464 808.047 802.595571 601.84383 0.001237552
7.65344 905.12585 899.264702 602.440505 0.001104819
7.66225 1032.5779 1019.113577 603.034532 0.00096845
7.67105 1155.3748 1126.692199 603.625948 0.00086552
7.67985 1206.7759 1164.813352 604.214674 0.000828654
7.68865 1172.283 1129.980204 604.800735 0.000853036
7.69745 1108.9067 1083.819768 605.384134 0.000901789
7.70626 1075.2572 1064.47429 605.964794 0.00093001
7.71506 1058.5819 1058.761871 606.542765 0.00094466
7.72386 1028.0271 1024.460422 607.117974 0.000972737
7.73266 964.80066 953.617088 607.690424 0.001036484
7.74146 887.25543 878.317651 608.260139 0.001127071
7.75027 822.5564 821.047042 608.827047 0.001215722
7.75907 781.50659 787.312705 609.391153 0.00127958
7.76787 760.23627 774.067835 609.952482 0.001315381
7.77667 755.12457 776.007478 610.510955 0.001324285
7.78548 763.05676 789.126816 611.06663 0.001310518
7.79428 784.28363 812.187113 611.619418 0.001275049
7.80308 815.17804 847.178593 612.169344 0.001226726
7.81188 868.80853 901.066893 612.716427 0.001151002
7.82068 946.02222 991.069777 613.2606 0.001057058
7.82949 1077.6954 1153.912696 613.801869 0.000927906
7.83829 1320.7147 1452.648154 614.340261 0.000757166
7.84709 1769.7969 1964.650216 614.875709 0.000565037
7.85589 2680.9275 2735.169872 615.408251 0.000373005
7.86469 3887.0542 3692.003351 615.937823 0.000257264
7.87350 4842.6816 4516.537739 616.464452 0.000206497
7.88230 4822.501 4661.728456 616.988145 0.000207361
7.89110 3970.8098 4003.518377 617.50884 0.000251838
7.89990 2887.844 3049.241747 618.026587 0.000346279
7.90870 2119.5667 2218.550189 618.541326 0.000471795
7.91751 1647.7305 1651.300239 619.053065 0.000606895
7.92631 1411.9691 1337.364745 619.561832 0.000708231
7.93511 1272.167 1213.739088 620.067561 0.00078606
7.94391 1245.834 1216.331714 620.57028 0.000802675
7.95272 1268.7117 1289.514032 621.069999 0.000788201
7.96152 1297.8021 1364.450885 621.566661 0.000770534
7.97032 1303.423 1352.855171 622.060316 0.000767211
7.97912 1234.2178 1234.522264 622.550907 0.00081023
7.98792 1103.0947 1080.393726 623.038447 0.00090654
7.99673 982.35443 947.87469 623.522963 0.001017963
8.00553 873.92603 854.639496 624.004428 0.001144262
8.01433 803.10535 797.09562 624.482773 0.001245167
8.02313 760.51331 764.263775 624.958107 0.001314901
8.03193 735.06091 746.005751 625.430373 0.001360431
8.04074 721.62177 735.989094 625.899519 0.001385768
8.04954 715.91974 731.279806 626.365638 0.001396805
8.05834 715.48407 731.166199 626.82868 0.001397655
8.06714 720.76617 736.765794 627.288594 0.001387413
8.07594 732.57446 751.853304 627.745474 0.001365049
8.08475 756.23981 784.420999 628.199269 0.001322332
8.09355 800.88757 847.073726 628.649933 0.001248615
8.10235 882.12494 953.002624 629.097556 0.001133626
8.11115 1035.1729 1105.253408 629.542092 0.000966022
8.11996 1232.9185 1278.473881 629.98354 0.000811084
8.12876 1365.3263 1395.328156 630.421855 0.000732426
8.13756 1338.2521 1365.434485 630.857127 0.000747243
8.14636 1180.2396 1214.628547 631.289311 0.000847286
8.15516 1019.4733 1040.45802 631.718365 0.000980899
8.16397 902.0741 899.520654 632.144378 0.001108556
8.17277 822.61444 805.131411 632.567306 0.001215636
8.18157 772.54584 749.342681 632.987109 0.001294422
8.19037 740.76508 718.294722 633.403874 0.001349956
8.19917 719.17896 700.638988 633.817562 0.001390474
8.20798 706.22638 689.656401 634.228127 0.001415977
8.21678 696.08728 682.089552 634.635671 0.001436601
8.22558 689.06976 676.490889 635.040142 0.001451232
8.23438 683.56696 672.17868 635.441546 0.001462914
8.24319 680.12958 668.779809 635.839844 0.001470308
8.25199 676.8504 666.057483 636.235134 0.001477431
8.26079 674.71613 663.853906 636.627366 0.001482105
8.26959 672.7168 662.047738 637.016506 0.00148651
8.27839 671.86328 660.557825 637.402646 0.001488398
8.28720 671.18329 659.321093 637.785753 0.001489906
8.29600 671.03571 658.290318 638.16578 0.001490234
8.30480 670.38867 657.428532 638.542824 0.001491672
8.31360 669.95886 656.707255 638.916847 0.001492629
8.32240 669.17316 656.103915 639.287819 0.001494382
8.33121 668.6842 655.600181 639.655822 0.001495474
8.34001 668.11389 655.181481 640.020824 0.001496751
8.34881 667.8313 654.835828 640.382835 0.001497384
8.35761 668.02661 654.553393 640.741823 0.001496946
8.36641 668.66516 654.325859 641.097871 0.001495517
8.37522 669.01031 654.146411 641.450951 0.001494745
8.38402 668.62286 654.009284 641.801034 0.001495611
8.39282 668.28882 653.913563 642.148201 0.001496359
8.40162 667.87555 653.84699 642.492425 0.001497285
8.41043 667.8772 653.810021 642.833681 0.001497281
8.41923 668.27979 653.799564 643.172048 0.001496379
8.42803 668.40906 653.81294 643.5075 0.00149609
8.43683 668.16254 653.847845 643.840014 0.001496642
8.44563 668.30164 653.902293 644.169668 0.00149633
8.45444 668.61407 653.974532 644.496439 0.001495631
8.46324 668.6972 654.063066 644.820337 0.001495445
8.47204 668.72015 654.166596 645.141341 0.001495394
8.48084 668.23523 654.284048 645.459527 0.001496479
8.48964 667.78033 654.414471 645.774875 0.001497498
8.49845 667.40216 654.557104 646.087363 0.001498347
8.50725 666.61102 654.712674 646.397069 0.001500125
8.51605 666.34143 654.878211 646.703971 0.001500732
8.52485 666.52039 655.054756 647.008053 0.001500329
8.53366 666.60571 655.24239 647.309388 0.001500137
8.54246 665.56702 655.4414 647.607959 0.001502478
8.55126 665.20825 655.652438 647.903744 0.001503289
8.56006 666.11322 655.87677 648.196829 0.001501246
8.56886 666.62561 656.116318 648.487186 0.001500092
8.57767 665.85052 656.374238 648.774833 0.001501839
8.58647 665.77161 656.656001 649.059751 0.001502017
8.59527 666.31213 656.972638 649.342022 0.001500798
8.60407 667.37469 657.348544 649.621623 0.001498409
8.61287 667.75568 657.837796 649.89854 0.001497554
8.62168 668.5907 658.545288 650.17285 0.001495683
8.63048 669.96332 659.631134 650.444541 0.001492619
8.63928 671.96466 661.257806 650.713591 0.001488174
8.64808 672.9751 663.459822 650.98008 0.001485939
8.65689 674.75458 665.911903 651.243993 0.00148202
8.66569 677.22498 667.626603 651.505319 0.001476614
8.67449 678.89752 667.465577 651.764128 0.001472976
8.68329 677.42511 665.788947 652.02041 0.001476178
8.69209 673.83759 663.859476 652.274181 0.001484037
8.70090 670.11639 662.375009 652.525431 0.001492278
8.70970 667.88416 661.479365 652.77423 0.001497266
8.71850 666.24365 661.065572 653.020569 0.001500952
8.72730 664.46405 660.960838 653.264441 0.001504972
8.73610 663.02264 661.025269 653.505911 0.001508244
8.74491 663.18298 661.178573 653.744974 0.001507879
8.75371 663.6745 661.377282 653.981622 0.001506763
8.76251 663.77399 661.605801 654.215923 0.001506537
8.77131 663.26636 661.865064 654.44787 0.00150769
8.78011 663.31464 662.13268 654.677458 0.00150758
8.78892 663.32031 662.415148 654.904752 0.001507567
8.79772 662.995 662.710902 655.129747 0.001508307
8.80652 663.46204 663.019011 655.352462 0.001507245
8.81532 663.49854 663.353507 655.572895 0.001507162
8.82413 663.7074 663.685293 655.791108 0.001506688
8.83293 663.08575 664.028959 656.007098 0.001508101
8.84173 662.58496 664.384803 656.220864 0.00150924
8.85053 663.24188 664.753401 656.432467 0.001507746
8.85933 664.09515 665.15028 656.641907 0.001505808
8.86814 664.28577 665.546682 656.849181 0.001505376
8.87694 664.30621 665.958471 657.054353 0.00150533
8.88574 664.87628 666.38681 657.25742 0.001504039
8.89454 664.63184 666.833097 657.45838 0.001504592
8.90334 664.77545 667.299 657.657301 0.001504267
8.91215 664.73907 667.788319 657.854178 0.00150435
8.92095 665.09021 668.299124 658.049031 0.001503555
8.92975 665.29266 668.835763 658.24186 0.001503098
8.93855 665.04144 669.401025 658.432733 0.001503666
8.94736 665.2757 669.997915 658.621643 0.001503136
8.95616 665.91235 670.629971 658.808592 0.001501699
8.96496 666.53522 671.30127 658.993645 0.001500296
8.97376 666.54999 672.020522 659.176802 0.001500263
8.98256 667.03241 672.78487 659.358061 0.001499178
8.99137 666.867 673.604731 659.537487 0.001499549
9.00017 666.65942 674.487152 659.715081 0.001500016
9.00897 666.96899 675.440558 659.890845 0.00149932
9.01777 667.71234 676.47488 660.064838 0.001497651
9.02657 668.83124 677.601646 660.237063 0.001495145
9.03538 669.58337 678.834521 660.407543 0.001493466
9.04418 670.81201 680.189911 660.576282 0.001490731
9.05298 671.30396 681.687574 660.743337 0.001489638
9.06178 671.7677 683.350993 660.908712 0.00148861
9.07058 672.40771 685.209049 661.072413 0.001487193
9.07939 674.59509 687.297213 661.234496 0.001482371
9.08819 677.48633 689.658999 661.394967 0.001476045
9.09699 680.09277 692.348459 661.553831 0.001470388
9.10579 682.51508 695.434916 661.711143 0.001465169
9.11460 685.69812 699.005416 661.866911 0.001458368
9.12340 689.93488 703.17202 662.02114 0.001449412
9.13220 694.41736 708.083056 662.173885 0.001440056
9.14100 700.5271 713.933171 662.325152 0.001427497
9.14980 709.25873 720.984303 662.474951 0.001409923
9.15861 720.6142 729.600059 662.623332 0.001387705
9.16741 734.21796 740.291762 662.770305 0.001361993
9.17621 752.83411 753.82574 662.915892 0.001328314
9.18501 779.57776 771.461395 663.060102 0.001282746
9.19381 814.78467 795.576268 663.202986 0.001227318
9.20262 866.27545 831.031206 663.344554 0.001154367
9.21142 942.72321 887.64205 663.484813 0.001060757
9.22022 1057.3822 983.188998 663.623815 0.000945732
9.22902 1231.5676 1144.42659 663.76157 0.000811973
9.23782 1489.2306 1401.976368 663.898085 0.000671488
9.24663 1833.047 1773.141577 664.033416 0.00054554
9.25543 2211.8809 2223.380048 664.167567 0.000452104
9.26423 2555.2681 2636.367334 664.300548 0.000391348
9.27303 2792.3003 2885.532211 664.432412 0.000358128
9.28184 2817.5916 2859.285987 664.563168 0.000354913
9.29064 2545.4436 2508.396801 664.692838 0.000392859
9.29944 2078.5232 2011.592441 664.821432 0.000481111
9.30824 1613.4227 1566.848227 664.949 0.0006198
9.31704 1271.0316 1245.442299 665.075555 0.000786763
9.32585 1059.7129 1041.560712 665.201102 0.000943652
9.33465 923.81372 922.251675 665.325693 0.001082469
9.34345 842.07739 853.80207 665.449339 0.001187539
9.35225 788.16895 812.55469 665.572049 0.001268764
9.36105 753.98163 785.375321 665.693873 0.001326292
9.36986 730.8623 765.950532 665.81482 0.001368247
9.37866 715.3078 751.323203 665.934902 0.001398
9.38746 703.83643 739.970724 666.054166 0.001420785
9.39626 695.8468 730.995448 666.172623 0.001437098
9.40507 689.60352 723.803044 666.290297 0.001450109
9.41387 684.81195 717.978757 666.407198 0.001460255
9.42267 682.30548 713.221729 666.523374 0.001465619
9.43147 679.703 709.313263 666.638836 0.001471231
9.44027 677.56073 706.089917 666.753594 0.001475882
9.44908 676.43127 703.427431 666.867696 0.001478347
9.45788 675.44043 701.232348 666.981152 0.001480515
9.46668 674.18988 699.433009 667.093974 0.001483262
9.47548 672.92108 697.973842 667.206208 0.001486058
9.48428 672.2002 696.813184 667.317866 0.001487652
9.49309 672.13861 695.919715 667.428958 0.001487788
9.50189 672.24017 695.270413 667.53953 0.001487564
9.51069 672.62695 694.850139 667.649594 0.001486708
9.51949 672.94916 694.650296 667.759172 0.001485996
9.52829 673.28375 694.668668 667.868275 0.001485258
9.53710 674.23901 694.909457 667.976949 0.001483154
9.54590 675.14868 695.383808 668.085204 0.001481155
9.55470 675.9212 696.110553 668.193053 0.001479462
9.56350 677.00201 697.118169 668.300539 0.0014771
9.57231 678.53253 698.446604 668.407674 0.001473769
9.58111 680.04163 700.150873 668.514468 0.001470498
9.58991 682.17114 702.328031 668.620968 0.001465908
9.59871 685.854 705.041935 668.727183 0.001458036
9.60751 691.24561 708.460138 668.833122 0.001446664
9.61632 697.05377 712.792444 668.938833 0.00143461
9.62512 704.86646 718.33588 669.044327 0.001418708
9.63392 715.9483 725.524155 669.149622 0.001396749
9.64272 730.73779 735.04295 669.25473 0.00136848
9.65152 751.14447 748.160301 669.359696 0.001331302
9.66033 780.23694 767.544426 669.464531 0.001281662
9.66913 820.03333 798.987414 669.569242 0.001219463
9.67793 877.86816 853.597689 669.673876 0.001139123
9.68673 965.43658 947.909801 669.778442 0.001035801
9.69553 1094.8141 1098.831149 669.88295 0.000913397
9.70434 1275.2104 1311.46763 669.987443 0.000784184
9.71314 1486.8152 1557.268154 670.091932 0.000672579
9.72194 1643.1837 1741.929696 670.196426 0.000608575
9.73074 1694.3639 1736.855721 670.300968 0.000590192
9.73955 1589.5376 1549.496192 670.405567 0.000629114
9.74835 1404.0514 1312.625101 670.510245 0.000712225
9.75715 1227.8534 1117.824616 670.615011 0.000814429
9.76595 1089.8156 993.840372 670.719907 0.000917586
9.77475 1002.2342 937.77223 670.824943 0.000997771
9.78356 956.58429 933.051262 670.930128 0.001045386
9.79236 933.99005 956.19243 671.035503 0.001070675
9.80116 922.60358 974.453526 671.141078 0.001083889
9.80996 909.40216 955.636991 671.246862 0.001099624
9.81876 887.76324 902.875321 671.352896 0.001126426
9.82757 862.58289 843.651507 671.45919 0.001159309
9.83637 832.31622 794.919442 671.565751 0.001201466
9.84517 806.26392 760.759944 671.672621 0.001240289
9.85397 783.24713 739.17591 671.779808 0.001276736
9.86278 769.17169 726.256828 671.887332 0.0013001
9.87158 759.0777 718.522078 671.9952 0.001317388
9.88038 756.29352 713.721178 672.103453 0.001322238
9.88918 756.45386 710.689251 672.2121 0.001321958
9.89798 760.00085 708.904912 672.321148 0.001315788
9.90679 764.49323 708.175826 672.430636 0.001308056
9.91559 770.57141 708.509297 672.540574 0.001297738
9.92439 778.55554 710.125931 672.650966 0.00128443
9.93319 786.61945 713.643894 672.761857 0.001271263
9.94199 794.8111 720.474508 672.87325 0.001258161
9.95080 805.63373 733.353 672.985151 0.001241259
9.95960 823.07709 756.526572 673.097603 0.001214953
9.96840 843.31152 794.710997 673.210613 0.001185801
9.97720 868.56799 850.199615 673.324196 0.00115132
9.98600 893.66858 917.60658 673.438357 0.001118983
9.99481 922.30353 975.342727 673.553138 0.001084242
10.00361 932.12762 986.823467 673.668551 0.001072814
10.01241 921.58636 942.079418 673.784581 0.001085086
10.02121 885.91113 873.768065 673.901297 0.001128781
10.03002 842.21515 811.356713 674.018676 0.001187345
10.03882 799.18701 765.394873 674.136732 0.001251272
10.04762 767.13409 735.766575 674.255524 0.001303553
10.05642 741.07507 718.226012 674.375026 0.001349391
10.06522 723.05847 708.086538 674.495269 0.001383014
10.07403 709.6214 701.957985 674.616268 0.001409202
10.08283 700.47504 697.91718 674.738053 0.001427603
10.09163 693.52972 695.024559 674.860611 0.001441899
10.10043 688.6402 692.838476 674.983959 0.001452137
10.10923 684.44818 691.133383 675.108152 0.001461031
10.11804 681.69604 689.77871 675.233164 0.001466929
10.12684 679.47119 688.687942 675.359024 0.001471733
10.13564 678.026 687.800712 675.485748 0.00147487
10.14444 677.45557 687.073284 675.613363 0.001476112
10.15325 676.79364 686.473596 675.741841 0.001477555
10.16205 676.06726 685.977197 675.871239 0.001479143
10.17085 675.18976 685.565543 676.001573 0.001481065
10.17965 674.37549 685.224456 676.132812 0.001482853
10.18845 674.03784 684.942526 676.265028 0.001483596
10.19726 674.08722 684.710955 676.398191 0.001483488
10.20606 674.14984 684.522639 676.532345 0.00148335
10.21486 674.17932 684.371843 676.667457 0.001483285
10.22366 674.70001 684.253898 676.803586 0.00148214
10.23246 675.15814 684.165001 676.940745 0.001481134
10.24127 675.1402 684.108649 677.0789 0.001481174
10.25007 674.4751 684.069142 677.218128 0.001482634
10.25887 673.96765 684.050936 677.358392 0.001483751
10.26767 674.48108 684.052337 677.499721 0.001482621
10.27647 675.0296 684.076292 677.642128 0.001481417
10.28528 675.09399 684.113012 677.785624 0.001481275
10.29408 675.14197 684.166005 677.930221 0.00148117
10.30288 675.77063 684.234621 678.075931 0.001479792
10.31168 676.82629 684.318485 678.222782 0.001477484
10.32048 677.06665 684.417354 678.370735 0.001476959
10.32929 676.75641 684.53129 678.519868 0.001477637
10.33809 678.16864 684.660487 678.670143 0.001474559
10.34689 679.0647 684.80544 678.821586 0.001472614
10.35569 678.992 684.9669 678.974208 0.001472771
10.36450 678.80334 685.145898 679.12802 0.001473181
10.37330 679.31354 685.351603 679.283049 0.001472074
10.38210 680.52875 685.568326 679.439254 0.001469446
10.39090 681.97717 685.810598 679.596714 0.001466325
10.39971 683.42102 686.079383 679.755387 0.001463227
10.40851 684.56812 686.405505 679.915281 0.001460775
10.41731 686.86017 686.741331 680.07646 0.0014559
10.42611 690.02075 687.119969 680.238879 0.001449232
10.43491 693.77826 687.551059 680.402566 0.001441383
10.44371 698.64514 688.047068 680.567529 0.001431342
10.45252 704.36859 688.625072 680.733797 0.001419711
10.46132 710.41925 689.308737 680.901339 0.00140762
10.47012 716.58954 690.1323 681.070164 0.001395499
10.47892 721.91956 691.150291 681.240338 0.001385196
10.48773 727.49115 692.458011 681.411812 0.001374587
10.49653 731.99225 694.248184 681.584612 0.001366135
10.50533 735.15308 696.92071 681.758746 0.001360261
10.51413 735.00708 701.248798 681.934221 0.001360531
10.52293 734.14227 708.502564 682.111046 0.001362134
10.53174 734.98828 720.287933 682.289227 0.001360566
10.54054 738.41174 737.881637 682.468792 0.001354258
10.54934 742.78235 760.89949 682.649686 0.001346289
10.55814 747.26184 785.08686 682.831999 0.001338219
10.56695 750.46716 799.901146 683.015674 0.001332503
10.57575 749.6889 795.077546 683.20074 0.001333887
10.58455 744.31213 775.117727 683.387201 0.001343522
10.59335 737.21002 752.515289 683.575064 0.001356466
10.60215 729.55621 734.609567 683.764357 0.001370696
10.61096 723.80701 723.287606 683.955021 0.001381584
10.61976 721.03113 717.450628 684.147147 0.001386903
10.62856 717.90552 714.410819 684.340675 0.001392941
10.63736 713.13293 711.337775 684.535634 0.001402263
10.64616 707.2373 707.416605 684.732027 0.001413953
10.65497 702.17993 703.528644 684.929859 0.001424136
10.66377 698.29602 700.384725 685.129136 0.001432057
10.67257 695.44788 698.157542 685.329861 0.001437922
10.68137 693.73694 696.735999 685.532063 0.001441469
10.69017 692.96893 695.903595 685.735698 0.001443066
10.69898 692.90045 695.453978 685.940795 0.001443209
10.70778 692.82391 695.238171 686.147357 0.001443368
10.71658 692.36658 695.170449 686.355387 0.001444322
10.72538 691.82526 695.200422 686.56489 0.001445452
10.73419 692.15033 695.305064 686.775868 0.001444773
10.74299 693.3125 695.470234 686.988349 0.001442351
10.75179 693.26642 695.688619 687.202263 0.001442447
10.76059 692.92603 695.951169 687.417711 0.001443155
10.76939 692.39716 696.255391 687.634621 0.001444258
10.77820 692.81451 696.600149 687.852996 0.001443388
10.78700 693.39343 696.983124 688.072913 0.001442183
10.79580 693.98242 697.404679 688.2943 0.001440959
10.80460 694.43378 697.865944 688.517208 0.001440022
10.81340 695.41284 698.36855 688.741564 0.001437995
10.82221 696.14221 698.915492 688.967445 0.001436488
10.83101 696.8692 699.513883 689.194853 0.00143499
10.83981 698.4126 700.162165 689.423713 0.001431818
10.84861 699.79932 700.870458 689.654128 0.001428981
10.85741 699.8374 701.649079 689.886023 0.001428903
10.86622 700.39355 702.504065 690.119424 0.001427769
10.87502 701.20856 703.451221 690.354332 0.001426109
10.88382 702.49426 704.5079 690.590748 0.001423499
10.89262 703.79504 705.69693 690.828672 0.001420868
10.90142 704.94812 707.048201 691.068104 0.001418544
10.91023 707.13403 708.603416 691.309072 0.001414159
10.91903 708.63599 710.421269 691.551521 0.001411162
10.92783 710.94928 712.5961 691.795479 0.00140657
10.93663 713.80975 715.290536 692.040945 0.001400934
10.94544 718.79456 718.804425 692.287919 0.001391218
10.95424 724.26611 723.680048 692.5364 0.001380708
10.96304 731.05615 730.816073 692.786387 0.001367884
10.97184 739.68817 741.537463 693.037909 0.001351921
10.98064 752.9472 757.507966 693.290878 0.001328114
10.98945 772.0235 780.387748 693.545408 0.001295297
10.99825 797.03052 810.68244 693.801411 0.001254657
11.00705 824.26544 845.904125 694.058915 0.001213201
11.01585 849.47729 881.780137 694.317918 0.001177195
11.02465 873.19989 915.480216 694.578418 0.001145213
11.03346 889.50793 938.359632 694.840444 0.001124217
11.04226 892.65112 932.82687 695.103903 0.001120258
11.05106 878.28741 895.667865 695.368914 0.001138579
11.05986 853.68396 846.87846 695.635384 0.001171394
11.06867 827.01794 806.277134 695.90334 0.001209164
11.07747 807.04517 782.401641 696.172781 0.001239088
11.08627 793.83252 774.115388 696.443703 0.001259712
11.09507 789.80359 776.973705 696.716103 0.001266138
11.10387 794.20764 788.221308 696.98998 0.001259117
11.11268 810.52161 808.4703 697.26536 0.001233773
11.12148 842.03729 842.593274 697.542147 0.001187596
11.13028 897.38446 900.106363 697.820432 0.00111435
11.13908 986.60266 993.65108 698.10021 0.001013579
11.14789 1131.6779 1133.932041 698.381417 0.000883644
11.15669 1339.5885 1320.768094 698.664078 0.000746498
11.16549 1557.743 1527.818894 698.948191 0.000641954
11.17429 1684.9611 1682.254611 699.233784 0.000593486
11.18309 1643.8982 1689.034181 699.520756 0.00060831
11.19190 1455.2565 1544.200872 699.809199 0.000687164
11.20070 1236.4343 1340.823009 700.09911 0.000808777
11.20950 1054.554 1154.970083 700.390386 0.000948268
11.21830 935.48273 1015.293223 700.683154 0.001068967
11.22710 863.04492 923.32562 700.97731 0.001158688
11.23591 822.44855 868.952405 701.272883 0.001215882
11.24471 799.79004 839.785301 701.569867 0.001250328
11.25351 789.49274 826.242474 701.868258 0.001266636
11.26231 787.64099 822.932481 702.168084 0.001269614
11.27111 794.03204 828.286576 702.469238 0.001259395
11.27992 811.04626 844.010816 702.771852 0.001232975
11.28872 843.38928 875.083072 703.075817 0.001185692
11.29752 897.94812 929.829281 703.381162 0.00111365
11.30632 988.86761 1018.73914 703.687881 0.001011258
11.31513 1122.4333 1150.361983 703.995968 0.000890922
11.32393 1310.1005 1322.398432 704.305418 0.0007633
11.33273 1531.0979 1511.685692 704.616225 0.000653126
11.34153 1735.2057 1672.797615 704.928418 0.000576301
11.35033 1850.9159 1738.513439 705.241884 0.000540273
11.35914 1779.9083 1656.629611 705.556759 0.000561827
11.36794 1552.5726 1469.229452 705.872931 0.000644092
11.37674 1287.6617 1264.236689 706.190428 0.000776601
11.38554 1089.9889 1093.390554 706.509243 0.000917441
11.39434 971.52716 970.824178 706.829371 0.001029307
11.40315 905.21741 892.132661 707.15084 0.001104707
11.41195 865.61987 846.161998 707.473535 0.001155242
11.42075 843.14093 821.759936 707.797595 0.001186041
11.42955 827.80951 810.593916 708.122903 0.001208007
11.43835 820.93744 806.804186 708.449451 0.00121812
11.44716 817.19202 805.19763 708.777344 0.001223703
11.45596 813.06366 800.371589 709.106463 0.001229916
11.46476 806.72174 790.135866 709.436837 0.001239585
11.47356 795.70557 777.298152 709.76846 0.001256746
11.48237 784.24908 765.321613 710.101361 0.001275105
11.49117 772.20526 755.750376 710.43542 0.001294992
11.49997 761.69257 748.810029 710.770742 0.001312866
11.50877 753.27313 744.127272 711.107321 0.00132754
11.51757 748.36945 741.187421 711.445071 0.001336238
11.52638 745.02759 739.614723 711.784023 0.001342232
11.53518 743.49396 739.2869 712.124169 0.001345001
11.54398 743.25 740.301125 712.46554 0.001345442
11.55278 743.98517 742.802674 712.808012 0.001344113
11.56158 744.72095 746.732879 713.151692 0.001342785
11.57039 744.71912 751.449837 713.496573 0.001342788
11.57919 744.97931 755.224244 713.842528 0.001342319
11.58799 744.43793 755.573947 714.189708 0.001343295
11.59679 742.12384 751.881417 714.537984 0.001347484
11.60559 738.8421 746.260167 714.887389 0.001353469
11.61440 736.33014 740.841733 715.237913 0.001358086
11.62320 734.68237 736.574596 715.589547 0.001361132
11.63200 733.5058 733.619947 715.942324 0.001363316
11.64080 732.68805 731.769677 716.296114 0.001364837
11.64961 732.13232 730.701118 716.651069 0.001365873
11.65841 731.68945 730.128791 717.00706 0.0013667
11.66721 731.30023 729.858071 717.364118 0.001367427
11.67601 731.29755 729.779733 717.722233 0.001367432
11.68481 731.2901 729.839959 718.081397 0.001367446
11.69362 732.07855 730.015565 718.441602 0.001365974
11.70242 732.79486 730.298973 718.802837 0.001364638
11.71122 733.72809 730.692616 719.165135 0.001362903
11.72002 733.97369 731.207416 719.528363 0.001362447
11.72883 734.93835 731.86531 719.892677 0.001360658
11.73763 736.89545 732.706223 720.257944 0.001357045
11.74643 739.2644 733.80801 720.624195 0.001352696
11.75523 741.35791 735.326536 720.991422 0.001348876
11.76403 743.38202 737.556667 721.359614 0.001345203
11.77284 747.60413 741.064562 721.728805 0.001337606
11.78164 754.24237 746.658839 722.09886 0.001325834
11.79044 765.02026 755.320735 722.469936 0.001307155
11.79924 782.17151 767.805284 722.841897 0.001278492
11.80804 808.12781 783.990185 723.214735 0.001237428
11.81685 840.85803 801.783038 723.588567 0.001189261
11.82565 859.15753 815.696098 723.963255 0.001163931
11.83445 855.88202 818.53116 724.338833 0.001168385
11.84325 833.62286 809.280582 724.715291 0.001199583
11.85206 810.12927 794.217257 725.092662 0.001234371
11.86086 787.67731 778.938314 725.470851 0.001269555
11.86966 776.13361 766.091837 725.849847 0.001288438
11.87846 765.7406 756.674985 726.22977 0.001305925
11.88726 760.84552 750.556608 726.610482 0.001314327
11.89607 756.69537 747.010431 726.992015 0.001321536
11.90487 755.13574 745.241279 727.374359 0.001324265
11.91367 753.79816 744.676042 727.757548 0.001326615
11.92247 754.28528 745.003058 728.141442 0.001325758
11.93127 754.70953 746.188784 728.526162 0.001325013
11.94008 756.74084 748.497066 728.911697 0.001321456
11.94888 760.25488 752.544917 729.297906 0.001315348
11.95768 765.15533 759.317733 729.684956 0.001306924
11.96648 774.69171 769.985804 730.072704 0.001290836
11.97528 787.27539 785.421543 730.461228 0.001270204
11.98409 801.66962 805.376024 730.850386 0.001247397
11.99289 815.52319 827.172426 731.240301 0.001226207
12.00169 824.24719 844.006773 731.630962 0.001213228
12.01049 821.87744 846.812093 732.022227 0.001216726
12.01929 816.03369 833.889879 732.414264 0.00122544
12.02810 803.42889 813.282943 732.806928 0.001244665
12.03690 792.77869 793.013529 733.200255 0.001261386
12.04570 783.45648 776.789151 733.594234 0.001276395
12.05450 775.07208 765.411545 733.988856 0.001290203
12.06330 769.96289 758.214183 734.38411 0.001298764
12.07211 765.97986 754.040616 734.779987 0.001305517
12.08091 761.64417 751.809018 735.176522 0.001312949
12.08971 757.81494 750.767076 735.573614 0.001319583
12.09851 756.80371 750.538845 735.971299 0.001321347
12.10732 756.18939 751.027067 736.369566 0.00132242
12.11612 757.70288 752.361514 736.768406 0.001319779
12.12492 760.44977 754.82182 737.16781 0.001315011
12.13372 764.8009 758.719813 737.567766 0.00130753
12.14252 770.75806 764.186127 737.968311 0.001297424
12.15133 778.27161 770.89287 738.369297 0.001284898
12.16013 785.18542 777.581354 738.770899 0.001273585
12.16893 787.24707 781.705145 739.172968 0.001270249
12.17773 782.53528 780.941646 739.575494 0.001277898
12.18653 775.58014 776.025788 739.978607 0.001289357
12.19534 769.17072 769.734661 740.382157 0.001300101
12.20414 764.50671 764.074693 740.786227 0.001308033
12.21294 760.6142 759.830939 741.19067 0.001314727
12.22174 757.9776 757.064674 741.595659 0.0013193
12.23055 756.88782 755.503721 742.001047 0.0013212
12.23935 756.60852 754.780899 742.406824 0.001321687
12.24815 756.26001 754.575053 742.813119 0.001322297
12.25695 755.92395 754.58901 743.219783 0.001322884
12.26575 756.47638 754.797597 743.626854 0.001321918
12.27456 757.6593 755.028525 744.034321 0.001319854
12.28336 758.91821 755.202656 744.442221 0.001317665
12.29216 760.11896 755.279484 744.850406 0.001315584
12.30096 762.06537 755.301352 745.259005 0.001312223
12.30977 764.07147 755.431344 745.668009 0.001308778
12.31857 766.41315 756.095016 746.077316 0.001304779
12.32737 769.2179 757.880061 746.486962 0.001300022
12.33617 771.67023 761.130206 746.896938 0.00129589
12.34497 774.09241 765.843494 747.307281 0.001291835
12.35378 777.54724 772.129317 747.717842 0.001286095
12.36258 781.60144 780.231975 748.128752 0.001279424
12.37138 787.24103 790.2357 748.540001 0.001270259
12.38018 793.65173 801.570786 748.951441 0.001259999
12.38898 799.23383 812.346772 749.363248 0.001251198
12.39779 803.57129 819.123197 749.775274 0.001244445
12.40659 805.80487 819.500308 750.187556 0.001240995
12.41539 806.56219 815.406981 750.600085 0.00123983
12.42419 808.44684 810.953518 751.012852 0.00123694
12.43299 813.17731 809.16605 751.425847 0.001229744
12.44180 819.85675 811.72779 751.839063 0.001219725
12.45060 829.76276 819.564257 752.252537 0.001205164
12.45940 843.60925 833.185241 752.666166 0.001185383
12.46820 861.07581 852.731079 753.079988 0.001161338
12.47701 882.26678 877.536684 753.493995 0.001133444
12.48581 907.72742 906.003372 753.908178 0.001101652
12.49461 936.9552 937.955232 754.322528 0.001067287
12.50341 976.51093 975.994531 754.737037 0.001024054
12.51221 1024.1183 1020.399127 755.151742 0.00097645
12.52102 1067.0966 1063.155351 755.566495 0.000937122
12.52982 1099.0004 1089.091135 755.981475 0.000909918
12.53862 1110.9399 1091.945414 756.396532 0.000900139
12.54742 1106.3958 1086.820405 756.811658 0.000903836
12.55622 1111.028 1094.372897 757.226986 0.000900067
12.56503 1127.344 1124.831717 757.642366 0.000887041
12.57383 1157.1575 1174.809706 758.057885 0.000864187
12.58263 1203.4049 1225.687178 758.473392 0.000830976
12.59143 1235.2762 1248.447359 758.889068 0.000809536
12.60023 1232.9321 1230.71752 759.304763 0.000811075
12.60904 1203.6306 1194.303085 759.72047 0.00083082
12.61784 1168.5184 1169.240157 760.136322 0.000855785
12.62664 1163.5479 1170.938527 760.552169 0.00085944
12.63544 1184.8186 1197.595471 760.968051 0.000844011
12.64424 1215.3445 1229.852271 761.38396 0.000822812
12.65305 1216.9757 1235.2301 761.799936 0.000821709
12.66185 1175.822 1194.237903 762.215828 0.000850469
12.67065 1104.3718 1121.898751 762.631771 0.000905492
12.67945 1030.3453 1045.686792 763.047758 0.000970548
12.68826 973.73511 982.634601 763.463686 0.001026973
12.69706 938.22546 938.390713 763.879596 0.001065842
12.70586 920.69147 911.482751 764.295479 0.00108614
12.71466 915.2995 895.982185 764.711375 0.001092539
12.72346 910.87366 884.066716 765.127136 0.001097847
12.73227 899.87476 870.859221 765.542896 0.001111266
12.74107 882.46765 857.161105 765.958648 0.001133186
12.74987 863.76837 846.080068 766.374242 0.001157718
12.75867 848.98163 839.989591 766.789862 0.001177882
12.76747 840.51953 840.269344 767.205357 0.00118974
12.77628 839.99121 847.384618 767.620769 0.001190489
12.78508 847.54547 860.651355 768.03609 0.001179878
12.79388 859.66772 877.578874 768.451314 0.00116324
12.80268 872.0625 892.734302 768.866481 0.001146707
12.81148 874.39087 898.093344 769.281442 0.001143653
12.82029 866.20178 889.194227 769.69638 0.001154465
12.82909 850.89227 870.382013 770.111147 0.001175237
12.83789 835.30945 849.219709 770.525783 0.001197161
12.84669 820.9624 830.494453 770.940282 0.001218083
12.85550 810.2641 815.984055 771.354638 0.001234166
12.86430 802.29309 805.745405 771.768843 0.001246427
12.87310 796.98425 798.994721 772.182892 0.00125473
12.88190 793.14246 794.713774 772.596826 0.001260808
12.89070 790.18414 792.010042 773.010497 0.001265528
12.89951 787.79834 790.246789 773.424087 0.00126936
12.90831 785.93689 789.044457 773.83745 0.001272367
12.91711 783.73663 788.191759 774.250626 0.001275939
12.92591 782.03766 787.576495 774.663609 0.001278711
12.93472 781.10687 787.13625 775.076394 0.001280235
12.94352 781.03058 786.832721 775.489022 0.00128036
12.95232 780.86395 786.641127 775.901345 0.001280633
12.96112 780.56342 786.544097 776.313547 0.001281126
12.96992 780.75043 786.52956 776.725481 0.001280819
12.97873 781.04767 786.589827 777.137141 0.001280332
12.98753 782.11383 786.721912 777.548663 0.001278586
12.99633 782.55475 786.928744 777.9599 0.001277866
13.00513 782.93408 787.223511 778.370894 0.001277247
13.01393 783.75818 787.636745 778.78164 0.001275904
13.02274 785.2204 788.226156 779.192179 0.001273528
13.03154 786.69116 789.084557 779.602413 0.001271147
13.04034 788.69293 790.335524 780.012337 0.001267921
13.04914 791.1955 792.107441 780.422085 0.00126391
13.05795 794.2135 794.475328 780.831513 0.001259107
13.06675 797.99811 797.378188 781.240663 0.001253136
13.07555 801.6496 800.491037 781.649529 0.001247428
13.08435 804.90564 803.071119 782.058153 0.001242382
13.09315 808.28082 804.116296 782.466392 0.001237194
13.10196 810.22131 803.250365 782.87438 0.001234231
13.11076 809.41772 801.20067 783.282112 0.001235456
13.11956 807.06445 798.983814 783.689444 0.001239058
13.12836 803.46826 797.231285 784.096559 0.001244604
13.13716 800.03137 796.194014 784.503311 0.001249951
13.14597 796.45166 795.882821 784.90979 0.001255569
13.15477 793.99518 796.154243 785.315853 0.001259453
13.16357 793.29724 796.749699 785.721633 0.001260562
13.17237 792.927 797.330598 786.127127 0.00126115
13.18117 792.62482 797.645452 786.532193 0.001261631
13.18998 792.72791 797.761648 786.93701 0.001261467
13.19878 793.66968 797.968581 787.341437 0.00125997
13.20758 795.25598 798.506806 787.745515 0.001257457
13.21638 796.90363 799.464608 788.149241 0.001254857
13.22518 798.43738 800.758123 788.552611 0.001252446
13.23399 800.19928 802.092559 788.955622 0.001249689
13.24279 802.19202 802.967644 789.358269 0.001246584
13.25159 803.26074 802.985327 789.760594 0.001244926
13.26039 803.83838 802.269058 790.162504 0.001244031
13.26920 805.67273 801.280475 790.564039 0.001241199
13.27800 805.60986 800.382308 790.965197 0.001241296
13.28680 803.93762 799.742764 791.365974 0.001243878
13.29560 800.82379 799.398095 791.766367 0.001248714
13.30440 798.71704 799.315808 792.166372 0.001252008
13.31321 795.66724 799.435644 792.566033 0.001256807
13.32201 794.09106 799.702009 792.965208 0.001259301
13.33081 794.24902 800.054416 793.364078 0.001259051
13.33961 795.02966 800.467739 793.762502 0.001257815
13.34841 794.80371 800.92444 794.160478 0.001258172
13.35722 794.2356 801.416333 794.558139 0.001259072
13.36602 794.83435 801.940721 794.955346 0.001258124
13.37482 796.01959 802.499438 795.352186 0.00125625
13.38362 797.28735 803.098218 795.748522 0.001254253
13.39243 798.55737 803.751502 796.144531 0.001252258
13.40123 799.99054 804.466737 796.540075 0.001250015
13.41003 801.71808 805.264252 796.935153 0.001247321
13.41883 803.31567 806.158347 797.329895 0.001244841
13.42763 805.92725 807.151311 797.724165 0.001240807
13.43644 809.09369 808.222394 798.118005 0.001235951
13.44524 812.29004 809.311177 798.511413 0.001231087
13.45404 813.78308 810.316598 798.904431 0.001228829
13.46284 814.14233 811.139794 799.296924 0.001228286
13.47164 813.35382 811.819469 799.689021 0.001229477
13.48045 812.23627 812.478241 800.080722 0.001231169
13.48925 810.66071 813.223399 800.471891 0.001233562
13.49805 809.51532 814.116337 800.862702 0.001235307
13.50685 808.43494 815.187019 801.253022 0.001236958
13.51566 808.10962 816.451001 801.642936 0.001237456
13.52446 808.43756 817.919624 802.032311 0.001236954
13.53326 809.00342 819.610733 802.421276 0.001236089
13.54206 810.00122 821.553246 802.809829 0.001234566
13.55086 812.15582 823.792136 803.197837 0.001231291
13.55967 814.17822 826.394703 803.585475 0.001228232
13.56847 816.52228 829.457237 803.972607 0.001224706
13.57727 819.83801 833.126045 804.359277 0.001219753
13.58607 824.26605 837.640038 804.745482 0.001213201
13.59487 830.255 843.424639 805.131222 0.001204449
13.60368 837.91846 851.256941 805.516495 0.001193434
13.61248 847.55078 862.534592 805.901298 0.00117987
13.62128 862.03296 879.573151 806.285675 0.001160048
13.63008 884.09125 905.777041 806.669536 0.001131105
13.63889 917.95007 945.372725 807.052924 0.001089384
13.64769 975.12836 1002.404697 807.435837 0.001025506
13.65649 1065.0001 1078.961192 807.818274 0.000938967
13.66529 1195.9518 1172.524339 808.200234 0.000836154
13.67409 1343.5554 1272.287995 808.581715 0.000744294
13.68290 1458.849 1354.552593 808.962759 0.000685472
13.69170 1468.2169 1386.523952 809.343236 0.000681098
13.70050 1381.5608 1351.677675 809.723316 0.000723819
13.70930 1243.4509 1268.670556 810.10287 0.000804213
13.71810 1114.5864 1170.229134 810.481897 0.000897194
13.72691 1018.3508 1079.102843 810.860524 0.00098198
13.73571 953.10675 1005.456503 811.238621 0.0010492
13.74451 911.06323 951.412602 811.616274 0.001097619
13.75331 883.6532 914.775878 811.993352 0.001131666
13.76211 866.57471 891.486868 812.370026 0.001153969
13.77092 855.94635 877.467238 812.746166 0.001168298
13.77972 850.23969 869.525878 813.121773 0.001176139
13.78852 847.70831 865.507296 813.496972 0.001179651
13.79732 847.92743 864.110333 813.871636 0.001179346
13.80612 851.09125 864.642184 814.245806 0.001174962
13.81493 856.77856 866.563685 814.61948 0.001167163
13.82373 864.43719 869.557 814.992702 0.001156822
13.83253 874.62134 873.892659 815.365343 0.001143352
13.84133 887.45325 880.891343 815.737529 0.00112682
13.85014 905.27606 892.567214 816.10926 0.001104635
13.85894 929.87274 910.850205 816.48045 0.001075416
13.86774 963.34558 936.938677 816.851141 0.001038049
13.87654 1004.7876 970.458618 817.221332 0.000995235
13.88534 1048.1591 1008.255006 817.591065 0.000954054
13.89415 1083.6747 1043.466326 817.960213 0.000922786
13.90295 1100.4783 1067.51112 818.328902 0.000908696
13.91175 1098.1088 1073.878679 818.69713 0.000910657
13.92055 1075.7003 1059.671191 819.064773 0.000929627
13.92935 1039.0265 1028.089412 819.431996 0.000962439
13.93816 992.31818 988.554496 819.798674 0.001007741
13.94696 948.87488 950.215358 820.164847 0.00105388
13.95576 912.51617 918.068681 820.530516 0.001095871
13.96456 886.15942 893.600281 820.89568 0.001128465
13.97337 868.78949 876.313095 821.260381 0.001151027
13.98217 857.26044 864.828824 821.624492 0.001166507
13.99097 850.47321 857.555669 821.98818 0.001175816
13.99977 846.63153 853.143182 822.35132 0.001181151
14.00857 844.4823 850.639647 822.713953 0.001184157
14.01738 843.74841 849.514264 823.076079 0.001185187
14.02618 844.73395 849.589533 823.437696 0.001183805
14.03498 847.2287 850.958432 823.798806 0.001180319
14.04378 850.97614 853.895056 824.159407 0.001175121
14.05259 856.25128 858.73062 824.51954 0.001167881
14.06139 864.40051 865.684494 824.879082 0.001156871
14.07019 874.09607 874.65389 825.238196 0.001144039
14.07899 884.96558 884.900982 825.596759 0.001129987
14.08779 896.95801 894.663948 825.954812 0.001114879
14.09660 907.97101 901.079682 826.312355 0.001101357
14.10540 915.13226 901.784684 826.669386 0.001092738
14.11420 915.81641 897.279419 827.025947 0.001091922
14.12300 911.23462 890.280388 827.381915 0.001097412
14.13180 902.63422 883.106011 827.737452 0.001107868
14.14061 893.89954 876.764554 828.092437 0.001118694
14.14941 884.56653 871.593811 828.446869 0.001130497
14.15821 877.0639 868.063659 828.800868 0.001140168
14.16701 872.17255 866.865622 829.154315 0.001146562
14.17581 871.12872 868.709186 829.507247 0.001147936
14.18462 873.66309 874.299771 829.859666 0.001144606
14.19342 880.74188 884.278284 830.211611 0.001135406
14.20222 892.76038 898.969452 830.563001 0.001120121
14.21102 910.24268 917.940855 830.913837 0.001098608
14.21983 928.02112 939.394535 831.264238 0.001077562
14.22863 944.36688 959.295872 831.614083 0.00105891
14.23743 951.91675 971.209308 831.963412 0.001050512
14.24623 947.93835 969.539863 832.312225 0.001054921
14.25503 937.37445 954.899144 832.660521 0.00106681
14.26384 923.77362 933.421881 833.008301 0.001082516
14.27264 909.67065 911.259291 833.355563 0.001099299
14.28144 896.84113 892.048625 833.702348 0.001115025
14.29024 885.21857 877.247239 834.048535 0.001129665
14.29904 874.94885 866.848416 834.394282 0.001142924
14.30785 867.39502 860.066337 834.739471 0.001152877
14.31665 861.69922 855.891377 835.084141 0.001160498
14.32545 856.81091 853.398851 835.428291 0.001167119
14.33425 853.33069 851.958466 835.771921 0.001171879
14.34305 850.64252 851.126057 836.115069 0.001175582
14.35186 848.45306 850.66623 836.457618 0.001178616
14.36066 847.47687 850.465153 836.799723 0.001179973
14.36946 847.52551 850.47277 837.141267 0.001179905
14.37826 847.90424 850.665561 837.482288 0.001179378
14.38706 848.22723 851.021641 837.822786 0.001178929
14.39587 849.66089 851.505528 838.162759 0.00117694
14.40467 850.78552 852.052911 838.502209 0.001175384
14.41347 851.32587 852.564021 838.841133 0.001174638
14.42227 851.29132 852.93844 839.17957 0.001174686
14.43108 851.1842 853.17234 839.517443 0.001174834
14.43988 850.80768 853.343652 839.854788 0.001175354
14.44868 850.33038 853.54902 840.191606 0.001176013
14.45748 849.91571 853.85069 840.527896 0.001176587
14.46628 849.57678 854.278756 840.863656 0.001177057
14.47509 849.44666 854.843311 841.198887 0.001177237
14.48389 849.54858 855.544485 841.533625 0.001177096
14.49269 849.56372 856.379145 841.867756 0.001177075
14.50149 850.19879 857.347258 842.20143 0.001176196
14.51029 850.10205 858.454592 842.534534 0.001176329
14.51910 850.90814 859.715195 842.867066 0.001175215
14.52790 852.74316 861.154384 843.199139 0.001172686
14.53670 855.03778 862.810262 843.530639 0.001169539
14.54550 857.22485 864.744377 843.861602 0.001166555
14.55430 860.03143 867.058264 844.192028 0.001162748
14.56311 863.51581 869.926368 844.521915 0.001158056
14.57191 867.78857 873.651477 844.851301 0.001152354
14.58071 873.43799 878.730329 845.180071 0.001144901
14.58951 881.11029 885.930353 845.508374 0.001134932
14.59832 889.91431 896.292969 845.836098 0.001123704
14.60712 902.42755 911.055815 846.163278 0.001108122
14.61592 919.46606 931.397053 846.489913 0.001087588
14.62472 942.7782 958.035082 846.816002 0.001060695
14.63352 975.02136 990.690274 847.141544 0.001025619
14.64233 1016.6241 1027.255279 847.466538 0.000983648
14.65113 1057.3511 1062.763662 847.791019 0.00094576
14.65993 1082.4656 1089.526853 848.114876 0.000923817
14.66873 1086.5472 1101.720033 848.438254 0.000920347
14.67754 1079.1227 1100.895974 848.761042 0.000926679
14.68634 1071.1854 1093.466828 849.083275 0.000933545
14.69514 1065.7015 1083.422096 849.404952 0.000938349
14.70394 1057.6213 1069.774501 849.726071 0.000945518
14.71274 1044.3737 1049.862694 850.046667 0.000957512
14.72155 1024.0217 1024.505355 850.36663 0.000976542
14.73035 1000.0431 998.044396 850.686104 0.000999957
14.73915 979.75806 974.611859 851.004977 0.00102066
14.74795 961.83228 956.414286 851.323286 0.001039682
14.75675 952.04431 944.243788 851.641028 0.001050371
14.76556 949.61768 938.245932 851.958201 0.001053055
14.77436 954.75946 938.452297 852.274804 0.001047384
14.78316 965.41394 945.11198 852.590835 0.001035825
14.79196 984.43451 958.859321 852.906328 0.001015812
14.80077 1012.3262 980.663814 853.221211 0.000987824
14.80957 1053.7196 1011.575966 853.53548 0.000949019
14.81837 1106.5365 1052.35585 853.849242 0.000903721
14.82717 1177.119 1102.885979 854.162387 0.000849532
14.83597 1250.9828 1161.273137 854.474949 0.000799372
14.84478 1320.7035 1223.232955 854.786927 0.000757172
14.85358 1378.1309 1284.414654 855.098354 0.00072562
14.86238 1427.1766 1346.064637 855.409121 0.000700684
14.87118 1491.2788 1415.297504 855.719333 0.000670565
14.87998 1586.2305 1496.743094 856.028987 0.000630425
14.88879 1686.402 1584.234598 856.337976 0.000592978
14.89759 1763.0447 1656.676073 856.646438 0.000567201
14.90639 1757.8976 1682.49111 856.954266 0.000568861
14.91519 1658.5631 1641.130172 857.261527 0.000602932
14.92399 1523.291 1543.255318 857.568115 0.000656473
14.93280 1374.5731 1419.249952 857.874132 0.000727499
14.94160 1257.8989 1295.855254 858.179575 0.000794976
14.95040 1171.8027 1188.204124 858.484339 0.000853386
14.95920 1109.848 1102.217306 858.788559 0.000901024
14.96800 1064.1104 1038.120179 859.092129 0.000939752
14.97681 1029.5699 992.888436 859.395081 0.000971279
14.98561 1000.3727 962.150113 859.697413 0.000999627
14.99441 976.97406 941.598267 859.999122 0.001023569
15.00321 958.43701 927.730499 860.300206 0.001043365
15.01201 942.27325 918.064095 860.600662 0.001061263
15.02082 929.1142 911.019041 860.900522 0.001076294
15.02962 918.32111 905.654232 861.199714 0.001088944
15.03842 909.31403 901.428919 861.498271 0.00109973
15.04722 901.59198 898.027032 861.796189 0.001109149
15.05603 895.76379 895.255928 862.093466 0.001116366
15.06483 891.30109 892.988557 862.390099 0.001121955
15.07363 888.14172 891.134237 862.686085 0.001125946
15.08243 885.80878 889.627339 862.981456 0.001128912
15.09123 883.93219 888.41837 863.276106 0.001131309
15.10004 882.04132 887.470255 863.570169 0.001133734
15.10884 881.30017 886.756909 863.863539 0.001134687
15.11764 880.7392 886.261662 864.156215 0.00113541
15.12644 880.66827 885.978318 864.448293 0.001135501
15.13524 881.05176 885.913908 864.739671 0.001135007
15.14405 881.35669 886.096387 865.030411 0.001134614
15.15285 882.48724 886.585521 865.320412 0.001133161
15.16165 884.0835 887.491852 865.609802 0.001131115
15.17045 886.00031 888.995824 865.89848 0.001128668
15.17925 888.34869 891.360999 866.186442 0.001125684
15.18806 891.65436 894.930557 866.473783 0.001121511
15.19686 896.06836 900.078281 866.760403 0.001115986
15.20566 901.60669 907.132194 867.04633 0.001109131
15.21446 906.02454 916.244697 867.331561 0.001103723
15.22327 910.73352 927.229483 867.616125 0.001098016
15.23207 915.86615 939.318166 867.899923 0.001091863
15.24087 922.46967 950.878165 868.183046 0.001084046
15.24967 928.4389 959.54133 868.465493 0.001077077
15.25848 934.9538 963.526955 868.747195 0.001069572
15.26728 939.18152 963.169856 869.028181 0.001064757
15.27608 943.72339 960.239747 869.308447 0.001059633
15.28488 948.84265 955.945701 869.588021 0.001053916
15.29368 953.51062 950.145649 869.866806 0.001048756
15.30249 956.2431 942.233698 870.144892 0.001045759
15.31129 958.56299 932.781967 870.422277 0.001043228
15.32009 958.37024 923.997821 870.69886 0.001043438
15.32889 959.49164 918.638731 870.974766 0.001042219
15.33769 961.00928 918.851112 871.249896 0.001040573
15.34650 962.67731 925.39243 871.524278 0.00103877
15.35530 966.77924 937.529982 871.797907 0.001034362
15.36410 974.05481 953.490048 872.070781 0.001026636
15.37290 984.52405 970.639853 872.342927 0.001015719
15.38170 994.38647 985.421612 872.614248 0.001005645
15.39051 999.05603 994.388523 872.884864 0.001000945
15.39931 997.45557 996.443882 873.154678 0.001002551
15.40811 992.43262 993.363169 873.423718 0.001007625
15.41691 984.50012 987.400417 873.691979 0.001015744
15.42572 975.75067 979.451066 873.959459 0.001024852
15.43452 965.2514 969.586318 874.226153 0.001036
15.44332 955.44781 958.619957 874.492057 0.00104663
15.45212 947.79901 948.280699 874.757197 0.001055076
15.46092 942.93835 940.050301 875.02148 0.001060515
15.46973 938.71088 934.349011 875.285022 0.001065291
15.47853 935.09631 930.842367 875.547728 0.001069409
15.48733 933.38605 929.367801 875.809624 0.001071368
15.49613 932.40881 930.359102 876.070708 0.001072491
15.50493 935.3689 934.471104 876.330974 0.001069097
15.51374 940.84283 942.165345 876.590449 0.001062877
15.52254 949.70935 953.518706 876.84904 0.001052954
15.53134 961.69696 968.039336 877.10686 0.001039829
15.54014 977.55408 984.335949 877.363818 0.001022961
15.54894 990.94104 999.809178 877.61991 0.001009142
15.55775 998.87939 1011.174287 877.875219 0.001001122
15.56655 1000.1877 1016.440699 878.129653 0.000999812
15.57535 998.94604 1016.366036 878.383239 0.001001055
15.58415 997.297 1012.846674 878.635971 0.00100271
15.59296 998.00311 1006.549448 878.887875 0.001002001
15.60176 997.36993 996.771838 879.13886 0.001002637
15.61056 994.92639 983.312767 879.389009 0.001005099
15.61936 986.81122 967.718987 879.638316 0.001013365
15.62816 973.52942 952.258779 879.886722 0.00102719
15.63697 958.89514 938.554495 880.134251 0.001042867
15.64577 944.98682 927.329266 880.380898 0.001058216
15.65457 931.83087 918.692409 880.626688 0.001073156
15.66337 921.31439 912.416276 880.871532 0.001085406
15.67217 913.24994 908.110267 881.115511 0.00109499
15.68098 908.0387 905.347528 881.35862 0.001101275
15.68978 904.80206 903.750443 881.600772 0.001105214
15.69858 901.94861 903.039143 881.842073 0.001108711
15.70738 900.60895 903.054803 882.082437 0.00111036
15.71618 901.11652 903.757815 882.321888 0.001109734
15.72499 902.80768 905.212417 882.560421 0.001107656
15.73379 905.85114 907.56358 882.798033 0.001103934
15.74259 910.43311 911.006333 883.034746 0.001098378
15.75139 916.29309 915.741201 883.270475 0.001091354
15.76020 924.5733 921.932029 883.505325 0.00108158
15.76900 934.56158 929.620638 883.73921 0.00107002
15.77780 949.02698 938.620039 883.972154 0.001053711
15.78660 962.10272 948.385088 884.204153 0.00103939
15.79540 972.16272 958.112932 884.435202 0.001028634
15.80421 977.1106 967.299833 884.665299 0.001023426
15.81301 983.28473 976.160543 884.894438 0.001016999
15.82181 988.52045 985.059839 885.122643 0.001011613
15.83061 994.48401 993.532414 885.349831 0.001005547
15.83942 994.49854 1000.194778 885.576102 0.001005532
15.84822 990.54987 1003.87942 885.801375 0.00100954
15.85702 980.81793 1004.728792 886.025672 0.001019557
15.86582 972.1178 1003.495975 886.248989 0.001028682
15.87462 964.45367 1000.123988 886.471323 0.001036856
15.88343 958.17487 993.773001 886.692695 0.001043651
15.89223 953.12189 984.34821 886.913025 0.001049184
15.90103 948.27112 973.359979 887.132411 0.001054551
15.90983 943.40869 963.046263 887.350773 0.001059986
15.91863 940.57288 955.229 887.568109 0.001063182
15.92744 938.75824 951.040436 887.784489 0.001065237
15.93624 939.72498 951.062126 887.999835 0.001064141
15.94504 942.78601 955.40842 888.214169 0.001060686
15.95384 949.11322 963.70562 888.427487 0.001053615
15.96265 959.44373 974.977665 888.639809 0.001042271
15.97145 971.06085 987.518051 888.851085 0.001029802
15.98025 983.20844 998.807521 889.06131 0.001017078
15.98905 992.04492 1005.721931 889.270554 0.001008019
15.99785 993.07977 1005.646147 889.478741 0.001006968
16.00665 986.88428 998.319484 889.685891 0.00101329
16.01546 975.99152 986.188928 889.892002 0.001024599
16.02426 961.81512 972.568616 890.097094 0.001039701
16.03306 948.71228 960.0335 890.301117 0.00105406
16.04186 938.94702 950.115879 890.504091 0.001065023
16.05066 931.33154 943.53513 890.705989 0.001073731
16.05947 928.28186 940.427762 890.906856 0.001077259
16.06827 928.58032 940.488319 891.106688 0.001076913
16.07707 931.07813 943.048862 891.305435 0.001074024
16.08588 934.93756 947.093015 891.503142 0.00106959
16.09468 939.12018 951.217771 891.699759 0.001064826
16.10348 941.90222 953.76503 891.895262 0.001061681
16.11228 941.6759 953.487537 892.089759 0.001061936
16.12108 937.59802 950.383573 892.28316 0.001066555
16.12989 933.1178 945.595806 892.475504 0.001071676
16.13869 929.41211 940.473634 892.666746 0.001075949
16.14749 927.67358 935.942429 892.856927 0.001077965
16.15629 926.19257 932.415092 893.046001 0.001079689
16.16509 927.15436 929.883658 893.233944 0.001078569
16.17390 928.90802 928.01273 893.420862 0.001076533
16.18270 929.97491 926.416877 893.606665 0.001075298
16.19150 929.93951 924.838612 893.791394 0.001075339
16.20030 929.0556 923.333174 893.975006 0.001076362
16.20911 928.20178 922.108305 894.157538 0.001077352
16.21790 926.99084 921.370797 894.338908 0.001078759
16.22671 926.62384 921.298786 894.519215 0.001079187
16.23551 927.3186 922.076659 894.698438 0.001078378
16.24431 929.8158 923.927678 894.876532 0.001075482
16.25312 932.63342 927.133311 895.053538 0.001072233
16.26192 937.22083 932.022886 895.229412 0.001066984
16.27072 944.03613 938.927632 895.404193 0.001059281
16.27952 953.31592 948.083306 895.577801 0.00104897
16.28832 964.01904 959.51024 895.750332 0.001037324
16.29713 978.09003 972.840412 895.921765 0.001022401
16.30593 993.70105 987.144585 896.09206 0.001006339
16.31473 1009.9207 1000.727466 896.261253 0.000990177
16.32353 1023.0244 1011.081228 896.429305 0.000977494
16.33233 1028.4603 1015.648062 896.596215 0.000972327
16.34114 1026.8853 1013.558309 896.762021 0.000973819
16.34994 1021.069 1006.534046 896.926701 0.000979366
16.35874 1012.464 997.673735 897.090273 0.000987689
16.36754 1006.0055 989.80226 897.252699 0.00099403
16.37635 1000.1005 984.893954 897.414015 0.0009999
16.38515 997.94806 984.155916 897.574184 0.001002056
16.39395 999.14661 988.168252 897.733205 0.001000854
16.40275 1005.2098 996.933061 897.891113 0.000994817
16.41155 1012.1494 1009.931323 898.047891 0.000987996
16.42036 1024.1523 1025.986021 898.203555 0.000976417
16.42916 1036.5947 1043.175343 898.358069 0.000964697
16.43796 1052.6482 1058.931739 898.511468 0.000949985
16.44676 1063.9927 1070.989559 898.663682 0.000939856
16.45556 1073.3875 1079.434334 898.814816 0.00093163
16.46437 1079.4441 1087.71175 898.9648 0.000926403
16.47317 1090.1929 1101.274957 899.11365 0.000917269
16.48197 1106.873 1125.567539 899.261385 0.000903446
16.49077 1136.8783 1164.872862 899.40797 0.000879602
16.49958 1180.5743 1221.762453 899.553439 0.000847045
16.50838 1244.0551 1296.303782 899.697727 0.000803823
16.51718 1331.1296 1385.221703 899.840933 0.000751242
16.52598 1436.6803 1480.329818 899.98299 0.000696049
16.53478 1537.4506 1567.239696 900.123917 0.000650427
16.54359 1606.7178 1626.748402 900.263731 0.000622387
16.55239 1603.7922 1642.879435 900.402398 0.000623522
16.56119 1566.6194 1613.36887 900.539922 0.000638317
16.56999 1499.6565 1549.364063 900.676335 0.000666819
16.57879 1432.0936 1465.825505 900.811636 0.000698278
16.58760 1365.2781 1375.655854 900.945797 0.000732452
16.59640 1304.4525 1289.180971 901.078833 0.000766605
16.60520 1246.6985 1213.645054 901.210762 0.000802119
16.61400 1199.2148 1152.690053 901.341555 0.000833879
16.62280 1156.0477 1106.669039 901.471213 0.000865016
16.63161 1122.7799 1073.742857 901.599767 0.000890647
16.64041 1095.0994 1050.870357 901.72722 0.000913159
16.64921 1072.0636 1034.744678 901.853543 0.00093278
16.65801 1051.1753 1022.81931 901.978753 0.000951316
16.66681 1033.5609 1013.952447 902.102867 0.000967529
16.67562 1018.2031 1008.10955 902.225829 0.000982122
16.68442 1005.6858 1005.582602 902.347727 0.000994346
16.69322 997.46851 1006.501904 902.468506 0.001002538
16.70202 993.43402 1010.599797 902.588197 0.001006609
16.71082 994.57996 1017.052868 902.706775 0.00100545
16.71963 998.73279 1024.48041 902.824255 0.001001269
16.72843 1006.9351 1031.408237 902.940655 0.000993113
16.73723 1017.5575 1036.990491 903.055923 0.000982745
16.74603 1028.2893 1041.005459 903.170141 0.000972489
16.75483 1034.3651 1042.933541 903.283261 0.000966777
16.76364 1031.9578 1041.38759 903.395311 0.000969032
16.77244 1019.7623 1034.882149 903.506268 0.000980621
16.78124 1002.7278 1023.312275 903.616149 0.00099728
16.79004 985.06409 1008.377843 903.724944 0.001015162
16.79885 970.03613 992.423432 903.832683 0.001030889
16.80765 958.46716 977.302295 903.939367 0.001043333
16.81645 949.15381 964.074047 904.044977 0.00105357
16.82525 941.61548 953.173589 904.14954 0.001062005
16.83405 935.27722 944.630628 904.253036 0.001069202
16.84286 930.63129 938.226583 904.355481 0.001074539
16.85166 927.79767 933.616443 904.456869 0.001077821
16.86046 926.01233 930.41793 904.557225 0.001079899
16.86926 924.22845 928.279141 904.656554 0.001081984
16.87806 923.81488 926.904541 904.754838 0.001082468
16.88687 924.26001 926.059018 904.852103 0.001081947
16.89567 925.2124 925.551433 904.948332 0.001080833
16.90447 926.35706 925.211888 905.043519 0.001079497
16.91327 926.76257 924.880504 905.137724 0.001079025
16.92207 926.59442 924.435067 905.230907 0.001079221
16.93088 925.60339 923.83992 905.323095 0.001080376
16.93968 924.85022 923.149618 905.414271 0.001081256
16.94848 924.10956 922.451739 905.504463 0.001082123
16.95728 924.16907 921.816966 905.593654 0.001082053
16.96608 924.01135 921.286562 905.681841 0.001082238
16.97489 922.50604 920.882721 905.769078 0.001084004
16.98369 920.54004 920.620202 905.855332 0.001086319
16.99249 918.89111 920.509879 905.940627 0.001088268
17.00129 917.55273 920.562814 906.024951 0.001089856
17.01010 916.60779 920.79579 906.108328 0.001090979
17.01890 916.10522 921.239955 906.190726 0.001091578
17.02770 916.44434 921.948958 906.272199 0.001091174
17.03650 917.09961 923.003408 906.352743 0.001090394
17.04530 918.39349 924.51088 906.432346 0.001088858
17.05411 918.81537 926.595203 906.511033 0.001088358
17.06291 919.56256 929.382523 906.588791 0.001087474
17.07171 921.14795 932.9616 906.665638 0.001085602
17.08051 924.23053 937.350305 906.74157 0.001081981
17.08931 927.82135 942.454044 906.816613 0.001077794
17.09812 931.37457 948.005864 906.890771 0.001073682
17.10692 934.62457 953.508219 906.964037 0.001069948
17.11572 937.33661 958.220789 907.036432 0.001066853
17.12452 940.46674 961.367617 907.107949 0.001063302
17.13333 943.83527 962.6417 907.178594 0.001059507
17.14213 947.36145 962.594987 907.248391 0.001055563
17.15093 952.13171 962.429833 907.317339 0.001050275
17.15973 959.58484 963.495005 907.385454 0.001042117
17.16853 970.04956 966.979275 907.452727 0.001030875
17.17734 983.16693 973.828826 907.519182 0.001017121
17.18614 999.53345 984.695646 907.584812 0.001000467
17.19494 1018.687 999.834654 907.649624 0.000981656
17.20374 1040.3627 1018.963076 907.713641 0.000961203
17.21254 1066.3733 1041.021154 907.776865 0.000937758
17.22135 1094.5132 1063.91464 907.839309 0.000913648
17.23015 1119.1158 1084.380065 907.900969 0.000893563
17.23895 1137.9998 1098.567213 907.961866 0.000878735
17.24775 1148.5848 1103.578979 908.021982 0.000870637
17.25656 1150.7198 1098.787535 908.081366 0.000869021
17.26536 1141.6364 1085.648827 908.139999 0.000875936
17.27416 1122.2615 1066.88466 908.197898 0.000891058
17.28296 1096.2574 1045.761754 908.255076 0.000912195
17.29177 1070.6201 1025.287653 908.311531 0.000934038
17.30057 1048.2272 1007.627381 908.36727 0.000953992
17.30937 1031.4235 994.025531 908.422317 0.000969534
17.31817 1017.5619 984.987998 908.476678 0.000982741
17.32697 1007.6174 980.452471 908.530353 0.00099244
17.33578 1001.9189 979.912511 908.583355 0.000998085
17.34458 999.66223 982.519293 908.6357 0.001000338
17.35338 999.21844 987.159605 908.687386 0.001000782
17.36218 999.93213 992.483676 908.738422 0.001000068
17.37098 1000.4293 996.877165 908.78883 0.000999571
17.37979 998.8241 998.618085 908.838618 0.001001177
17.38859 994.62891 996.520488 908.887785 0.0010054
17.39739 987.47211 990.637907 908.936347 0.001012687
17.40619 978.17871 982.171386 908.984318 0.001022308
17.41499 969.37811 972.67653 909.031688 0.001031589
17.42380 961.83545 963.399589 909.078497 0.001039679
17.43260 955.06323 955.12867 909.124735 0.001047051
17.44140 948.85022 948.254259 909.170423 0.001053907
17.45020 943.74384 942.895795 909.215559 0.00105961
17.45901 940.5686 938.98871 909.26016 0.001063187
17.46781 938.45599 936.371054 909.30424 0.00106558
17.47661 937.66309 934.85021 909.34779 0.001066481
17.48541 937.49805 934.259131 909.39085 0.001066669
17.49421 937.69183 934.49964 909.433411 0.001066448
17.50302 938.41772 935.566151 909.475493 0.001065624
17.51182 940.90253 937.56366 909.517096 0.001062809
17.52062 944.5108 940.713429 909.558236 0.001058749
17.52942 949.14362 945.349952 909.598919 0.001053581
17.53822 954.39569 951.899796 909.639165 0.001047783
17.54703 961.0434 960.820519 909.678984 0.001040536
17.55583 969.54944 972.510386 909.718378 0.001031407
17.56463 980.13751 987.174292 909.757367 0.001020265
17.57343 993.06415 1004.679525 909.795952 0.001006984
17.58224 1008.7802 1024.427865 909.83415 0.000991296
17.59104 1027.7073 1045.236732 909.871966 0.00097304
17.59984 1049.23 1065.141658 909.909419 0.00095308
17.60864 1070.1138 1081.256067 909.946522 0.00093448
17.61744 1081.0293 1090.186488 909.983276 0.000925044
17.62625 1077.6582 1089.437687 910.019696 0.000927938
17.63505 1061.5446 1079.090373 910.055798 0.000942024
17.64385 1037.4587 1061.886966 910.091575 0.000963894
17.65265 1014.7219 1041.501838 910.127065 0.000985492
17.66145 995.81427 1021.014827 910.162261 0.001004203
17.67026 982.03644 1002.429448 910.197183 0.001018292
17.67906 972.51672 986.839438 910.231834 0.00102826
? 965.72699 0 0 0
? 961.10114 0 0 0
? 958.92401 0 0 0
? 959.80017 0 0 0
? 962.42322 0 0 0
? 967.77991 0 0 0
? 975.40686 0 0 0
? 986.61859 0 0 0
? 1003.6025 0 0 0
? 1026.5759 0 0 0
? 1055.5713 0 0 0
? 1092.02 0 0 0
? 1132.8827 0 0 0
? 1167.0179 0 0 0
? 1196.1163 0 0 0
? 1214.3536 0 0 0
? 1221.7627 0 0 0
? 1226.4675 0 0 0
? 1234.057 0 0 0
? 1251.4443 0 0 0
? 1286.989 0 0 0
? 1331.3363 0 0 0
? 1375.3326 0 0 0
? 1401.7938 0 0 0
? 1409.324 0 0 0
? 1389.7125 0 0 0
? 1352.4052 0 0 0
? 1295.9396 0 0 0
? 1236.3165 0 0 0
? 1179.4659 0 0 0
? 1136.8472 0 0 0
? 1111.1096 0 0 0
? 1102.0803 0 0 0
? 1102.9597 0 0 0
? 1109.7919 0 0 0
? 1115.4298 0 0 0
? 1119.9719 0 0 0
? 1118.5706 0 0 0
? 1114.6758 0 0 0
? 1104.9696 0 0 0
? 1091.5553 0 0 0
? 1074.4442 0 0 0
? 1061.5972 0 0 0
? 1050.4841 0 0 0
? 1044.6829 0 0 0
? 1042.5409 0 0 0
? 1044.9608 0 0 0
? 1049.697 0 0 0
? 1054.1575 0 0 0
? 1054.5302 0 0 0
? 1048.958 0 0 0
? 1038.6906 0 0 0
? 1025.2755 0 0 0
18.15437 1010.4152 1036.242559 912.010617 0.000989692
18.16317 996.9187 1019.049373 912.04723 0.001003091
18.17198 984.65668 1002.741053 912.08416 0.001015582
18.18078 973.97614 988.49517 912.121415 0.001026719
18.18958 966.11792 976.877251 912.158996 0.00103507
18.19838 960.25281 967.962051 912.196915 0.001041392
18.20719 955.5481 961.469513 912.235184 0.00104652
18.21599 952.65179 956.888289 912.273793 0.001049701
18.22479 950.39142 953.548753 912.312777 0.001052198
18.23359 947.4837 950.82569 912.352125 0.001055427
18.24239 944.50732 948.305943 912.39185 0.001058753
18.25120 942.7074 945.873841 912.431962 0.001060775
18.26000 941.72382 943.619333 912.472461 0.001061882
18.26880 941.38409 941.697894 912.513363 0.001062266
18.27760 941.22076 940.249409 912.554654 0.00106245
18.28640 940.9729 939.371495 912.596372 0.00106273
18.29521 941.29504 939.114389 912.638502 0.001062366
18.30401 942.19275 939.46995 912.681057 0.001061354
18.31281 943.22815 940.37351 912.724047 0.001060189
18.32161 944.62775 941.71253 912.76747 0.001058618
18.33041 945.99719 943.369762 912.81133 0.001057086
18.33922 947.6748 945.25362 912.855643 0.001055214
18.34802 950.20642 947.265913 912.900415 0.001052403
18.35682 952.40094 949.231518 912.945642 0.001049978
18.36562 954.1908 950.852521 912.991334 0.001048008
18.37443 955.25641 951.766302 913.037501 0.001046839
18.38323 955.50427 951.728163 913.084138 0.001046568
18.39203 954.56726 950.795834 913.131249 0.001047595
18.40083 951.8363 949.308197 913.17885 0.001050601
18.40963 949.66907 947.688697 913.226945 0.001052998
18.41844 948.52777 946.269238 913.275527 0.001054265
18.42724 947.48975 945.227381 913.324607 0.00105542
18.43604 946.69537 944.600068 913.374192 0.001056306
18.44484 946.75623 944.294796 913.424266 0.001056238
18.45364 946.74298 944.150442 913.474864 0.001056253
18.46245 946.00873 944.035613 913.525968 0.001057073
18.47125 945.14838 943.961628 913.577592 0.001058035
18.48005 945.00891 944.113057 913.629728 0.001058191
18.48885 945.56989 944.777559 913.682383 0.001057563
18.49766 947.23889 946.259879 913.735567 0.0010557
18.50646 949.22211 948.831024 913.789257 0.001053494
18.51526 952.04645 952.707162 913.843493 0.001050369
18.52406 956.78424 958.018345 913.898251 0.001045168
18.53286 964.5246 964.778364 913.953545 0.00103678
18.54167 974.19739 972.843782 914.009365 0.001026486
18.55047 986.03961 981.865253 914.065718 0.001014158
18.55927 999.23938 991.230539 914.122599 0.001000761
18.56807 1013.3564 1000.039306 914.180021 0.00098682
18.57687 1024.2467 1007.248255 914.237985 0.000976327
18.58568 1029.3204 1012.126903 914.296478 0.000971515
18.59448 1028.5322 1014.799548 914.355513 0.000972259
18.60328 1025.7994 1016.319149 914.415078 0.000974849
18.61208 1023.3936 1018.191163 914.475178 0.000977141
18.62088 1026.0438 1021.815254 914.535807 0.000974617
18.62969 1033.2527 1028.220703 914.596976 0.000967817
18.63849 1042.913 1037.973209 914.658685 0.000958853
18.64729 1052.0688 1051.180603 914.72092 0.000950508
18.65609 1060.6504 1067.625668 914.783692 0.000942818
18.66490 1070.1689 1086.971105 914.846986 0.000934432
18.67370 1083.5881 1108.782252 914.9108 0.00092286
18.68250 1103.7382 1132.173311 914.975145 0.000906012
18.69130 1130.0884 1155.271993 915.040013 0.000884887
18.70010 1153.76 1174.89248 915.105407 0.000866731
18.70891 1172.2279 1186.951519 915.171311 0.000853076
18.71771 1176.2423 1187.981295 915.237737 0.000850165
18.72651 1163.9607 1177.130015 915.304665 0.000859136
18.73531 1138.1832 1156.739849 915.372091 0.000878593
18.74411 1110.7136 1130.860167 915.440029 0.000900322
18.75292 1083.1382 1103.369086 915.508465 0.000923243
18.76172 1061.226 1077.133482 915.577402 0.000942306
18.77052 1045.22 1054.035545 915.646822 0.000956736
18.77932 1034.0306 1035.254053 915.716735 0.000967089
18.78812 1027.2909 1021.415293 915.787103 0.000973434
18.79693 1025.178 1012.628465 915.857962 0.00097544
18.80573 1026.891 1008.55987 915.929297 0.000973813
18.81453 1032.2573 1008.480101 916.001087 0.000968751
18.82333 1040.1608 1011.33835 916.073342 0.00096139
18.83214 1048.8087 1015.758922 916.146039 0.000953463
18.84094 1054.2512 1020.085652 916.219189 0.000948541
18.84974 1055.8429 1022.567266 916.29275 0.000947111
18.85854 1051.2748 1021.881682 916.366757 0.000951226
18.86734 1044.6016 1017.67058 916.441196 0.000957303
18.87615 1033.5348 1010.590908 916.516041 0.000967553
18.88495 1020.4316 1001.808035 916.591301 0.000979977
18.89375 1006.3464 992.478442 916.666951 0.000993694
18.90255 993.80109 983.469589 916.742983 0.001006238
18.91135 982.63843 975.307803 916.819406 0.001017668
18.92016 974.08875 968.206631 916.896201 0.001026601
18.92896 967.76105 962.133986 916.973368 0.001033313
18.93776 962.91229 956.942111 917.050881 0.001038516
18.94656 958.4527 952.47791 917.128748 0.001043348
18.95537 954.06427 948.646788 917.20694 0.001048147
18.96417 949.97272 945.380997 917.285448 0.001052662
18.97297 946.32367 942.606707 917.364279 0.001056721
18.98177 943.30078 940.246062 917.443413 0.001060107
18.99057 940.75781 938.235075 917.522849 0.001062973
18.99938 939.19299 936.536302 917.602557 0.001064744
19.00818 937.93317 935.128431 917.682545 0.001066174
19.01698 937.44855 933.994601 917.762763 0.001066725
19.02578 936.83246 933.113786 917.843255 0.001067427
19.03458 936.21442 932.463896 917.923973 0.001068131
19.04339 935.8338 932.024032 918.004912 0.001068566
19.05219 935.65857 931.778504 918.08607 0.001068766
19.06099 935.17651 931.721155 918.167415 0.001069317
19.06979 935.80151 931.859259 918.248953 0.001068603
19.07859 937.24872 932.21756 918.330633 0.001066953
19.08740 938.22937 932.843363 918.412497 0.001065837
19.09620 938.7298 933.80901 918.494495 0.001065269
19.10500 939.37463 935.21434 918.576621 0.001064538
19.11380 940.87299 937.182292 918.658871 0.001062843
19.12261 943.32422 939.849859 918.741212 0.001060081
19.13141 946.07117 943.349768 918.823628 0.001057003
19.14021 949.28766 947.787263 918.906125 0.001053421
19.14901 953.51013 953.207451 918.988685 0.001048757
19.15781 958.06757 959.554106 919.071276 0.001043768
19.16662 962.81812 966.635136 919.153892 0.001038618
19.17542 968.28363 974.068157 919.236525 0.001032755
19.18422 975.30701 981.241972 919.319141 0.001025318
19.19302 982.78973 987.324723 919.401724 0.001017512
19.20182 991.29059 991.414775 919.484276 0.001008786
19.21063 998.07629 992.839205 919.566781 0.001001927
19.21943 1001.0713 991.43543 919.649202 0.00099893
19.22823 998.5733 987.567811 919.731534 0.001001429
19.23703 990.93402 981.936167 919.813766 0.001009149
19.24583 981.4007 975.359317 919.895846 0.001018952
19.25464 972.1416 968.594172 919.97781 0.001028657
19.26344 965.53436 962.239176 920.059605 0.001035696
19.27224 960.45374 956.688143 920.141231 0.001041175
19.28104 955.79749 952.166358 920.222651 0.001046247
19.28985 952.59961 948.768012 920.303856 0.001049759
19.29865 951.05658 946.505395 920.384837 0.001051462
19.30745 950.29883 945.342771 920.46554 0.001052301
19.31625 949.98669 945.222341 920.545999 0.001052646
19.32505 950.46649 946.080688 920.626159 0.001052115
19.33386 951.62451 947.851963 920.706021 0.001050835
19.34266 954.55005 950.458811 920.785545 0.001047614
19.35146 959.48517 953.800271 920.864723 0.001042226
19.36026 964.30469 957.727288 920.943526 0.001037017
19.36906 969.82892 962.022158 921.021952 0.00103111
19.37787 974.98572 966.379814 921.099981 0.001025656
19.38667 978.44116 970.420366 921.177576 0.001022034
19.39547 979.25629 973.77673 921.254735 0.001021183
19.40427 978.27344 976.223369 921.33142 0.001022209
19.41307 974.36505 977.791789 921.407602 0.001026309
19.42188 970.64246 978.791824 921.483305 0.001030245
19.43068 968.27454 979.737617 921.558473 0.001032765
19.43948 968.01691 981.213414 921.633103 0.00103304
19.44828 968.73364 983.752758 921.707159 0.001032275
19.45709 971.37134 987.768496 921.780635 0.001029472
19.46589 976.08478 993.539249 921.853496 0.001024501
19.47469 982.27612 1001.212986 921.925712 0.001018044
19.48349 990.51068 1010.85302 921.997303 0.00100958
19.49229 1001.6058 1022.471317 922.068217 0.000998397
19.50110 1013.7975 1036.035822 922.138448 0.00098639
19.50990 1027.5807 1051.41029 922.20796 0.00097316
19.51870 1043.6461 1068.306353 922.276748 0.000958179
19.52750 1062.5078 1086.30221 922.344759 0.00094117
19.53630 1081.989 1104.822351 922.412013 0.000924224
19.54511 1105.4752 1122.894427 922.47848 0.000904588
19.55391 1127.6567 1138.891107 922.544123 0.000886795
19.56271 1144.5912 1150.509298 922.608938 0.000873674
19.57151 1152.2261 1155.394786 922.672889 0.000867885
19.58032 1154.2844 1152.336998 922.735969 0.000866338
19.58912 1146.5474 1142.171432 922.79813 0.000872184
19.59792 1133.6913 1127.455813 922.859386 0.000882074
19.60672 1117.2357 1111.314984 922.91971 0.000895066
19.61552 1100.4973 1096.440637 922.979067 0.00090868
19.62433 1084.9919 1084.710409 923.03745 0.000921666
19.63313 1071.9973 1077.182721 923.094825 0.000932838
19.64193 1066.1918 1074.183239 923.151173 0.000937918
19.65073 1066.8093 1075.368742 923.206487 0.000937375
19.65953 1072.933 1079.762166 923.26074 0.000932025
19.66834 1081.5153 1085.806847 923.313917 0.000924629
19.67714 1090.9825 1091.575168 923.365987 0.000916605
19.68594 1095.3096 1095.298015 923.416943 0.000912984
19.69474 1093.5536 1096.112921 923.466753 0.00091445
19.70354 1086.2339 1094.490087 923.515399 0.000920612
19.71235 1078.499 1091.907914 923.562871 0.000927215
19.72115 1071.4108 1090.137405 923.609147 0.000933349
19.72995 1070.839 1090.605167 923.654211 0.000933847
19.73875 1076.3571 1094.134998 923.698035 0.00092906
19.74756 1090.8453 1100.8343 923.740612 0.00091672
19.75636 1111.6284 1110.018058 923.781903 0.000899581
19.76516 1136.0155 1120.166836 923.821919 0.00088027
19.77396 1156.5873 1128.952471 923.860624 0.000864613
19.78276 1161.4385 1133.604146 923.898005 0.000861001
19.79157 1148.7721 1131.794274 923.934048 0.000870495
19.80037 1122.9719 1122.674739 923.96873 0.000890494
19.80917 1094.5839 1107.244352 924.002042 0.000913589
19.81797 1066.5488 1087.702891 924.033952 0.000937604
19.82678 1042.5416 1066.417939 924.064466 0.000959194
19.83558 1022.455 1045.328884 924.093555 0.000978038
19.84438 1006.3327 1025.765298 924.121206 0.000993707
19.85318 992.39539 1008.520903 924.147409 0.001007663
19.86198 981.61786 993.969116 924.172142 0.001018726
19.87079 973.74548 982.159816 924.195392 0.001026962
19.87959 967.34308 972.899789 924.21715 0.001033759
19.88839 961.62689 965.848707 924.237403 0.001039904
19.89719 956.80811 960.579851 924.256134 0.001045142
19.90599 952.67688 956.64437 924.273331 0.001049674
19.91480 949.1156 953.627243 924.288985 0.001053612
19.92360 946.47192 951.195526 924.303082 0.001056555
19.93240 944.81879 949.128879 924.315609 0.001058404
19.94120 942.51978 947.312379 924.326561 0.001060986
19.95001 941.39771 945.703581 924.335925 0.00106225
19.95881 940.91937 944.293957 924.343691 0.00106279
19.96761 939.75635 943.086868 924.34985 0.001064106
19.97641 938.52057 942.088001 924.354396 0.001065507
19.98521 937.67548 941.302574 924.357317 0.001066467
19.99402 937.66742 940.731949 924.358609 0.001066476
20.00282 938.4491 940.3742 924.358265 0.001065588
20.01162 939.66864 940.22059 924.356277 0.001064205
20.02042 940.49139 940.262317 924.352642 0.001063274
20.02922 941.50977 940.479689 924.347353 0.001062124
20.03803 943.2525 940.848441 924.340407 0.001060162
20.04683 944.90997 941.333659 924.331802 0.001058302
20.05563 946.1955 941.899842 924.321531 0.001056864
20.06443 947.70868 942.495417 924.309596 0.001055177
20.07324 949.61957 943.074233 924.295992 0.001053053
20.08204 952.93958 943.615392 924.280722 0.001049384
20.09084 956.24469 944.150504 924.263785 0.001045757
20.09964 959.03815 944.774118 924.245183 0.001042711
20.10844 961.8833 945.633861 924.224915 0.001039627
20.11725 965.9917 946.911126 924.202981 0.001035206
20.12605 969.77301 948.808168 924.179391 0.001031169
20.13485 973.6662 951.542807 924.154143 0.001027046
20.14365 977.57422 955.341195 924.127247 0.00102294
20.15245 981.37836 960.430708 924.098707 0.001018975
20.16126 984.38239 967.014591 924.068533 0.001015865
20.17006 990.31409 975.241253 924.036726 0.001009781
20.17886 996.91394 985.147875 924.003294 0.001003096
20.18766 1004.9224 996.609062 923.968254 0.000995102
20.19646 1015.2195 1009.287917 923.931607 0.000985009
20.20527 1027.1533 1022.56572 923.893376 0.000973565
20.21407 1040.9872 1035.488779 923.853575 0.000960627
20.22287 1054.3184 1046.773588 923.812197 0.00094848
20.23167 1065.1173 1054.960589 923.769274 0.000938864
20.24047 1069.7379 1058.874017 923.724812 0.000934808
20.24928 1066.3342 1058.147094 923.678837 0.000937792
20.25808 1056.3153 1053.454582 923.631357 0.000946687
20.26688 1042.9829 1046.223973 923.582401 0.000958788
20.27568 1027.9991 1038.1059 923.531995 0.000972763
20.28449 1015.293 1030.558711 923.480132 0.000984937
20.29329 1007.0703 1024.692937 923.426857 0.000992979
20.30209 1002.2338 1021.225054 923.37218 0.000997771
20.31089 1000.7311 1020.499541 923.31614 0.000999269
20.31969 1002.0296 1022.499301 923.258749 0.000997975
20.32850 1005.7792 1026.850361 923.20006 0.000994254
20.33730 1013.1292 1032.875927 923.14007 0.000987041
20.34610 1022.3215 1039.699228 923.078812 0.000978166
20.35490 1031.9515 1046.424683 923.016333 0.000969038
20.36370 1043.1057 1052.246243 922.95265 0.000958676
20.37251 1055.0179 1056.42666 922.887812 0.000947851
20.38131 1062.1522 1058.247138 922.821838 0.000941485
20.39011 1059.5471 1057.145605 922.754794 0.000943799
20.39891 1050.1897 1052.984371 922.686681 0.000952209
20.40771 1038.3108 1046.20765 922.617545 0.000963103
20.41652 1027.4175 1037.677212 922.547442 0.000973314
20.42532 1018.9183 1028.330731 922.476398 0.000981433
20.43412 1013.845 1018.92993 922.404473 0.000986344
20.44292 1010.1801 1009.954916 922.331711 0.000989922
20.45172 1006.3319 1001.61523 922.258143 0.000993708
20.46053 1003.3121 993.940599 922.183824 0.000996699
20.46933 999.76202 986.921035 922.108796 0.001000238
20.47813 995.33209 980.616088 922.033127 0.00100469
20.48693 989.51471 975.160965 921.956852 0.001010596
20.49574 983.90668 970.695138 921.880043 0.001016357
20.50454 978.73639 967.291615 921.802755 0.001021726
20.51334 974.23669 964.926948 921.725029 0.001026445
20.52214 969.80981 963.489993 921.646933 0.00103113
20.53094 966.22845 962.788522 921.568519 0.001034952
20.53975 963.57117 962.547594 921.489867 0.001037806
20.54855 962.47333 962.437816 921.411024 0.00103899
20.55735 962.24408 962.12865 921.332091 0.001039237
20.56615 961.33978 961.374694 921.253083 0.001040215
20.57495 959.73053 960.096366 921.174106 0.001041959
20.58376 957.84991 958.386606 921.095221 0.001044005
20.59256 956.06824 956.449352 921.016494 0.00104595
20.60136 954.46942 954.521176 920.938017 0.001047703
20.61016 952.60022 952.819844 920.859849 0.001049758
20.61896 951.3302 951.52826 920.782106 0.00105116
20.62777 950.52484 950.775913 920.704814 0.00105205
20.63657 950.43512 950.631402 920.628093 0.00105215
20.64537 951.23596 951.091464 920.552017 0.001051264
20.65417 952.63904 952.078752 920.476665 0.001049716
20.66298 954.61163 953.437687 920.402144 0.001047546
20.67178 957.35138 954.93905 920.328543 0.001044549
20.68058 959.4129 956.296531 920.255938 0.001042304
20.68938 960.51599 957.2292 920.184425 0.001041107
20.69818 960.99585 957.562396 920.114117 0.001040587
20.70699 960.27252 957.319413 920.045104 0.001041371
20.71579 957.82184 956.716484 919.977481 0.001044035
20.72459 956.80157 956.068953 919.911366 0.001045149
20.73339 956.34344 955.68605 919.846863 0.001045649
20.74219 956.85034 955.808183 919.784066 0.001045096
20.75100 957.9317 956.588851 919.723085 0.001043916
20.75980 960.8382 958.089887 919.664045 0.001040758
20.76860 965.08368 960.278773 919.607055 0.00103618
20.77741 969.23602 963.024602 919.552224 0.00103174
20.78620 973.065 966.106199 919.499694 0.001027681
20.79501 976.73993 969.269509 919.449552 0.001023814
20.80381 979.23938 972.315033 919.401944 0.001021201
20.81261 981.05554 975.168319 919.356984 0.00101931
20.82141 983.05585 977.869478 919.314812 0.001017236
20.83022 984.31476 980.457728 919.275551 0.001015935
20.83902 985.74701 982.869434 919.239331 0.001014459
20.84782 987.29364 984.862032 919.206301 0.00101287
20.85662 986.79413 986.06053 919.176577 0.001013383
20.86542 983.92273 986.075779 919.150314 0.00101634
20.87423 979.89642 984.686026 919.127646 0.001020516
20.88303 975.83765 981.940066 919.108725 0.001024761
20.89183 971.11493 978.093761 919.093695 0.001029744
20.90063 966.00848 973.487205 919.082705 0.001035188
20.90943 960.68292 968.464936 919.075906 0.001040926
20.91824 955.18835 963.36652 919.073454 0.001046914
20.92704 950.52844 958.508267 919.075507 0.001052046
20.93584 947.28601 954.156472 919.082223 0.001055647
20.94465 944.5835 950.493557 919.093765 0.001058668
20.95345 942.81647 947.613313 919.110298 0.001060652
20.96225 941.33447 945.525416 919.131985 0.001062322
20.97105 941.07672 944.169316 919.159002 0.001062613
20.97985 940.54608 943.426665 919.191523 0.001063212
20.98866 940.02277 943.135085 919.229715 0.001063804
20.99746 940.24463 943.114768 919.273766 0.001063553
21.00626 941.21191 943.203106 919.323845 0.00106246
21.01506 943.50848 943.281369 919.380127 0.001059874
21.02386 945.69537 943.271231 919.442831 0.001057423
21.03267 948.45258 943.104031 919.512117 0.001054349
21.04147 949.89636 942.701387 919.588194 0.001052746
21.05027 949.49048 941.981814 919.671237 0.001053196
21.05907 947.73962 940.903378 919.761451 0.001055142
21.06788 945.19489 939.495289 919.859047 0.001057983
21.07668 941.35144 937.858286 919.964179 0.001062303
21.08548 937.26044 936.122809 920.077124 0.001066939
21.09428 934.40448 934.412952 920.19804 0.0010702
21.10308 932.96106 932.82238 920.327164 0.001071856
21.11189 931.64917 931.412973 920.464681 0.001073365
21.12069 930.7746 930.21993 920.610818 0.001074374
21.12949 930.20068 929.258783 920.765777 0.001075037
21.13829 929.47083 928.530944 920.929813 0.001075881
21.14709 928.51794 928.028573 921.103154 0.001076985
21.15590 928.40314 927.735359 921.285985 0.001077118
21.16470 928.25415 927.641055 921.478579 0.001077291
21.17350 928.20441 927.725573 921.681122 0.001077349
21.18230 928.15558 927.971915 921.893871 0.001077406
21.19110 928.22687 928.363104 922.117037 0.001077323
21.19991 928.61182 928.88129 922.350912 0.001076876
21.20871 929.21051 929.506221 922.595741 0.001076182
21.21751 929.66064 930.212936 922.851715 0.001075661
21.22631 930.51196 930.969407 923.11914 0.001074677
21.23512 931.32037 931.74301 923.398207 0.001073744
21.24392 931.53174 932.491124 923.689165 0.001073501
21.25272 932.12341 933.174294 923.992338 0.001072819
21.26152 932.75604 933.764855 924.307952 0.001072092
21.27032 932.55353 934.256964 924.636307 0.001072325
21.27913 933.05493 934.667084 924.977594 0.001071748
21.28793 933.07208 935.019814 925.332158 0.001071729
21.29673 933.38757 935.332422 925.700187 0.001071366
21.30553 933.63776 935.602137 926.081952 0.001071079
21.31433 933.7356 935.807438 926.477813 0.001070967
21.32314 934.26849 935.916629 926.888007 0.001070356
21.33194 935.08777 935.908168 927.312864 0
21.34074 935.86572 0 0 0
21.34954 935.90857 0 0 0
21.35834 935.22217 0 0 0
21.36715 934.66602 0 0 0
21.37595 933.58856 0 0 0
21.38475 933.0965 0 0 0
21.39355 933.46814 0 0 0
21.40236 933.22559 0 0 0
21.41116 933.10413 0 0 0
21.41996 933.24548 0 0 0
21.42876 933.24011 0 0 0
21.43756 933.06702 0 0 0
21.44637 934.41589 0 0 0
21.45517 936.26263 0 0 0
21.46397 937.18835 0 0 0
21.47277 938.22504 0 0 0
21.48157 939.84064 0 0 0
21.49038 941.02594 0 0 0
21.49918 943.03186 0 0 0
21.50798 945.08832 0 0 0
21.51678 946.18579 0 0 0
21.52558 947.26611 0 0 0
21.53439 948.64807 0 0 0
21.54319 949.57245 0 0 0
21.55199 950.97192 0 0 0
21.56079 952.32367 0 0 0
21.56959 954.19702 0 0 0
21.57840 957.15869 0 0 0
21.58720 960.88647 0 0 0
21.59600 964.48676 0 0 0
21.60480 968.96765 0 0 0
21.61360 974.6275 0 0 0
21.62241 982.30737 0 0 0
21.63121 992.07709 0 0 0
21.64001 1002.8882 0 0 0
21.64881 1014.9471 0 0 0
21.65762 1029.8635 0 0 0
21.66642 1044.2433 0 0 0
21.67522 1055.3998 0 0 0
21.68402 1061.7548 0 0 0
21.69282 1062.8373 0 0 0
21.70163 1056.4907 0 0 0
21.71043 1045.4343 0 0 0
21.71923 1033.6897 0 0 0
21.72803 1022.312 0 0 0
21.73683 1014.3619 0 0 0
21.74564 1010.855 0 0 0
21.75444 1011.975 0 0 0
21.76324 1018.3826 0 0 0
21.77204 1028.0593 0 0 0
21.78085 1042.1333 0 0 0
21.78965 1058.4386 0 0 0
21.79845 1073.9454 0 0 0
21.80725 1082.4974 0 0 0
21.81605 1082.0424 0 0 0
21.82486 1071.6847 0 0 0
21.83366 1054.2157 0 0 0
21.84246 1032.5675 0 0 0
21.85126 1010.4868 0 0 0
21.86006 991.02063 0 0 0
21.86887 975.24146 0 0 0
21.87767 962.948 0 0 0
21.88647 954.36963 0 0 0
21.89527 948.96667 0 0 0
21.90408 944.75183 0 0 0
21.91288 941.2207 0 0 0
21.92168 937.73956 0 0 0
21.93048 935.68787 0 0 0
21.93928 934.52173 0 0 0
21.94809 933.31207 0 0 0
21.95689 932.10449 0 0 0
21.96569 932.27826 0 0 0
21.97449 933.12164 0 0 0
21.98329 934.30206 0 0 0
21.99210 934.73712 0 0 0
22.00090 935.83936 0 0 0
22.00970 937.1424 0 0 0
22.01850 939.63513 0 0 0
22.02731 942.48846 0 0 0
22.03611 945.42529 0 0 0
22.04491 948.41125 0 0 0
22.05371 951.55017 0 0 0
22.06251 954.05945 0 0 0
22.07132 955.48224 0 0 0
22.08012 954.94354 0 0 0
22.08892 953.64362 0 0 0
22.09772 951.73602 0 0 0
22.10652 949.37836 0 0 0
22.11533 947.17261 0 0 0
22.12413 944.99207 0 0 0
22.13293 943.66522 0 0 0
22.14173 942.78772 0 0 0
22.15054 941.33942 0 0 0
22.15934 939.79211 0 0 0
22.16814 939.13654 0 0 0
22.17694 939.71399 0 0 0
22.18574 940.38477 0 0 0
22.19455 940.84344 0 0 0
22.20335 941.75665 0 0 0
22.21215 943.25806 0 0 0
22.22095 945.82343 0 0 0
22.22975 948.01636 0 0 0
22.23856 949.22742 0 0 0
22.24736 951.16669 0 0 0
22.25616 954.47888 0 0 0
22.26496 956.77148 0 0 0
22.27376 957.4668 0 0 0
22.28257 959.11572 0 0 0
22.29137 960.75653 0 0 0
22.30017 962.21796 0 0 0
22.30897 963.44446 0 0 0
22.31778 965.61548 0 0 0
22.32658 967.18079 0 0 0
22.33538 968.70496 0 0 0
22.34418 970.04877 0 0 0
22.35298 970.95111 0 0 0
22.36179 971.78711 0 0 0
22.37059 973.85974 0 0 0
22.37939 974.89478 0 0 0
22.38819 975.64001 0 0 0
22.39699 976.09979 0 0 0
22.40580 977.69189 0 0 0
22.41460 980.01434 0 0 0
22.42340 984.10962 0 0 0
22.43220 987.89819 0 0 0
22.44100 993.78131 0 0 0
22.44981 1001.0311 0 0 0
22.45861 1009.7146 0 0 0
22.46741 1018.4584 0 0 0
22.47621 1030.1044 0 0 0
22.48502 1041.8632 0 0 0
22.49382 1054.079 0 0 0
22.50262 1063.42 0 0 0
22.51142 1068.3199 0 0 0
22.52022 1071.6667 0 0 0
22.52903 1076.0479 0 0 0
22.53783 1081.5511 0 0 0
22.54663 1084.8096 0 0 0
22.55543 1082.4402 0 0 0
22.56423 1070.6742 0 0 0
22.57304 1057.4698 0 0 0
22.58184 1040.2903 0 0 0
22.59064 1026.2345 0 0 0
22.59944 1012.0859 0 0 0
22.60825 1000.9974 0 0 0
22.61705 989.72205 0 0 0
22.62585 983.05817 0 0 0
22.63465 976.97986 0 0 0
22.64345 974.12427 0 0 0
22.65226 970.22998 0 0 0
22.66106 968.24554 0 0 0
22.66986 965.98334 0 0 0
22.67866 963.87463 0 0 0
22.68746 961.43042 0 0 0
22.69627 959.06879 0 0 0
22.70507 955.86841 0 0 0
22.71387 952.17957 0 0 0
22.72267 948.88812 0 0 0
22.73147 944.89569 0 0 0
22.74028 941.67267 0 0 0
22.74908 939.56683 0 0 0
22.75788 938.8996 0 0 0
22.76668 938.43536 0 0 0
22.77549 937.96405 0 0 0
22.78429 937.17969 0 0 0
22.79309 937.03613 0 0 0
22.80189 937.11053 0 0 0
22.81069 938.30011 0 0 0
22.81950 940.06946 0 0 0
22.82830 942.25232 0 0 0
22.83710 944.98773 0 0 0
22.84590 948.45276 0 0 0
22.85470 952.42804 0 0 0
22.86351 956.07629 0 0 0
22.87231 958.3161 0 0 0
22.88111 959.45374 0 0 0
22.88991 959.72101 0 0 0
22.89871 958.76886 0 0 0
22.90752 957.80377 0 0 0
22.91632 956.89642 0 0 0
22.92512 956.95129 0 0 0
22.93392 957.85583 0 0 0
22.94273 958.18262 0 0 0
22.95153 958.1225 0 0 0
22.96033 958.36151 0 0 0
22.96913 958.72589 0 0 0
22.97793 958.95135 0 0 0
22.98674 959.11603 0 0 0
22.99554 960.38574 0 0 0
23.00434 963.33832 0 0 0
23.01314 965.95239 0 0 0
23.02194 968.04242 0 0 0
23.03075 970.5321 0 0 0
23.03955 972.97974 0 0 0
23.04835 973.75916 0 0 0
23.05715 975.22284 0 0 0
23.06596 978.8728 0 0 0
23.07476 983.57495 0 0 0
23.08356 991.43915 0 0 0
23.09236 1003.6377 0 0 0
23.10116 1017.6355 0 0 0
23.10997 1032.0784 0 0 0
23.11877 1045.8995 0 0 0
23.12757 1056.1021 0 0 0
23.13637 1059.4993 0 0 0
23.14517 1054.7568 0 0 0
23.15398 1043.5515 0 0 0
23.16278 1030.7992 0 0 0
23.17158 1018.7637 0 0 0
23.18038 1010.8361 0 0 0
23.18918 1007.6152 0 0 0
23.19799 1010.0956 0 0 0
23.20679 1017.1666 0 0 0
23.21559 1025.6627 0 0 0
23.22439 1034.7623 0 0 0
23.23320 1044.7578 0 0 0
23.24200 1051.698 0 0 0
23.25080 1054.4297 0 0 0
23.25960 1052.2089 0 0 0
23.26840 1047.6433 0 0 0
23.27721 1039.9446 0 0 0
23.28601 1032.0336 0 0 0
23.29481 1023.3268 0 0 0
23.30361 1016.0264 0 0 0
23.31241 1010.2385 0 0 0
23.32122 1003.8812 0 0 0
23.33002 998.0141 0 0 0
23.33882 992.72211 0 0 0
23.34762 987.90924 0 0 0
23.35642 983.77972 0 0 0
23.36523 980.0332 0 0 0
23.37403 976.638 0 0 0
23.38283 974.81378 0 0 0
23.39163 973.05737 0 0 0
23.40044 972.5863 0 0 0
23.40924 971.45142 0 0 0
23.41804 969.84424 0 0 0
23.42684 970.39667 0 0 0
23.43564 971.27051 0 0 0
23.44445 971.59064 0 0 0
23.45325 970.95459 0 0 0
23.46205 970.59106 0 0 0
23.47085 969.89758 0 0 0
23.47965 969.36676 0 0 0
23.48846 967.51624 0 0 0
23.49726 964.84357 0 0 0
23.50606 961.57654 0 0 0
23.51486 958.05432 0 0 0
23.52367 953.53491 0 0 0
23.53247 949.79102 0 0 0
23.54127 946.98883 0 0 0
23.55007 944.76215 0 0 0
23.55887 943.0321 0 0 0
23.56768 941.3349 0 0 0
23.57648 939.46381 0 0 0
23.58528 937.08069 0 0 0
23.59408 933.61511 0 0 0
23.60288 931.32843 0 0 0
23.61169 930.57904 0 0 0
23.62049 929.98175 0 0 0
23.62929 929.69891 0 0 0
23.63809 929.19836 0 0 0
23.64689 928.84827 0 0 0
23.65570 929.77795 0 0 0
23.66450 932.02637 0 0 0
23.67330 934.55396 0 0 0
23.68210 937.89954 0 0 0
23.69091 942.21246 0 0 0
23.69971 947.34644 0 0 0
23.70851 953.70447 0 0 0
23.71731 961.9469 0 0 0
23.72611 969.67188 0 0 0
23.73492 976.08368 0 0 0
23.74372 981.56262 0 0 0
23.75252 985.6994 0 0 0
23.76132 988.19843 0 0 0
23.77012 989.9104 0 0 0
23.77893 990.03113 0 0 0
23.78773 989.79291 0 0 0
23.79653 987.76001 0 0 0
23.80533 985.43182 0 0 0
23.81414 985.8703 0 0 0
23.82294 984.69775 0 0 0
23.83174 982.55774 0 0 0
23.84054 979.56091 0 0 0
23.84934 975.85565 0 0 0
23.85815 971.75531 0 0 0
23.86695 967.39233 0 0 0
23.87575 962.58698 0 0 0
23.88455 957.71588 0 0 0
23.89335 952.57935 0 0 0
23.90216 947.51294 0 0 0
23.91096 944.05841 0 0 0
23.91976 941.72443 0 0 0
23.92856 939.33008 0 0 0
23.93736 938.04858 0 0 0
23.94617 937.36182 0 0 0
23.95497 936.18762 0 0 0
23.96377 934.72217 0 0 0
23.97257 933.08557 0 0 0
23.98137 931.99615 0 0 0
23.99018 930.62335 0 0 0
23.99898 929.19836 0 0 0
24.00778 927.57526 0 0 0
24.01658 926.61334 0 0 0
24.02539 925.86108 0 0 0
24.03419 924.914 0 0 0
24.04299 924.95667 0 0 0
24.05179 926.00299 0 0 0
24.06059 926.50635 0 0 0
24.06940 927.55408 0 0 0
24.07820 928.09839 0 0 0
24.08700 927.85773 0 0 0
24.09580 929.23584 0 0 0
24.10460 930.49457 0 0 0
24.11341 931.94989 0 0 0
24.12221 933.6972 0 0 0
24.13101 935.4104 0 0 0
24.13981 936.37878 0 0 0
24.14862 936.10571 0 0 0
24.15742 934.93353 0 0 0
24.16622 933.11261 0 0 0
24.17502 931.74689 0 0 0
24.18382 931.4635 0 0 0
24.19263 930.97675 0 0 0
24.20143 929.59155 0 0 0
24.21023 928.40912 0 0 0
24.21903 928.03345 0 0 0
24.22783 929.23108 0 0 0
24.23664 929.95697 0 0 0
24.24544 930.31464 0 0 0
24.25424 930.34265 0 0 0
24.26304 929.9502 0 0 0
24.27184 930.54248 0 0 0
24.28065 931.28418 0 0 0
24.28945 931.36688 0 0 0
24.29825 931.44946 0 0 0
24.30705 931.39166 0 0 0
24.31586 930.25616 0 0 0
24.32466 929.14258 0 0 0
24.33346 928.06146 0 0 0
24.34226 926.94244 0 0 0
24.35106 926.2016 0 0 0
24.35987 926.94623 0 0 0
24.36867 928.25049 0 0 0
24.37747 930.11578 0 0 0
24.38627 933.52826 0 0 0
24.39507 936.9101 0 0 0
24.40388 938.39447 0 0 0
24.41268 938.85785 0 0 0
24.42148 938.13068 0 0 0
24.43029 935.98108 0 0 0
24.43908 933.17871 0 0 0
24.44789 930.81494 0 0 0
24.45669 928.75543 0 0 0
24.46549 927.06842 0 0 0
24.47430 925.94061 0 0 0
24.48310 926.14172 0 0 0
24.49190 927.09119 0 0 0
24.50070 928.04498 0 0 0
24.50950 929.04303 0 0 0
24.51831 931.17963 0 0 0
24.52711 934.54181 0 0 0
24.53591 937.57941 0 0 0
24.54471 939.94257 0 0 0
24.55351 941.89032 0 0 0
24.56232 944.42871 0 0 0
24.57112 946.73181 0 0 0
24.57992 948.36157 0 0 0
24.58872 950.73871 0 0 0
24.59753 953.68854 0 0 0
24.60633 956.66101 0 0 0
24.61513 960.03656 0 0 0
24.62393 964.37378 0 0 0
24.63273 967.02899 0 0 0
24.64154 968.74823 0 0 0
24.65034 968.93823 0 0 0
24.65914 967.54309 0 0 0
24.66794 964.86768 0 0 0
24.67674 963.37701 0 0 0
24.68555 961.60547 0 0 0
24.69435 959.22485 0 0 0
24.70315 956.37012 0 0 0
24.71195 953.48303 0 0 0
24.72076 951.23621 0 0 0
24.72956 949.9837 0 0 0
24.73836 948.7381 0 0 0
24.74716 947.20831 0 0 0
24.75596 946.86078 0 0 0
24.76477 948.07178 0 0 0
24.77357 949.28241 0 0 0
24.78237 948.03125 0 0 0
24.79117 944.80621 0 0 0
24.79997 940.67676 0 0 0
24.80878 936.69672 0 0 0
24.81758 932.93823 0 0 0
24.82638 929.31628 0 0 0
24.83518 925.40271 0 0 0
24.84398 923.04425 0 0 0
24.85279 921.79132 0 0 0
24.86159 920.19037 0 0 0
24.87039 918.66565 0 0 0
24.87919 916.74213 0 0 0
24.88800 915.96893 0 0 0
24.89680 915.33893 0 0 0
24.90560 914.40936 0 0 0
24.91440 913.79169 0 0 0
24.92320 913.87781 0 0 0
24.93201 913.06464 0 0 0
24.94081 912.71362 0 0 0
24.94961 913.63385 0 0 0
24.95841 913.60394 0 0 0
24.96721 913.15814 0 0 0
24.97602 912.84979 0 0 0
24.98482 913.0553 0 0 0
24.99362 913.539 0 0 0
25.00242 914.58667 0 0 0
25.01122 914.98236 0 0 0
25.02003 915.19409 0 0 0
25.02883 915.33142 0 0 0
25.03763 916.17914 0 0 0
25.04643 918.13013 0 0 0
25.05523 919.12836 0 0 0
25.06404 920.36072 0 0 0
25.07284 923.08716 0 0 0
25.08164 926.26215 0 0 0
25.09044 929.05481 0 0 0
25.09924 931.24487 0 0 0
25.10805 933.09955 0 0 0
25.11685 935.86749 0 0 0
25.12565 938.00171 0 0 0
25.13445 937.46869 0 0 0
25.14325 937.12646 0 0 0
25.15206 937.87927 0 0 0
25.16086 938.17145 0 0 0
25.16966 939.53918 0 0 0
25.17846 942.30927 0 0 0
25.18727 946.49261 0 0 0
25.19607 952.2077 0 0 0
25.20487 959.68695 0 0 0
25.21367 965.19586 0 0 0
25.22247 968.72528 0 0 0
25.23128 969.75787 0 0 0
25.24008 968.96295 0 0 0
25.24888 966.69061 0 0 0
25.25768 962.72522 0 0 0
25.26648 960.45087 0 0 0
25.27529 958.60236 0 0 0
25.28409 959.6922 0 0 0
25.29289 961.27368 0 0 0
25.30169 966.11957 0 0 0
25.31049 970.02045 0 0 0
25.31930 974.72052 0 0 0
25.32810 978.51898 0 0 0
25.33690 984.64014 0 0 0
25.34570 990.78528 0 0 0
25.35451 996.27277 0 0 0
25.36331 1000.9529 0 0 0
25.37211 1003.9148 0 0 0
25.38091 1007.546 0 0 0
25.38971 1008.065 0 0 0
25.39852 1011.7595 0 0 0
25.40732 1009.8555 0 0 0
25.41612 1011.6966 0 0 0
25.42492 1007.4631 0 0 0
25.43372 1001.548 0 0 0
25.44253 995.5708 0 0 0
25.45133 986.46375 0 0 0
25.46013 979.33722 0 0 0
25.46893 971.51611 0 0 0
25.47774 965.68463 0 0 0
25.48654 959.4613 0 0 0
25.49534 955.14484 0 0 0
25.50414 950.05432 0 0 0
25.51294 945.64532 0 0 0
25.52175 942.49261 0 0 0
25.53055 940.92554 0 0 0
25.53935 941.04224 0 0 0
25.54815 942.54425 0 0 0
25.55695 944.8479 0 0 0
25.56576 947.67773 0 0 0
25.57456 951.69489 0 0 0
25.58336 953.66986 0 0 0
25.59216 955.72955 0 0 0
25.60096 957.10712 0 0 0
25.60977 956.70837 0 0 0
25.61857 957.53308 0 0 0
25.62737 956.74249 0 0 0
25.63618 955.69354 0 0 0
25.64498 956.55804 0 0 0
25.65378 958.42267 0 0 0
25.66258 960.76062 0 0 0
25.67138 963.51617 0 0 0
25.68019 967.40149 0 0 0
25.68899 972.48157 0 0 0
25.69779 978.71112 0 0 0
25.70659 983.91351 0 0 0
25.71539 988.18024 0 0 0
25.72420 991.42169 0 0 0
25.73300 991.97583 0 0 0
25.74180 989.28656 0 0 0
25.75060 983.66968 0 0 0
25.75940 977.37787 0 0 0
25.76821 969.11578 0 0 0
25.77701 960.34277 0 0 0
25.78581 951.99774 0 0 0
25.79461 944.56897 0 0 0
25.80342 937.05981 0 0 0
25.81222 931.14642 0 0 0
25.82102 926.57098 0 0 0
25.82982 922.37866 0 0 0
25.83862 918.71326 0 0 0
25.84743 916.72296 0 0 0
25.85623 915.98688 0 0 0
25.86503 916.78278 0 0 0
25.87383 917.74927 0 0 0
25.88263 919.09607 0 0 0
25.89144 919.74176 0 0 0
25.90024 922.79175 0 0 0
25.90904 926.98102 0 0 0
25.91784 931.53375 0 0 0
25.92664 937.26355 0 0 0
25.93545 942.03766 0 0 0
25.94425 948.89172 0 0 0
25.95305 956.16229 0 0 0
25.96185 964.64917 0 0 0
25.97066 970.9859 0 0 0
25.97946 978.94696 0 0 0
25.98826 985.12195 0 0 0
25.99706 988.90344 0 0 0
26.00586 989.93805 0 0 0
26.01467 986.91785 0 0 0
26.02347 982.76154 0 0 0
26.03227 977.81342 0 0 0
26.04107 973.44904 0 0 0
26.04987 965.69659 0 0 0
26.05868 955.68823 0 0 0
26.06748 944.1366 0 0 0
26.07628 934.38989 0 0 0
26.08508 926.59436 0 0 0
26.09388 920.27625 0 0 0
26.10269 915.56775 0 0 0
26.11149 911.80316 0 0 0
26.12029 909.52026 0 0 0
26.12909 906.92645 0 0 0
26.13790 905.34204 0 0 0
26.14670 903.97913 0 0 0
26.15550 903.38104 0 0 0
26.16430 902.58911 0 0 0
26.17310 902.2077 0 0 0
26.18191 901.84369 0 0 0
26.19071 902.70648 0 0 0
26.19951 904.34802 0 0 0
26.20831 905.73108 0 0 0
26.21711 907.88153 0 0 0
26.22592 910.26373 0 0 0
26.23472 912.99548 0 0 0
26.24352 915.47308 0 0 0
26.25232 919.38666 0 0 0
26.26113 922.94238 0 0 0
26.26993 923.96393 0 0 0
26.27873 924.82312 0 0 0
26.28753 925.55939 0 0 0
26.29633 925.43774 0 0 0
26.30514 925.47717 0 0 0
26.31394 925.24701 0 0 0
26.32274 924.96326 0 0 0
26.33154 924.66693 0 0 0
26.34034 922.53552 0 0 0
26.34915 921.26617 0 0 0
26.35795 921.19818 0 0 0
26.36675 920.5199 0 0 0
26.37555 920.36334 0 0 0
26.38435 920.63959 0 0 0
26.39316 921.89783 0 0 0
26.40196 924.01752 0 0 0
26.41076 925.74402 0 0 0
26.41956 927.2041 0 0 0
26.42837 928.89636 0 0 0
26.43717 931.45953 0 0 0
26.44597 934.01105 0 0 0
26.45477 934.48676 0 0 0
26.46357 933.21484 0 0 0
26.47238 931.44128 0 0 0
26.48118 929.34027 0 0 0
26.48998 926.05505 0 0 0
26.49878 921.56799 0 0 0
26.50758 917.48315 0 0 0
26.51639 914.37292 0 0 0
26.52519 913.52985 0 0 0
26.53399 914.14447 0 0 0
26.54279 915.05292 0 0 0
26.55159 916.54901 0 0 0
26.56040 918.84344 0 0 0
26.56920 922.20563 0 0 0
26.57800 925.31512 0 0 0
26.58680 927.04395 0 0 0
26.59561 926.78223 0 0 0
26.60441 925.06079 0 0 0
26.61321 924.10876 0 0 0
26.62201 923.56232 0 0 0
26.63081 922.11865 0 0 0
26.63962 920.40509 0 0 0
26.64842 919.12592 0 0 0
26.65722 918.29327 0 0 0
26.66602 916.03845 0 0 0
26.67482 912.36194 0 0 0
26.68363 908.54401 0 0 0
26.69243 905.32208 0 0 0
26.70123 903.05383 0 0 0
26.71003 900.89661 0 0 0
26.71884 899.1955 0 0 0
26.72764 898.11481 0 0 0
26.73644 897.34088 0 0 0
26.74524 896.34631 0 0 0
26.75404 895.75525 0 0 0
26.76285 895.52209 0 0 0
26.77165 895.70868 0 0 0
26.78045 896.12738 0 0 0
26.78925 896.32178 0 0 0
26.79805 896.43256 0 0 0
26.80686 896.37122 0 0 0
26.81566 896.03412 0 0 0
26.82446 895.56946 0 0 0
26.83326 895.76569 0 0 0
26.84206 896.15179 0 0 0
26.85087 896.62134 0 0 0
26.85967 897.00403 0 0 0
26.86847 895.88232 0 0 0
26.87727 894.36218 0 0 0
26.88608 892.63373 0 0 0
26.89488 891.18488 0 0 0
26.90368 890.80371 0 0 0
26.91248 890.80585 0 0 0
26.92128 890.20422 0 0 0
26.93009 890.26251 0 0 0
26.93889 891.15747 0 0 0
26.94769 892.17303 0 0 0
26.95649 893.74445 0 0 0
26.96529 895.78583 0 0 0
26.97410 898.60583 0 0 0
26.98290 900.15265 0 0 0
26.99170 899.20502 0 0 0
27.00050 897.97272 0 0 0
27.00930 896.7453 0 0 0
27.01811 894.46069 0 0 0
27.02691 892.06604 0 0 0
27.03571 890.14764 0 0 0
27.04451 888.70532 0 0 0
27.05332 887.30371 0 0 0
27.06212 886.23871 0 0 0
27.07092 886.15826 0 0 0
27.07972 886.49298 0 0 0
27.08852 886.50189 0 0 0
27.09733 886.85413 0 0 0
27.10613 886.82904 0 0 0
27.11493 886.39618 0 0 0
27.12373 887.62347 0 0 0
27.13253 889.31952 0 0 0
27.14134 889.7674 0 0 0
27.15014 890.85016 0 0 0
27.15894 892.90833 0 0 0
27.16774 894.11816 0 0 0
27.17655 895.73547 0 0 0
27.18535 898.96069 0 0 0
27.19415 901.27856 0 0 0
27.20295 903.73975 0 0 0
27.21175 907.48981 0 0 0
27.22056 910.26898 0 0 0
27.22936 914.09808 0 0 0
27.23816 917.88098 0 0 0
27.24696 919.06525 0 0 0
27.25576 918.49451 0 0 0
27.26457 916.85327 0 0 0
27.27337 915.08734 0 0 0
27.28217 913.63434 0 0 0
27.29097 912.1012 0 0 0
27.29977 909.54156 0 0 0
27.30858 907.21063 0 0 0
27.31738 905.0415 0 0 0
27.32618 902.9906 0 0 0
27.33498 901.29907 0 0 0
27.34379 898.30713 0 0 0
27.35259 895.54382 0 0 0
27.36139 894.52094 0 0 0
27.37019 893.64038 0 0 0
27.37899 891.81067 0 0 0
27.38780 890.1424 0 0 0
27.39660 890.01538 0 0 0
27.40540 890.25177 0 0 0
27.41420 889.37885 0 0 0
27.42300 888.72791 0 0 0
27.43181 889.56543 0 0 0
27.44061 891.16089 0 0 0
27.44941 892.04291 0 0 0
27.45821 892.32507 0 0 0
27.46701 892.90961 0 0 0
27.47582 893.61902 0 0 0
27.48462 894.19287 0 0 0
27.49342 895.09357 0 0 0
27.50222 897.27008 0 0 0
27.51103 899.89301 0 0 0
27.51983 901.64386 0 0 0
27.52863 903.41718 0 0 0
27.53743 905.75983 0 0 0
27.54623 909.13068 0 0 0
27.55504 913.55237 0 0 0
27.56384 917.82458 0 0 0
27.57264 921.58722 0 0 0
27.58144 926.7608 0 0 0
27.59024 932.3194 0 0 0
27.59905 936.30145 0 0 0
27.60785 941.38098 0 0 0
27.61665 947.48718 0 0 0
27.62545 952.14862 0 0 0
27.63426 956.7442 0 0 0
27.64306 959.59216 0 0 0
27.65186 958.71826 0 0 0
27.66066 957.36774 0 0 0
27.66946 956.82172 0 0 0
27.67827 955.17883 0 0 0
27.68707 951.41895 0 0 0
27.69587 947.70782 0 0 0
27.70467 943.7312 0 0 0
27.71347 938.29346 0 0 0
27.72228 932.12537 0 0 0
27.73108 925.01654 0 0 0
27.73988 919.00409 0 0 0
27.74868 913.78723 0 0 0
27.75748 909.84448 0 0 0
27.76629 906.91504 0 0 0
27.77509 903.42578 0 0 0
27.78389 900.53223 0 0 0
27.79269 898.11615 0 0 0
27.80150 895.95831 0 0 0
27.81030 894.08429 0 0 0
27.81910 892.00623 0 0 0
27.82790 891.3244 0 0 0
27.83670 890.55719 0 0 0
27.84551 889.60309 0 0 0
27.85431 888.85089 0 0 0
27.86311 886.72302 0 0 0
27.87191 886.05707 0 0 0
27.88071 886.50433 0 0 0
27.88952 886.1983 0 0 0
27.89832 885.39813 0 0 0
27.90712 885.02808 0 0 0
27.91592 884.5343 0 0 0
27.92472 883.47656 0 0 0
27.93353 883.11572 0 0 0
27.94233 883.27734 0 0 0
27.95113 883.03339 0 0 0
27.95993 884.07703 0 0 0
27.96874 885.81171 0 0 0
27.97754 886.43909 0 0 0
27.98634 886.4046 0 0 0
27.99514 888.24915 0 0 0
28.00394 890.11444 0 0 0
28.01275 889.68622 0 0 0
28.02155 890.20319 0 0 0
28.03035 891.87366 0 0 0
28.03915 893.1543 0 0 0
28.04796 892.91113 0 0 0
28.05676 891.66956 0 0 0
28.06556 891.72638 0 0 0
28.07436 892.50555 0 0 0
28.08316 892.46906 0 0 0
28.09196 892.59161 0 0 0
28.10077 893.86047 0 0 0
28.10957 894.49805 0 0 0
28.11837 893.69434 0 0 0
28.12717 894.12665 0 0 0
28.13598 896.10632 0 0 0
28.14478 897.50378 0 0 0
28.15358 898.15558 0 0 0
28.16238 901.02502 0 0 0
28.17119 903.91125 0 0 0
28.17999 903.95526 0 0 0
28.18879 906.11676 0 0 0
28.19759 911.22974 0 0 0
28.20639 915.04028 0 0 0
28.21520 916.47113 0 0 0
28.22400 918.02527 0 0 0
28.23280 920.64124 0 0 0
28.24160 922.1767 0 0 0
28.25040 922.81561 0 0 0
28.25921 923.61829 0 0 0
28.26801 923.65527 0 0 0
28.27681 923.74072 0 0 0
28.28561 922.54224 0 0 0
28.29442 920.25342 0 0 0
28.30322 918.23828 0 0 0
28.31202 916.729 0 0 0
28.32082 916.11365 0 0 0
28.32962 909.53516 0 0 0
28.33843 892.26074 0 0 0
28.34723 889.89539 0 0 0
28.35603 900.40576 0 0 0
28.36483 903.72412 0 0 0
28.37363 905.88641 0 0 0
28.38244 908.5163 0 0 0
28.39124 910.4964 0 0 0
28.40004 911.34576 0 0 0
28.40884 912.45203 0 0 0
28.41765 911.55188 0 0 0
28.42645 909.42303 0 0 0
28.43525 908.31824 0 0 0
28.44405 906.57172 0 0 0
28.45285 903.68353 0 0 0
28.46166 901.31403 0 0 0
28.47046 899.16199 0 0 0
28.47926 896.77722 0 0 0
28.48806 894.00079 0 0 0
28.49686 891.42285 0 0 0
28.50567 889.92023 0 0 0
28.51447 888.94855 0 0 0
28.52327 887.55072 0 0 0
28.53207 885.40228 0 0 0
28.54087 883.84955 0 0 0
28.54968 882.2052 0 0 0
28.55848 881.20026 0 0 0
28.56728 879.83319 0 0 0
28.57608 879.22485 0 0 0
28.58488 879.50464 0 0 0
28.59369 879.3028 0 0 0
28.60249 879.54651 0 0 0
28.61129 880.61212 0 0 0
28.62009 880.38428 0 0 0
28.62889 879.89215 0 0 0
28.63770 879.22052 0 0 0
28.64650 879.08887 0 0 0
28.65530 879.30609 0 0 0
28.66410 879.39465 0 0 0
28.67291 880.63849 0 0 0
28.68171 881.33118 0 0 0
28.69051 880.91528 0 0 0
28.69931 879.84753 0 0 0
28.70811 879.83795 0 0 0
28.71692 881.23456 0 0 0
28.72572 883.5011 0 0 0
28.73452 884.67377 0 0 0
28.74332 885.27655 0 0 0
28.75212 885.56952 0 0 0
28.76093 886.40143 0 0 0
28.76973 886.8858 0 0 0
28.77853 890.57001 0 0 0
28.78733 894.67395 0 0 0
28.79613 893.76599 0 0 0
28.80494 894.185 0 0 0
28.81374 896.20728 0 0 0
28.82254 898.34955 0 0 0
28.83134 899.07794 0 0 0
28.84014 899.23712 0 0 0
28.84895 900.99103 0 0 0
28.85775 903.17731 0 0 0
28.86655 904.96967 0 0 0
28.87535 908.06506 0 0 0
28.88416 912.4455 0 0 0
28.89296 917.4483 0 0 0
28.90176 921.11578 0 0 0
28.91056 921.94232 0 0 0
28.91936 922.96307 0 0 0
28.92817 922.73608 0 0 0
28.93697 919.98328 0 0 0
28.94577 917.30414 0 0 0
28.95457 915.52692 0 0 0
28.96337 914.55225 0 0 0
28.97218 914.59235 0 0 0
28.98098 914.97278 0 0 0
28.98978 916.69977 0 0 0
28.99858 918.74133 0 0 0
29.00738 920.59174 0 0 0
29.01619 923.06085 0 0 0
29.02499 922.95569 0 0 0
29.03379 921.00336 0 0 0
29.04259 916.98395 0 0 0
29.05140 912.93164 0 0 0
29.06020 909.92212 0 0 0
29.06900 905.2439 0 0 0
29.07780 901.19232 0 0 0
29.08660 896.90656 0 0 0
29.09541 893.88763 0 0 0
29.10421 895.36432 0 0 0
29.11301 896.06158 0 0 0
29.12181 894.45135 0 0 0
29.13061 895.14227 0 0 0
29.13942 896.03345 0 0 0
29.14822 896.9035 0 0 0
29.15702 897.91064 0 0 0
29.16583 899.81274 0 0 0
29.17463 903.54163 0 0 0
29.18343 906.43829 0 0 0
29.19223 909.1618 0 0 0
29.20103 912.03229 0 0 0
29.20984 914.55383 0 0 0
29.21864 918.64008 0 0 0
29.22744 921.59399 0 0 0
29.23624 922.1366 0 0 0
29.24504 922.52594 0 0 0
29.25384 923.74194 0 0 0
29.26265 925.25427 0 0 0
29.27145 928.03571 0 0 0
29.28025 930.98425 0 0 0
29.28906 932.19958 0 0 0
29.29785 933.58008 0 0 0
29.30666 934.91193 0 0 0
29.31546 935.23047 0 0 0
29.32426 933.47626 0 0 0
29.33307 932.57355 0 0 0
29.34187 931.98279 0 0 0
29.35067 930.75098 0 0 0
29.35947 930.22015 0 0 0
29.36827 930.33661 0 0 0
29.37708 931.00391 0 0 0
29.38588 931.32684 0 0 0
29.39468 930.35669 0 0 0
29.40348 927.37805 0 0 0
29.41228 925.01355 0 0 0
29.42109 921.78143 0 0 0
29.42989 919.90527 0 0 0
29.43869 919.3667 0 0 0
29.44749 917.73285 0 0 0
29.45630 916.21118 0 0 0
29.46510 912.22375 0 0 0
29.47390 908.85773 0 0 0
29.48270 907.61749 0 0 0
29.49150 903.4588 0 0 0
29.50031 900.29022 0 0 0
29.50911 898.79852 0 0 0
29.51791 895.58105 0 0 0
29.52671 893.4483 0 0 0
29.53551 893.05731 0 0 0
29.54432 892.86755 0 0 0
29.55312 890.79712 0 0 0
29.56192 888.6275 0 0 0
29.57072 887.56561 0 0 0
29.57952 886.5307 0 0 0
29.58833 887.0213 0 0 0
29.59713 886.8335 0 0 0
29.60593 886.78748 0 0 0
29.61473 886.98389 0 0 0
29.62354 884.9574 0 0 0
29.63234 883.84271 0 0 0
29.64114 886.01678 0 0 0
29.64994 888.14648 0 0 0
29.65874 888.44885 0 0 0
29.66755 888.78583 0 0 0
29.67635 890.0282 0 0 0
29.68515 891.84827 0 0 0
29.69395 893.2757 0 0 0
29.70275 893.29791 0 0 0
29.71156 894.48767 0 0 0
29.72036 896.07556 0 0 0
29.72916 896.29388 0 0 0
29.73796 896.14508 0 0 0
29.74676 895.75482 0 0 0
29.75557 895.01715 0 0 0
29.76437 894.8186 0 0 0
29.77317 895.46155 0 0 0
29.78197 895.4751 0 0 0
29.79078 896.30914 0 0 0
29.79958 898.06049 0 0 0
29.80838 898.78101 0 0 0
29.81718 899.42261 0 0 0
29.82598 900.90991 0 0 0
29.83479 903.14288 0 0 0
29.84359 906.01111 0 0 0
29.85239 908.8457 0 0 0
29.86119 911.49896 0 0 0
29.86999 914.02649 0 0 0
29.87880 918.95557 0 0 0
29.88760 922.29913 0 0 0
29.89640 924.22205 0 0 0
29.90520 925.5592 0 0 0
29.91400 926.60425 0 0 0
29.92281 928.36823 0 0 0
29.93161 928.34991 0 0 0
29.94041 923.83234 0 0 0
29.94921 920.79541 0 0 0
29.95801 919.37231 0 0 0
29.96682 914.88202 0 0 0
29.97562 911.88458 0 0 0
29.98442 908.23865 0 0 0
29.99322 905.26508 0 0 0
30.00203 903.19244 0 0 0
30.01083 900.90332 0 0 0
30.01963 900.55908 0 0 0
30.02843 901.80554 0 0 0
30.03723 903.52948 0 0 0
30.04604 905.46637 0 0 0
30.05484 908.29651 0 0 0
30.06364 913.48291 0 0 0
30.07244 921.67346 0 0 0
30.08124 929.21283 0 0 0
30.09005 934.37384 0 0 0
30.09885 938.36938 0 0 0
30.10765 941.05444 0 0 0
30.11645 941.55286 0 0 0
30.12526 938.30072 0 0 0
30.13406 933.60278 0 0 0
30.14286 929.61591 0 0 0
30.15166 923.6427 0 0 0
30.16046 917.63788 0 0 0
30.16927 913.73175 0 0 0
30.17807 912.09985 0 0 0
30.18687 911.52716 0 0 0
30.19567 909.85071 0 0 0
30.20447 907.67615 0 0 0
30.21328 905.35815 0 0 0
30.22208 902.15009 0 0 0
30.23088 897.55615 0 0 0
30.23968 891.87238 0 0 0
30.24849 889.70325 0 0 0
30.25729 888.60638 0 0 0
30.26609 885.98523 0 0 0
30.27489 883.26672 0 0 0
30.28369 882.69446 0 0 0
30.29250 881.77008 0 0 0
30.30130 880.21973 0 0 0
30.31010 881.26758 0 0 0
30.31890 882.33405 0 0 0
30.32770 882.41559 0 0 0
30.33651 881.91766 0 0 0
30.34531 880.31519 0 0 0
30.35411 881.73438 0 0 0
30.36291 883.09979 0 0 0
30.37172 882.99255 0 0 0
30.38052 882.8689 0 0 0
30.38932 880.91583 0 0 0
30.39812 879.65314 0 0 0
30.40692 881.67578 0 0 0
30.41573 882.2157 0 0 0
30.42453 883.24695 0 0 0
30.43333 885.75293 0 0 0
30.44213 885.65808 0 0 0
30.45093 884.42432 0 0 0
30.45974 884.79022 0 0 0
30.46854 883.70801 0 0 0
30.47734 883.51129 0 0 0
30.48614 883.68652 0 0 0
30.49494 885.28491 0 0 0
30.50375 885.81781 0 0 0
30.51255 884.77832 0 0 0
30.52135 883.0191 0 0 0
30.53015 882.90424 0 0 0
30.53896 883.5929 0 0 0
30.54776 884.96985 0 0 0
30.55656 884.56921 0 0 0
30.56536 882.02393 0 0 0
30.57416 882.80341 0 0 0
30.58297 885.91565 0 0 0
30.59177 886.25543 0 0 0
30.60057 887.90686 0 0 0
30.60937 890.66614 0 0 0
30.61817 890.83911 0 0 0
30.62698 890.85571 0 0 0
30.63578 892.02094 0 0 0
30.64458 895.07507 0 0 0
30.65338 896.75903 0 0 0
30.66218 896.81006 0 0 0
30.67099 896.41052 0 0 0
30.67979 896.47284 0 0 0
30.68859 897.65204 0 0 0
30.69739 896.70288 0 0 0
30.70620 897.42145 0 0 0
30.71500 896.27997 0 0 0
30.72380 893.48553 0 0 0
30.73260 890.6333 0 0 0
30.74140 887.9231 0 0 0
30.75021 885.84698 0 0 0
30.75901 883.73621 0 0 0
30.76781 882.24567 0 0 0
30.77661 881.77637 0 0 0
30.78541 882.1687 0 0 0
30.79422 880.87573 0 0 0
30.80302 879.6004 0 0 0
30.81182 878.48468 0 0 0
30.82062 874.76691 0 0 0
30.82943 872.87006 0 0 0
30.83823 874.41211 0 0 0
30.84703 872.60217 0 0 0
30.85583 872.75702 0 0 0
30.86463 874.68219 0 0 0
30.87344 874.77527 0 0 0
30.88224 873.55164 0 0 0
30.89104 872.47369 0 0 0
30.89984 871.35699 0 0 0
30.90864 869.29877 0 0 0
30.91745 869.56097 0 0 0
30.92625 871.24786 0 0 0
30.93505 872.35297 0 0 0
30.94385 872.60938 0 0 0
30.95265 872.80493 0 0 0
30.96146 871.04358 0 0 0
30.97026 869.45856 0 0 0
30.97906 869.81573 0 0 0
30.98786 868.22559 0 0 0
30.99667 868.73621 0 0 0
31.00547 869.89355 0 0 0
31.01427 872.90759 0 0 0
31.02307 875.71912 0 0 0
31.03187 874.83691 0 0 0
31.04068 874.39246 0 0 0
31.04948 874.94519 0 0 0
31.05828 876.30646 0 0 0
31.06708 879.37543 0 0 0
31.07588 881.4624 0 0 0
31.08469 882.28473 0 0 0
31.09349 883.18542 0 0 0
31.10229 883.52997 0 0 0
31.11109 885.22852 0 0 0
31.11989 887.76019 0 0 0
31.12870 888.25372 0 0 0
31.13750 886.64764 0 0 0
31.14630 887.16467 0 0 0
31.15510 889.64844 0 0 0
31.16391 891.62787 0 0 0
31.17271 893.72223 0 0 0
31.18151 895.9267 0 0 0
31.19031 896.74518 0 0 0
31.19911 896.40076 0 0 0
31.20792 898.59619 0 0 0
31.21672 900.45941 0 0 0
31.22552 901.43018 0 0 0
31.23432 906.12207 0 0 0
31.24312 911.46179 0 0 0
31.25193 914.99567 0 0 0
31.26073 919.60297 0 0 0
31.26953 925.3017 0 0 0
31.27833 929.08533 0 0 0
31.28714 933.89056 0 0 0
31.29594 937.43231 0 0 0
31.30474 940.96954 0 0 0
31.31354 943.62909 0 0 0
31.32234 943.58502 0 0 0
31.33115 942.84052 0 0 0
31.33995 941.6911 0 0 0
31.34875 942.16321 0 0 0
31.35755 938.91486 0 0 0
31.36635 936.06042 0 0 0
31.37516 938.09076 0 0 0
31.38396 936.01849 0 0 0
31.39276 930.1413 0 0 0
31.40156 925.16791 0 0 0
31.41036 921.87103 0 0 0
31.41917 921.00842 0 0 0
31.42797 913.70715 0 0 0
31.43677 905.64325 0 0 0
31.44557 903.0849 0 0 0
31.45438 903.30304 0 0 0
31.46318 904.72168 0 0 0
31.47198 904.71021 0 0 0
31.48078 903.77228 0 0 0
31.48958 903.09796 0 0 0
31.49839 905.55524 0 0 0
31.50719 904.53174 0 0 0
31.51599 901.88043 0 0 0
31.52479 900.37598 0 0 0
31.53359 895.34412 0 0 0
31.54240 889.3938 0 0 0
31.55120 886.31921 0 0 0
31.56000 884.13599 0 0 0
31.56880 884.11871 0 0 0
31.57760 884.69818 0 0 0
31.58641 885.38153 0 0 0
31.59521 884.95752 0 0 0
31.60401 884.58527 0 0 0
31.61281 885.26617 0 0 0
31.62162 887.01709 0 0 0
31.63042 882.07745 0 0 0
31.63922 875.56842 0 0 0
31.64802 874.46466 0 0 0
31.65682 871.35596 0 0 0
31.66563 868.59863 0 0 0
31.67443 867.21191 0 0 0
31.68323 864.95178 0 0 0
31.69203 865.31067 0 0 0
31.70083 863.38184 0 0 0
31.70964 862.85956 0 0 0
31.71844 868.24487 0 0 0
31.72724 869.41779 0 0 0
31.73604 865.87872 0 0 0
31.74485 862.73114 0 0 0
31.75365 861.91589 0 0 0
31.76245 860.50336 0 0 0
31.77125 860.54932 0 0 0
31.78005 860.70276 0 0 0
31.78886 862.06158 0 0 0
31.79766 866.80359 0 0 0
31.80646 870.21942 0 0 0
31.81526 868.89752 0 0 0
31.82406 869.78778 0 0 0
31.83287 871.06458 0 0 0
31.84167 867.88141 0 0 0
31.85047 868.24115 0 0 0
31.85927 868.45416 0 0 0
31.86807 865.94678 0 0 0
31.87688 868.51477 0 0 0
31.88568 868.30634 0 0 0
31.89448 862.96533 0 0 0
31.90328 858.97449 0 0 0
31.91209 856.23407 0 0 0
31.92089 854.09064 0 0 0
31.92969 853.60858 0 0 0
31.93849 851.55664 0 0 0
31.94729 848.07098 0 0 0
31.95610 846.42224 0 0 0
31.96490 842.66418 0 0 0
31.97370 843.97168 0 0 0
31.98250 844.78052 0 0 0
31.99130 842.49707 0 0 0
32.00011 840.68665 0 0 0
32.00891 835.84821 0 0 0
32.01771 838.10168 0 0 0
32.02651 839.98572 0 0 0
32.03532 839.44781 0 0 0
32.04412 839.17865 0 0 0
32.05292 835.64935 0 0 0
32.06172 835.12018 0 0 0
32.07052 839.61853 0 0 0
32.07933 843.76282 0 0 0
32.08813 846.82697 0 0 0
32.09693 847.28442 0 0 0
32.10573 849.19604 0 0 0
32.11454 849.62189 0 0 0
32.12334 847.6875 0 0 0
32.13214 844.59637 0 0 0
32.14094 840.61584 0 0 0
32.14974 842.9762 0 0 0
32.15855 842.84033 0 0 0
32.16735 846.12439 0 0 0
32.17615 851.06006 0 0 0
32.18495 846.51538 0 0 0
32.19375 848.85516 0 0 0
32.20256 852.01929 0 0 0
32.21136 851.43182 0 0 0
32.22016 844.80695 0 0 0
32.22896 845.40509 0 0 0
32.23776 844.23663 0 0 0
32.24657 841.02881 0 0 0
32.25537 844.38525 0 0 0
32.26417 840.53131 0 0 0
32.27297 839.23547 0 0 0
32.28178 840.98059 0 0 0
32.29058 842.06226 0 0 0
32.29938 837.5614 0 0 0
32.30818 838.04755 0 0 0
32.31698 838.65326 0 0 0
32.32579 836.45245 0 0 0
32.33459 844.20166 0 0 0
32.34339 844.00415 0 0 0
32.35219 843.94397 0 0 0
32.36099 842.56879 0 0 0
32.36980 842.3363 0 0 0
32.37860 846.41193 0 0 0
32.38740 843.66199 0 0 0
32.39620 833.54114 0 0 0
32.40500 831.77911 0 0 0
32.41381 829.50208 0 0 0
32.42261 825.13446 0 0 0
32.43141 823.0802 0 0 0
32.44021 822.9696 0 0 0
32.44902 832.17865 0 0 0
32.45782 836.31006 0 0 0
32.46662 828.34821 0 0 0
32.47542 824.59064 0 0 0
32.48422 827.17444 0 0 0
32.49303 823.10089 0 0 0
32.50183 816.2995 0 0 0
32.51063 812.31427 0 0 0
32.51943 814.56793 0 0 0
32.52823 817.68799 0 0 0
32.53704 814.42944 0 0 0
32.54584 808.44513 0 0 0
32.55464 801.66479 0 0 0
32.56344 795.4516 0 0 0
32.57225 794.66937 0 0 0
32.58105 792.91748 0 0 0
32.58985 789.63574 0 0 0
32.59865 784.70111 0 0 0
32.60745 781.04059 0 0 0
32.61626 782.13623 0 0 0
32.62506 767.17999 0 0 0
32.63386 757.80835 0 0 0
32.64266 768.61017 0 0 0
32.65146 776.01874 0 0 0
32.66027 777.86316 0 0 0
32.66907 777.01776 0 0 0
32.67787 773.6626 0 0 0
32.68667 761.83319 0 0 0
32.69547 744.83948 0 0 0
32.70428 741.89917 0 0 0
32.71308 747.28564 0 0 0
32.72188 744.31897 0 0 0
32.73068 718.14197 0 0 0
32.73949 705.98987 0 0 0
32.74829 709.76837 0 0 0
32.75709 700.50049 0 0 0
32.76589 687.68005 0 0 0
32.77469 671.56805 0 0 0
32.78350 646.95306 0 0 0
32.79230 620.71564 0 0 0
32.80110 591.34094 0 0 0
32.80990 547.41571 0 0 0
32.81870 464.54343 0 0 0
32.82751 381.51694 0 0 0
32.83631 251.11554 0 0 0
32.84511 172.6792 0 0 0
32.85391 189.09024 0 0 0
32.86271 191.01572 0 0 0
32.87152 195.48296 0 0 0
32.88032 199.75371 0 0 0
32.88912 194.04602 0 0 0
32.89792 183.58258 0 0 0
32.90673 178.13652 0 0 0
32.91553 170.75481 0 0 0
32.92433 170.64398 0 0 0
32.93313 182.10747 0 0 0
32.94193 197.98035 0 0 0
32.95074 201.5905 0 0 0
32.95954 196.12645 0 0 0
32.96834 198.34291 0 0 0
32.97714 200.28244 0 0 0
32.98594 195.36198 0 0 0
32.99475 186.18346 0 0 0
33.00355 186.83105 0 0 0
33.01235 182.98415 0 0 0
33.02115 183.30426 0 0 0
33.02996 186.12582 0 0 0
33.03876 192.51698 0 0 0
33.04756 198.03661 0 0 0
33.05636 195.76645 0 0 0
33.06516 197.01376 0 0 0
33.07397 196.14563 0 0 0
33.08277 198.15819 0 0 0
33.09157 194.43013 0 0 0
33.10037 180.29793 0 0 0
33.10917 171.68985 0 0 0
33.11798 177.7039 0 0 0
33.12678 180.51855 0 0 0
33.13558 183.34676 0 0 0
33.14438 184.02473 0 0 0
33.15318 185.40768 0 0 0
33.16199 195.39902 0 0 0
33.17079 201.37312 0 0 0
33.17959 195.1722 0 0 0
33.18839 190.2088 0 0 0
33.19720 194.85486 0 0 0
33.20600 193.22981 0 0 0
33.21480 191.46788 0 0 0
33.22360 190.04623 0 0 0
33.23240 189.03889 0 0 0
33.24121 193.37538 0 0 0
33.25001 196.56084 0 0 0
33.25881 195.118 0 0 0
33.26761 194.7421 0 0 0
33.27641 202.58592 0 0 0
33.28522 215.30531 0 0 0
33.29402 222.95341 0 0 0
33.30282 208.69893 0 0 0
33.31162 194.59938 0 0 0
33.32042 187.12445 0 0 0
33.32923 183.994 0 0 0
33.33803 188.18192 0 0 0
33.34683 197.26796 0 0 0
33.35563 206.3718 0 0 0
33.36444 198.29448 0 0 0
33.37324 186.58693 0 0 0
33.38204 184.40132 0 0 0
33.39084 199.72569 0 0 0
33.39964 209.19148 0 0 0
33.40845 209.70157 0 0 0
33.41725 206.16508 0 0 0
33.42605 198.23203 0 0 0
33.43485 189.27422 0 0 0
33.44365 185.43132 0 0 0
33.45246 190.59006 0 0 0
33.46126 190.81274 0 0 0
33.47006 191.95094 0 0 0
33.47886 191.51111 0 0 0
33.48766 188.39665 0 0 0
33.49647 191.29477 0 0 0
33.50527 194.70802 0 0 0
33.51407 196.89819 0 0 0
33.52287 192.77292 0 0 0
33.53168 187.93959 0 0 0
33.54048 192.00464 0 0 0
33.54928 193.08951 0 0 0
33.55808 198.9081 0 0 0
33.56688 206.98546 0 0 0
33.57569 201.53624 0 0 0
33.58449 199.90923 0 0 0
33.59329 204.49162 0 0 0
33.60209 207.54929 0 0 0
33.61089 211.50423 0 0 0
33.61970 215.4817 0 0 0
33.62850 216.72084 0 0 0
33.63730 213.7834 0 0 0
33.64610 212.96558 0 0 0
33.65491 205.53189 0 0 0
33.66371 190.21147 0 0 0
33.67251 179.27762 0 0 0
33.68131 184.64951 0 0 0
33.69011 190.61658 0 0 0
33.69892 198.77077 0 0 0
33.70772 198.81731 0 0 0
33.71652 202.15344 0 0 0
33.72532 206.79834 0 0 0
33.73412 203.61197 0 0 0
33.74293 193.32484 0 0 0
33.75173 192.99992 0 0 0
33.76053 198.00763 0 0 0
33.76933 200.86777 0 0 0
33.77813 187.47009 0 0 0
33.78694 177.04428 0 0 0
33.79574 179.92157 0 0 0
33.80454 192.77145 0 0 0
33.81334 207.01634 0 0 0
33.82215 206.74828 0 0 0
33.83095 203.47636 0 0 0
33.83975 205.10387 0 0 0
33.84855 202.5334 0 0 0
33.85735 187.77446 0 0 0
33.86616 179.09525 0 0 0
33.87496 183.33893 0 0 0
33.88376 187.58997 0 0 0
33.89256 199.35947 0 0 0
33.90136 202.90393 0 0 0
33.91017 196.15436 0 0 0
33.91897 192.45538 0 0 0
33.92777 192.77214 0 0 0
33.93657 194.25281 0 0 0
33.94537 201.90993 0 0 0
33.95418 202.08507 0 0 0
33.96298 193.65909 0 0 0
33.97178 189.35081 0 0 0
33.98058 196.24222 0 0 0
33.98939 205.89085 0 0 0
33.99819 214.39238 0 0 0
34.00699 218.33 0 0 0
34.01579 223.53917 0 0 0
34.02459 224.5529 0 0 0
34.03340 207.94312 0 0 0
34.04220 196.76382 0 0 0
34.05100 183.57532 0 0 0
34.05980 179.13211 0 0 0
34.06860 179.61617 0 0 0
34.07741 188.63086 0 0 0
34.08621 189.89299 0 0 0
34.09501 193.72621 0 0 0
34.10381 201.86086 0 0 0
34.11262 203.19325 0 0 0
34.12142 204.5887 0 0 0
34.13022 200.68764 0 0 0
34.13902 202.59656 0 0 0
34.14782 215.08075 0 0 0
34.15663 205.17528 0 0 0
34.16543 192.82802 0 0 0
34.17423 187.62738 0 0 0
34.18303 194.40356 0 0 0
34.19183 196.08969 0 0 0
34.20064 198.45441 0 0 0
34.20944 202.05353 0 0 0
34.21824 205.47076 0 0 0
34.22704 201.26819 0 0 0
34.23584 199.13208 0 0 0
34.24465 194.12558 0 0 0
34.25345 188.15451 0 0 0
34.26225 192.39322 0 0 0
34.27105 201.49156 0 0 0
34.27986 200.51373 0 0 0
34.28866 195.80397 0 0 0
34.29746 202.68645 0 0 0
34.30626 201.88036 0 0 0
34.31506 199.76091 0 0 0
34.32387 192.35641 0 0 0
34.33267 194.9184 0 0 0
34.34147 207.2928 0 0 0
34.35027 207.78871 0 0 0
34.35907 205.06641 0 0 0
34.36788 199.79921 0 0 0
34.37668 199.86888 0 0 0
34.38548 203.44804 0 0 0
34.39428 209.97334 0 0 0
34.40308 213.71307 0 0 0
34.41189 212.88052 0 0 0
34.42069 206.61537 0 0 0
34.42949 198.9624 0 0 0
34.43829 194.12094 0 0 0
34.44710 194.64026 0 0 0
34.45590 199.4761 0 0 0
34.46470 208.61577 0 0 0
34.47350 219.24661 0 0 0
34.48230 212.28757 0 0 0
34.49111 205.93213 0 0 0
34.49991 201.88849 0 0 0
34.50871 205.79779 0 0 0
34.51751 212.91911 0 0 0
34.52631 212.3326 0 0 0
34.53512 208.41704 0 0 0
34.54392 207.31119 0 0 0
34.55272 213.02954 0 0 0
34.56152 216.09053 0 0 0
34.57033 218.14252 0 0 0
34.57913 207.53056 0 0 0
34.58793 200.22643 0 0 0
34.59673 195.39128 0 0 0
34.60553 201.89906 0 0 0
34.61434 208.98242 0 0 0
34.62314 208.94676 0 0 0
34.63194 210.79144 0 0 0
34.64074 211.75853 0 0 0
34.64954 212.0472 0 0 0
34.65835 217.21323 0 0 0
34.66715 219.63989 0 0 0
34.67595 223.42401 0 0 0
34.68475 208.33737 0 0 0
34.69355 206.05324 0 0 0
34.70236 207.42024 0 0 0
34.71116 204.53842 0 0 0
34.71996 204.32631 0 0 0
34.72876 204.07671 0 0 0
34.73757 194.26649 0 0 0
34.74637 203.80617 0 0 0
34.75517 216.36015 0 0 0
34.76397 217.83638 0 0 0
34.77277 213.75752 0 0 0
34.78158 203.94534 0 0 0
34.79038 195.10561 0 0 0
34.79918 202.15044 0 0 0
34.80798 201.64436 0 0 0
34.81678 199.95277 0 0 0
34.82559 194.80626 0 0 0
34.83439 191.02982 0 0 0
34.84319 202.5849 0 0 0
34.85199 223.52319 0 0 0
34.86079 222.03523 0 0 0
34.86960 214.85147 0 0 0
34.87840 225.791 0 0 0
34.88720 213.30907 0 0 0
34.89600 208.69485 0 0 0
34.90481 199.79233 0 0 0
34.91361 200.51158 0 0 0
34.92241 225.13066 0 0 0
34.93121 248.4597 0 0 0
34.94001 265.45013 0 0 0
34.94882 251.45114 0 0 0
34.95762 223.29044 0 0 0
34.96642 218.60289 0 0 0
34.97522 217.81639 0 0 0
34.98402 210.04562 0 0 0
34.99283 202.68413 0 0 0
35.00163 203.77817 0 0 0
35.01043 213.11273 0 0 0
35.01923 219.25029 0 0 0
35.02804 218.36829 0 0 0
35.03684 216.06883 0 0 0
35.04564 216.27066 0 0 0
35.05444 209.79478 0 0 0
35.06324 214.0992 0 0 0
35.07205 212.32155 0 0 0
35.08085 210.81187 0 0 0
35.08965 205.75653 0 0 0
35.09845 205.81645 0 0 0
35.10725 213.84587 0 0 0
35.11606 209.37273 0 0 0
35.12486 202.98552 0 0 0
35.13366 203.43594 0 0 0
35.14246 211.90268 0 0 0
35.15126 212.10417 0 0 0
35.16007 203.20149 0 0 0
35.16887 193.86971 0 0 0
35.17767 199.34509 0 0 0
35.18647 205.09016 0 0 0
35.19528 214.41795 0 0 0
35.20408 216.88933 0 0 0
loop_
_gsas_i100_meas
0.69
14.93
4.06
2.01
3.59
-0.06
19.05
11.91
7.53
100.00
14.29
17.65
0.41
0.41
20.87
42.10
0.03
28.53
6.67
9.08
2.93
0.36
1.36
5.35
-0.87
26.20
4.85
26.70
1.45
0.71
3.36
-0.07
0.27
3.31
1.19
-0.26
1.45
1.65
7.83
12.28
12.43
1.89
3.02
0.27
0.28
0.11
0.23
0.06
18.37
0.35
3.85
5.68
2.22
0.42
4.43
-0.13
0.06
6.32
4.41
0.00
8.77
0.63
30.35
0.22
2.12
1.98
-1.15
3.88
1.91
-0.55
0.21
0.66
3.47
2.83
1.32
0.05
2.23
2.03
0.30
3.27
1.49
0.43
0.01
0.08
4.15
4.23
25.53
5.37
1.74
0.02
1.95
0.88
2.43
0.16
0.01
1.20
0.31
6.17
2.29
1.29
0.10
0.29
1.87
1.30
0.26
0.41
5.53
0.00
0.19
0.37
0.70
-0.05
0.18
0.19
0.77
1.19
-0.01
0.57
0.02
0.26
1.11
0.52
3.24
0.07
0.03
1.81
11.24
0.60
4.47
0.40
0.04
0.55
0.11
0.06
2.50
0.98
-0.01
0.90
0.71
0.09
0.63
0.74
0.73
9.45
-0.03
0.07
5.83
0.31
0.01
0.34
7.45
1.34
0.24
0.31
0.01
-0.06
0.10
4.07
2.53
0.19
1.85
0.61
3.69
0.27
0.35
1.33
0.49
0.75
0.06
0.17
1.38
1.39
0.05
2.25
0.05
0.63
0.45
0.01
0.33
0.39
0.03
0.17
0.02
0.00
0.14
