#------------------------------------------------------------------------------
#$Date: 2021-02-05 01:04:31 +0200 (Fri, 05 Feb 2021) $
#$Revision: 261628 $
#$URL: file:///home/coder/svn-repositories/cod/cif/7/24/18/7241839.cif $
#------------------------------------------------------------------------------
#
# This file is available in the Crystallography Open Database (COD),
# http://www.crystallography.net/
#
# All data on this site have been placed in the public domain by the
# contributors.
#
data_7241839
loop_
_publ_author_name
'Gu\'nka, Piotr A.'
'Hanfland, Michael'
'Chen, Yu-Sheng'
'Zachara, Janusz'
_publ_section_title
;
 High-pressure and low-temperature structural study of claudetite I, a
 monoclinic layered As2O3 polymorph
;
_journal_issue                   3
_journal_name_full               CrystEngComm
_journal_page_first              638
_journal_page_last               644
_journal_paper_doi               10.1039/D0CE01401J
_journal_volume                  23
_journal_year                    2021
_chemical_formula_moiety         'As2 O3'
_chemical_formula_sum            'As2 O3'
_chemical_formula_weight         197.84
_chemical_name_common            'claudetite I'
_chemical_name_systematic
;
arsenic(III) oxide
;
_space_group_IT_number           14
_space_group_name_Hall           '-P 2yn'
_space_group_name_H-M_alt        'P 1 21/n 1'
_symmetry_cell_setting           monoclinic
_symmetry_space_group_name_H-M   'P 1 21/n 1'
_audit_creation_date             2020-10-21T13:57
_audit_creation_method           'created in GSAS-II'
_audit_update_record
;
2020-10-22 deposited with the CCDC.	2020-12-10 downloaded from the CCDC.
;
_cell_angle_alpha                90
_cell_angle_beta                 94.7902(27)
_cell_angle_gamma                90
_cell_formula_units_Z            4
_cell_length_a                   4.6442(3)
_cell_length_b                   11.6134(4)
_cell_length_c                   4.07822(22)
_cell_measurement_pressure       2.276e7(5)
_cell_measurement_temperature    293
_cell_volume                     219.19(2)
_computing_data_reduction        Fit2D
_computing_structure_refinement
'GSAS-II (Toby & Von Dreele, J. Appl. Cryst. 46, 544-549, 2013)'
_diffrn_ambient_pressure         2.276e7(5)
_diffrn_ambient_temperature      293
_diffrn_detector                 'Mar555 flat panel'
_diffrn_detector_type            'Mar555 flat panel'
_diffrn_measurement_device_type  'ESRF ID09A beamline'
_diffrn_radiation_monochromator  Si
_diffrn_radiation_polarisn_ratio 0.9900
_diffrn_radiation_probe          x-ray
_diffrn_radiation_wavelength     0.41421
_diffrn_source                   'ESRF ID09A'
_diffrn_source_type              synchrotron
_exptl_crystal_colour            colourless
_exptl_crystal_density_diffrn    5.9953
_exptl_crystal_description       'white powder'
_pd_block_id                     2020-10-21T13:57|clau1_019rietveld||id09a
_pd_calc_method                  'Rietveld Refinement'
_pd_meas_number_of_points        4000
_pd_phase_name                   claudetiteI
_pd_prep_pressure                100.0(1)
_pd_prep_temperature             293
_pd_proc_info_datetime           2020-10-21T13:57
_pd_proc_ls_background_function
;
Background function: "chebyschev" function with 15 terms:
    755.3(9), 400(4), -193(16), -692(31), 2.11(8)e3, 6.38(6)e3, 
    -1.331(10)e4, -23835(12), 3.657(5)e4, 4.032(5)e4, -5.012(9)e4, 
    -3.210(4)e4, 3.382(11)e4, 9.81(6)e3, -8.97(11)e3, 
;
_pd_proc_ls_pref_orient_corr
;
Simple spherical harmonic correction Order = 6
    Coefficients:  0:0:C(6,6) = 0.110(18); 0:0:C(4,4) = 0.347(17); 
    0:0:C(6,-2) = 0.062(22); 0:0:C(2,-2) = 0.051(12); 0:0:C(4,-4) = -0.146(16); 
    0:0:C(2,2) = 0.402(12); 0:0:C(4,0) = -0.377(15); 0:0:C(6,-6) = -0.140(22); 
    0:0:C(6,4) = -0.240(21); 0:0:C(4,2) = -0.378(16); 0:0:C(6,2) = -0.051(21); 
    0:0:C(6,-4) = 0.086(16); 0:0:C(6,0) = -0.057(19); 0:0:C(2,0) = -0.274(11); 
    0:0:C(4,-2) = -0.084(18); 
;
_pd_proc_ls_profile_function
;
Finger-Cox-Jephcoat function parameters U, V, W, X, Y, SH/L:
  peak variance(Gauss) = Utan(Th)^2^+Vtan(Th)+W:
  peak HW(Lorentz) = X/cos(Th)+Ytan(Th); SH/L = S/L+H/L
  U, V, W in (centideg)^2^, X & Y in centideg
    4.22(25)e3, -6.6(4)e2, 29.9(18), 3.26(29), 8(7), 0.002, 
  Crystallite size in microns with "isotropic" model:
  parameters: Size, G/L mix
    1.000, 1.000, 
  Microstrain, "isotropic" model (10^6^ * delta Q/Q)
    parameters: Mustrain, G/L mix
    1000.000, 1.000, 

;
_pd_proc_ls_prof_R_factor        0.00884
_pd_proc_ls_prof_wR_expected     0.03534
_pd_proc_ls_prof_wR_factor       0.01352
_refine_ls_goodness_of_fit_all   0.390
_refine_ls_matrix_type           full
_refine_ls_number_parameters     57
_refine_ls_R_Fsqd_factor         0.03647
_refine_ls_shift/su_max          0.0014
_refine_ls_wR_factor_obs         0.01360
_reflns_d_resolution_high        1.075
_reflns_d_resolution_low         5.807
_reflns_limit_h_max              4
_reflns_limit_h_min              0
_reflns_limit_k_max              10
_reflns_limit_k_min              0
_reflns_limit_l_max              3
_reflns_limit_l_min              -3
_reflns_number_total             184
_cod_data_source_file            d0ce01401j3.cif
_cod_data_source_block           clau1_019rietveld
_cod_depositor_comments
'Adding full bibliography for 7241824--7241862.cif.'
_cod_original_cell_volume        219.188(9)
_cod_database_code               7241839
_refine_ls_r_f_factor            0.02254
_gsas_proc_ls_prof_r_b_factor    0.01478
_gsas_proc_ls_prof_wr_b_factor   0.02477
loop_
_space_group_symop_id
_space_group_symop_operation_xyz
1 x,y,z
2 1/2-x,1/2+y,1/2-z
3 -x,-y,-z
4 1/2+x,1/2-y,1/2+z
loop_
_atom_site_label
_atom_site_type_symbol
_atom_site_fract_x
_atom_site_fract_y
_atom_site_fract_z
_atom_site_occupancy
_atom_site_adp_type
_atom_site_U_iso_or_equiv
_atom_site_symmetry_multiplicity
As1 As 0.2825(7) 0.08471(22) 0.0748(6) 1.000 Uiso 0.0079(12) 4
As2 As 0.3174(5) 0.35722(27) 0.0292(6) 1.000 Uiso 0.0079 4
O3 O 0.4602(17) 0.2186(3) 0.100(3) 1.000 Uiso 0.0079 4
O4 O 0.6514(18) 0.4239(10) 0.1564(14) 1.000 Uiso 0.0079 4
O5 O -0.0801(15) 0.1221(15) 0.1234(13) 1.000 Uiso 0.0079 4
loop_
_atom_type_symbol
_atom_type_number_in_cell
_atom_type_scat_Cromer_Mann_a1
_atom_type_scat_Cromer_Mann_a2
_atom_type_scat_Cromer_Mann_a3
_atom_type_scat_Cromer_Mann_a4
_atom_type_scat_Cromer_Mann_b1
_atom_type_scat_Cromer_Mann_b2
_atom_type_scat_Cromer_Mann_b3
_atom_type_scat_Cromer_Mann_b4
_atom_type_scat_Cromer_Mann_c
_atom_type_scat_length_neutron
_atom_type_scat_source
_atom_type_scat_dispersion_real
_atom_type_scat_dispersion_imag
_atom_type_scat_dispersion_source
As 8 16.6723 6.0701 3.4313 4.2779 2.6345 0.2647 12.9479 47.7972 2.531 0.658
https://subversion.xray.aps.anl.gov/pyGSAS/trunk/atmdata.py 0.283 0.775
https://subversion.xray.aps.anl.gov/pyGSAS/trunk/atmdata.py
O 12 3.0485 2.2868 1.5463 0.867 13.2771 5.7011 0.3239 32.9089 0.2508 0.5805
https://subversion.xray.aps.anl.gov/pyGSAS/trunk/atmdata.py 0.002 0.002
https://subversion.xray.aps.anl.gov/pyGSAS/trunk/atmdata.py
loop_
_geom_angle_atom_site_label_1
_geom_angle_atom_site_label_2
_geom_angle_atom_site_label_3
_geom_angle
_geom_angle_site_symmetry_1
_geom_angle_site_symmetry_2
_geom_angle_site_symmetry_3
_geom_angle_publ_flag
O3 As1 O4 103.2(6) 1_555 1_555 4_454 yes
O3 As1 O5 102.9(6) 1_555 1_555 1_555 yes
O4 As1 O5 82.4(3) 4_454 1_555 1_555 yes
O3 As2 O4 92.5(5) 1_555 1_555 1_555 yes
O3 As2 O5 98.7(9) 1_555 1_555 4_554 yes
O4 As2 O5 85.3(3) 1_555 1_555 4_554 yes
As1 O3 As2 129.2(4) 1_555 1_555 1_555 yes
As1 O4 As2 118.7(4) 4_555 1_555 1_555 yes
As1 O5 As2 118.0(4) 1_555 1_555 4_455 yes
loop_
_geom_bond_atom_site_label_1
_geom_bond_atom_site_label_2
_geom_bond_distance
_geom_bond_site_symmetry_1
_geom_bond_site_symmetry_2
_geom_bond_publ_flag
As1 O3 1.759(4) 1_555 1_555 yes
As1 O4 1.766(4) 1_555 4_454 yes
As1 O5 1.766(4) 1_555 1_555 yes
As2 O3 1.756(4) 1_555 1_555 yes
As2 O4 1.772(4) 1_555 1_555 yes
As2 O5 1.776(4) 1_555 4_554 yes
loop_
_pd_meas_2theta_scan
_pd_meas_intensity_total
_pd_calc_intensity_total
_pd_proc_intensity_bkg_calc
_pd_proc_ls_weight
0.00440 108.56238 0 0 0
0.01320 105.6742 0 0 0
0.02201 105.97122 0 0 0
0.03081 105.56593 0 0 0
0.03961 104.96508 0 0 0
0.04841 104.65704 0 0 0
0.05721 105.29057 0 0 0
0.06602 105.11808 0 0 0
0.07482 103.98846 0 0 0
0.08362 104.24463 0 0 0
0.09242 105.46873 0 0 0
0.10122 107.29554 0 0 0
0.11003 107.96948 0 0 0
0.11883 107.0472 0 0 0
0.12763 104.48574 0 0 0
0.13643 103.19267 0 0 0
0.14523 102.83678 0 0 0
0.15404 104.03154 0 0 0
0.16284 104.47717 0 0 0
0.17164 104.15057 0 0 0
0.18044 103.72358 0 0 0
0.18925 103.85849 0 0 0
0.19805 105.15442 0 0 0
0.20685 105.01537 0 0 0
0.21565 105.968 0 0 0
0.22445 106.26803 0 0 0
0.23326 106.13245 0 0 0
0.24206 105.22614 0 0 0
0.25086 106.50852 0 0 0
0.25966 108.46779 0 0 0
0.26846 109.12488 0 0 0
0.27727 108.71268 0 0 0
0.28607 107.92706 0 0 0
0.29487 108.36202 0 0 0
0.30367 108.22986 0 0 0
0.31248 108.66679 0 0 0
0.32128 109.46313 0 0 0
0.33008 109.67529 0 0 0
0.33888 109.07983 0 0 0
0.34768 108.38263 0 0 0
0.35649 107.09619 0 0 0
0.36529 108.1059 0 0 0
0.37409 109.16544 0 0 0
0.38289 108.87514 0 0 0
0.39169 107.41896 0 0 0
0.40050 108.30423 0 0 0
0.40930 108.33077 0 0 0
0.41810 108.9987 0 0 0
0.42690 108.36639 0 0 0
0.43570 108.7835 0 0 0
0.44451 108.49641 0 0 0
0.45331 108.39822 0 0 0
0.46211 107.88007 0 0 0
0.47091 106.55833 0 0 0
0.47972 105.7188 0 0 0
0.48852 105.49575 0 0 0
0.49732 106.89581 0 0 0
0.50612 108.09106 0 0 0
0.51492 109.19527 0 0 0
0.52373 109.0592 0 0 0
0.53253 108.81855 0 0 0
0.54133 108.06443 0 0 0
0.55013 107.89927 0 0 0
0.55893 108.15273 0 0 0
0.56774 108.01586 0 0 0
0.57654 108.08515 0 0 0
0.58534 108.16534 0 0 0
0.59414 108.79286 0 0 0
0.60295 108.73172 0 0 0
0.61175 109.3441 0 0 0
0.62055 109.23632 0 0 0
0.62935 109.54756 0 0 0
0.63815 109.21485 0 0 0
0.64696 109.76171 0 0 0
0.65576 110.06131 0 0 0
0.66456 109.8401 0 0 0
0.67336 109.17464 0 0 0
0.68216 109.00216 0 0 0
0.69097 109.36903 0 0 0
0.69977 109.47163 0 0 0
0.70857 109.49057 0 0 0
0.71737 109.74869 0 0 0
0.72617 110.48663 0 0 0
0.73498 111.29036 0 0 0
0.74378 111.62447 0 0 0
0.75258 112.07484 0 0 0
0.76138 111.79097 0 0 0
0.77019 110.94129 0 0 0
0.77899 110.97435 0 0 0
0.78779 110.52331 0 0 0
0.79659 110.92474 0 0 0
0.80539 111.47697 0 0 0
0.81420 111.99084 0 0 0
0.82300 112.37794 0 0 0
0.83180 112.68162 0 0 0
0.84060 112.51654 0 0 0
0.84940 111.78715 0 0 0
0.85821 111.91814 0 0 0
0.86701 112.55602 0 0 0
0.87581 112.92494 0 0 0
0.88461 115.36749 0 0 0
0.89342 118.6445 0 0 0
0.90222 120.14384 0 0 0
0.91102 118.90803 0 0 0
0.91982 117.75785 0 0 0
0.92862 118.01474 0 0 0
0.93743 121.45532 0 0 0
0.94623 123.98097 0 0 0
0.95503 122.92755 0 0 0
0.96383 122.21278 0 0 0
0.97263 122.72551 0 0 0
0.98144 123.03294 0 0 0
0.99024 120.52274 0 0 0
0.99904 120.08214 0 0 0
1.00784 126.18934 0 0 0
1.01664 135.66315 0 0 0
1.02545 142.14484 0 0 0
1.03425 147.70758 0 0 0
1.04305 154.46144 0 0 0
1.05185 163.95624 0 0 0
1.06066 170.81859 0 0 0
1.06946 179.97771 0 0 0
1.07826 186.25085 0 0 0
1.08706 193.48955 0 0 0
1.09586 201.90025 0 0 0
1.10467 211.20804 0 0 0
1.11347 219.45697 0 0 0
1.12227 222.81032 0 0 0
1.13107 227.93521 0 0 0
1.13987 233.0925 0 0 0
1.14868 237.89064 0 0 0
1.15748 240.06522 0 0 0
1.16628 243.15536 0 0 0
1.17508 245.53215 0 0 0
1.18389 248.54057 0 0 0
1.19269 250.54649 0 0 0
1.20149 252.23708 0 0 0
1.21029 254.10089 0 0 0
1.21909 257.23276 0 0 0
1.22790 259.42291 0 0 0
1.23670 261.24231 0 0 0
1.24550 262.78534 0 0 0
1.25430 264.02039 0 0 0
1.26310 265.04105 0 0 0
1.27191 267.46884 0 0 0
1.28071 268.97409 0 0 0
1.28951 270.77603 0 0 0
1.29831 272.65717 0 0 0
1.30711 274.66806 0 0 0
1.31592 276.59204 0 0 0
1.32472 277.87219 0 0 0
1.33352 279.36658 0 0 0
1.34232 280.59698 0 0 0
1.35113 282.2045 0 0 0
1.35993 282.97086 0 0 0
1.36873 284.23499 0 0 0
1.37753 285.79773 0 0 0
1.38633 285.92947 0 0 0
1.39514 287.48331 0 0 0
1.40394 289.66061 0 0 0
1.41274 292.53033 0 0 0
1.42154 293.87546 0 0 0
1.43034 295.62833 0 0 0
1.43915 296.63855 0 0 0
1.44795 297.39929 0 0 0
1.45675 297.19385 0 0 0
1.46555 297.46436 0 0 0
1.47436 299.14066 0 0 0
1.48316 299.81219 0 0 0
1.49196 301.11853 0 0 0
1.50076 302.27142 0 0 0
1.50956 303.52789 0 0 0
1.51837 304.08112 0 0 0
1.52717 305.91843 0 0 0
1.53597 307.10663 0 0 0
1.54477 307.21542 0 0 0
1.55357 307.75229 0 0 0
1.56238 308.46198 0 0 0
1.57118 310.55145 0 0 0
1.57998 311.30072 0 0 0
1.58878 312.66324 0 0 0
1.59758 313.84073 0 0 0
1.60639 313.57449 0 0 0
1.61519 313.90109 0 0 0
1.62399 313.4866 0 0 0
1.63279 314.01312 0 0 0
1.64160 315.49997 0 0 0
1.65040 318.01117 0 0 0
1.65920 319.57394 0 0 0
1.66800 319.33362 0 0 0
1.67680 319.76901 0 0 0
1.68561 320.42084 0 0 0
1.69441 321.11548 0 0 0
1.70321 320.80215 0 0 0
1.71201 321.09598 0 0 0
1.72081 321.63541 0 0 0
1.72962 322.35751 0 0 0
1.73842 323.64246 0 0 0
1.74722 325.13721 0 0 0
1.75602 325.22614 0 0 0
1.76483 325.54529 0 0 0
1.77363 326.57944 0 0 0
1.78243 327.90549 0 0 0
1.79123 328.71548 0 0 0
1.80003 330.42813 0 0 0
1.80884 331.76727 0 0 0
1.81764 333.18085 0 0 0
1.82644 332.49985 0 0 0
1.83524 332.20316 0 0 0
1.84404 333.39069 0 0 0
1.85285 334.56439 0 0 0
1.86165 334.85904 0 0 0
1.87045 334.9162 0 0 0
1.87925 336.22888 0 0 0
1.88805 337.54303 0 0 0
1.89686 338.13904 0 0 0
1.90566 337.87711 0 0 0
1.91446 337.71198 0 0 0
1.92326 338.07932 0 0 0
1.93207 339.65204 0 0 0
1.94087 340.68033 0 0 0
1.94967 341.42838 0 0 0
1.95847 341.95377 0 0 0
1.96727 342.80417 0 0 0
1.97608 344.26532 0 0 0
1.98488 345.21179 0 0 0
1.99368 345.69003 0 0 0
2.00248 344.48111 0 0 0
2.01128 344.45081 0 0 0
2.02009 344.95255 0 0 0
2.02889 345.73465 0 0 0
2.03769 346.81924 0 0 0
2.04649 347.60388 0 0 0
2.05530 347.91705 0 0 0
2.06410 348.96286 0 0 0
2.07290 350.52271 0 0 0
2.08170 350.97763 0 0 0
2.09050 350.97253 0 0 0
2.09931 351.86859 0 0 0
2.10811 352.92886 0 0 0
2.11691 353.86075 0 0 0
2.12571 354.25446 0 0 0
2.13451 354.91083 0 0 0
2.14332 355.14755 0 0 0
2.15212 354.93558 0 0 0
2.16092 355.26569 0 0 0
2.16972 355.5488 0 0 0
2.17852 356.71915 0 0 0
2.18733 357.6514 0 0 0
2.19613 358.64273 0 0 0
2.20493 358.43832 0 0 0
2.21373 358.50073 0 0 0
2.22254 359.46487 0 0 0
2.23134 359.63742 0 0 0
2.24014 359.61542 0 0 0
2.24894 359.42627 0 0 0
2.25774 361.082 0 0 0
2.26655 362.0722 0 0 0
2.27535 362.5563 0 0 0
2.28415 362.04303 0 0 0
2.29295 362.85272 0 0 0
2.30175 363.77109 0 0 0
2.31056 364.27588 0 0 0
2.31936 364.09268 0 0 0
2.32816 364.01651 0 0 0
2.33696 364.1445 0 0 0
2.34576 365.38766 0 0 0
2.35457 365.42361 0 0 0
2.36337 365.61145 0 0 0
2.37217 365.69547 0 0 0
2.38097 365.96899 0 0 0
2.38978 366.54834 0 0 0
2.39858 367.36111 0 0 0
2.40738 368.09573 0 0 0
2.41618 369.35849 0 0 0
2.42498 370.32367 0 0 0
2.43379 370.40619 0 0 0
2.44259 370.16882 0 0 0
2.45139 369.71555 0 0 0
2.46019 370.70825 0 0 0
2.46899 370.81497 0 0 0
2.47780 371.84085 0 0 0
2.48660 372.93991 0 0 0
2.49540 374.32193 0 0 0
2.50420 374.49155 0 0 0
2.51301 373.53775 0 0 0
2.52181 374.52402 0 0 0
2.53061 375.63147 0 0 0
2.53941 376.45126 0 0 0
2.54821 376.08768 0 0 0
2.55702 376.11267 0 0 0
2.56582 376.62494 0 0 0
2.57462 376.21097 0 0 0
2.58342 376.46164 0 0 0
2.59222 377.10486 0 0 0
2.60103 378.33478 0 0 0
2.60983 378.5639 0 0 0
2.61863 378.73813 0 0 0
2.62743 378.26874 0 0 0
2.63624 377.7854 0 0 0
2.64504 378.57562 0 0 0
2.65384 380.07611 0 0 0
2.66264 381.43893 0 0 0
2.67144 381.04312 0 0 0
2.68025 380.21259 0 0 0
2.68905 380.73941 0 0 0
2.69785 381.46912 0 0 0
2.70665 382.32593 0 0 0
2.71545 383.14056 0 0 0
2.72426 383.13873 379.011328 378.971041 0.002610021
2.73306 382.76907 379.78406 379.743471 0.002612541
2.74186 383.63635 380.532925 380.492029 0.002606635
2.75066 384.48676 381.293856 381.217455 0.00260087
2.75946 384.62067 381.997289 381.920448 0.002599964
2.76827 384.23489 382.679047 382.601762 0.002602575
2.77707 383.99188 383.339798 383.262063 0.002604222
2.78587 384.16998 383.980206 383.902016 0.002603014
2.79467 384.70386 384.600931 384.522281 0.002599402
2.80348 385.25647 385.202631 385.123515 0.002595673
2.81228 385.34119 385.78593 385.706344 0.002595103
2.82108 386.28696 386.351436 386.271373 0.002588749
2.82988 386.5632 386.899728 386.819182 0.002586899
2.83868 387.95575 387.431426 387.350391 0.002577614
2.84749 388.46155 387.947081 387.865552 0.002574257
2.85629 387.96848 388.447248 388.365219 0.002577529
2.86509 388.11322 388.932464 388.849928 0.002576568
2.87389 388.61722 389.403258 389.320209 0.002573226
2.88269 389.47055 389.860156 389.776587 0.002567588
2.89150 389.53058 390.30366 390.219564 0.002567193
2.90030 389.07483 390.734255 390.649625 0.0025702
2.90910 389.11581 391.152403 391.067233 0.002569929
2.91790 389.57867 391.558598 391.472881 0.002566876
2.92670 390.12036 391.95328 391.867008 0.002563311
2.93551 390.633 392.33689 392.250055 0.002559948
2.94431 391.24612 392.709845 392.62244 0.002555936
2.95311 391.88617 393.072589 392.984606 0.002551761
2.96191 392.37888 393.425514 393.336945 0.002548557
2.97072 392.37277 393.769023 393.67986 0.002548597
2.97952 392.99713 394.1035 394.013734 0.002544548
2.98832 393.53558 394.429308 394.338931 0.002541066
2.99712 394.55371 394.746836 394.655838 0.002534509
3.00592 394.63608 395.056427 394.964799 0.00253398
3.01473 395.1106 395.358427 395.266161 0.002530937
3.02353 395.54132 395.653161 395.560247 0.002528181
3.03233 395.61731 395.940977 395.847405 0.002527695
3.04113 395.00476 396.222182 396.127941 0.002531615
3.04993 394.42078 396.49708 396.402159 0.002535363
3.05874 394.61209 396.770424 396.67036 0.002534134
3.06754 395.05759 397.033619 396.932839 0.002531277
3.07634 396.08859 397.291385 397.189877 0.002524688
3.08514 396.73178 397.543993 397.441744 0.002520595
3.09395 396.33511 397.791698 397.688698 0.002523117
3.10275 396.51651 398.034775 397.931012 0.002521963
3.11155 396.56711 398.273466 398.168926 0.002521641
3.12035 397.03076 398.508012 398.402681 0.002518697
3.12915 397.16571 398.738644 398.63251 0.002517841
3.13796 397.22632 398.965589 398.858638 0.002517457
3.14676 397.39478 399.189073 399.08129 0.002516389
3.15556 397.68448 399.409307 399.300677 0.002514556
3.16436 398.44727 399.650376 399.517003 0.002509742
3.17316 399.23331 399.864794 399.730458 0.002504801
3.18197 399.57614 400.076565 399.941248 0.002502652
3.19077 399.79498 400.285867 400.149553 0.002501282
3.19957 399.86346 400.492879 400.35555 0.002500854
3.20837 400.98825 400.697768 400.559405 0.002493839
3.21717 401.4664 400.900715 400.7613 0.002490868
3.22598 401.23386 401.101872 400.961384 0.002492312
3.23478 400.75183 401.3014 401.159819 0.00249531
3.24358 400.91852 401.499446 401.356751 0.002494272
3.25238 400.69949 401.696148 401.552317 0.002495636
3.26119 400.78503 401.902594 401.746669 0.002495103
3.26999 400.60068 402.09708 401.939933 0.002496251
3.27879 401.08563 402.29063 402.132238 0.002493233
3.28759 402.2897 402.483362 402.323699 0.002485771
3.29639 403.30508 402.675409 402.514448 0.002479513
3.30520 403.40298 402.866875 402.704589 0.002478911
3.31400 402.95532 403.057875 402.894235 0.002481665
3.32280 403.08664 403.248508 403.083484 0.002480856
3.33160 403.40146 403.438879 403.272442 0.00247892
3.34040 403.83673 403.629087 403.461204 0.002476248
3.34921 403.62234 403.819222 403.649858 0.002477564
3.35801 404.45703 404.00937 403.838492 0.002472451
3.36681 405.33572 404.199611 404.027182 0.002467091
3.37561 405.20538 404.390037 404.216019 0.002467884
3.38442 405.47818 404.580718 404.405071 0.002466224
3.39322 405.11722 404.771729 404.594412 0.002468421
3.40202 405.29947 404.963135 404.784105 0.002467311
3.41082 405.39313 405.155008 404.974219 0.002466741
3.41962 405.81479 405.347411 405.164816 0.002464178
3.42843 405.43384 405.540402 405.355951 0.002466494
3.43723 406.37653 405.764184 405.547672 0.002460772
3.44603 407.44748 405.958626 405.740042 0.002454304
3.45483 407.74643 406.153816 405.933104 0.002452505
3.46363 407.30069 406.349804 406.126901 0.002455189
3.47244 407.15668 406.546627 406.32147 0.002456057
3.48124 407.24133 406.744342 406.516863 0.002455546
3.49004 407.1814 406.94298 406.713108 0.002455908
3.49884 407.2157 407.142583 406.910243 0.002455701
3.50764 407.36584 407.343185 407.108297 0.002454796
3.51645 407.56381 407.544811 407.307293 0.002453604
3.52525 408.45688 407.747507 407.507269 0.002448239
3.53405 408.6756 407.951294 407.708243 0.002446929
3.54285 408.89963 408.156202 407.910238 0.002445588
3.55166 409.20343 408.362247 408.113265 0.002443772
3.56046 409.44995 408.569468 408.317356 0.002442301
3.56926 409.66489 408.787791 408.522517 0.00244102
3.57806 410.5321 408.997451 408.728765 0.002435863
3.58686 410.59442 409.208338 408.936106 0.002435493
3.59567 410.78525 409.421361 409.144556 0.002434362
3.60447 411.31348 409.634775 409.354122 0.002431236
3.61327 412.71872 409.849475 409.564808 0.002422958
3.62207 412.89624 410.065475 409.776618 0.002421916
3.63087 411.65921 410.282785 409.989548 0.002429194
3.63968 411.12845 410.501434 410.203613 0.00243233
3.64848 412.0979 410.721427 410.418803 0.002426608
3.65728 413.11179 410.942784 410.635121 0.002420652
3.66608 412.84927 411.165514 410.852557 0.002422192
3.67489 413.76703 411.38964 411.071112 0.002416819
3.68369 414.44397 411.615179 411.290782 0.002412871
3.69249 414.84509 411.842147 411.511556 0.002410538
3.70129 414.57257 412.070555 411.733419 0.002412123
3.71009 414.80978 412.300441 411.956377 0.002410744
3.71890 415.5376 412.531823 412.18041 0.002406521
3.72770 415.3551 412.764724 412.405505 0.002407578
3.73650 415.07083 412.999176 412.631649 0.002409227
3.74530 414.85922 413.235222 412.858837 0.002410456
3.75410 415.46924 413.472897 413.087045 0.002406917
3.76291 416.03113 413.712252 413.316265 0.002403666
3.77171 416.68115 413.95334 413.546476 0.002399917
3.78051 417.41989 414.196217 413.777655 0.002395669
3.78931 417.58459 414.440974 414.009799 0.002394724
3.79811 417.78891 414.68769 414.242882 0.002393553
3.80692 416.79123 414.936469 414.476885 0.002399283
3.81572 416.37833 415.18742 414.711781 0.002401662
3.82452 416.82339 415.440704 414.947564 0.002399098
3.83332 417.18066 415.696478 415.184203 0.002397043
3.84213 417.349 415.954945 415.421683 0.002396076
3.85093 416.98648 416.216336 415.659973 0.002398159
3.85973 417.02966 416.480947 415.899059 0.002397911
3.86853 417.90494 416.749132 416.138919 0.002392889
3.87733 418.26843 417.02133 416.379527 0.002390809
3.88614 418.09576 417.298117 416.620859 0.002391797
3.89494 417.56638 417.580264 416.862883 0.002394829
3.90374 418.6171 417.868903 417.105592 0.002388818
3.91254 419.81851 418.165676 417.34895 0.002381982
3.92134 420.44409 418.47312 417.592939 0.002378438
3.93015 420.72009 418.795156 417.837525 0.002376877
3.93895 420.52243 419.137853 418.082691 0.002377994
3.94775 421.04761 419.510354 418.328413 0.002375028
3.95655 421.4418 419.925992 418.574662 0.002372807
3.96535 421.64905 420.403358 418.821405 0.002371641
3.97416 420.60126 420.967076 419.068633 0.002377549
3.98296 420.02802 421.647588 419.316312 0.002380794
3.99176 420.84372 422.479723 419.564413 0.002376179
4.00056 422.02536 423.499398 419.812918 0.002369526
4.00937 422.3027 424.738293 420.061791 0.00236797
4.01817 422.50385 426.217115 420.311025 0.002366842
4.02697 423.19 427.937149 420.560568 0.002363005
4.03577 424.54391 429.872782 420.810409 0.002355469
4.04457 425.52188 431.963514 421.060539 0.002350055
4.05338 426.3869 434.105902 421.3109 0.002345288
4.06218 427.9975 436.147972 421.561484 0.002336462
4.07098 431.39288 437.890079 421.812278 0.002318073
4.07978 435.24084 439.110684 422.063234 0.002297579
4.08858 438.20444 439.631921 422.31435 0.00228204
4.09739 439.94949 439.398928 422.565574 0.002272988
4.10619 439.28314 438.509193 422.8169 0.002276436
4.11499 436.01138 437.162039 423.068313 0.002293518
4.12379 432.72131 435.577432 423.319763 0.002310956
4.13260 429.91678 433.942178 423.571243 0.002326032
4.14140 428.25787 432.393556 423.822739 0.002335042
4.15020 427.27972 431.021581 424.074201 0.002340387
4.15900 426.8252 429.875768 424.325637 0.002342879
4.16780 427.00302 428.972798 424.576996 0.002341904
4.17661 427.1452 428.304834 424.828267 0.002341124
4.18541 427.10861 427.847115 425.079443 0.002341325
4.19421 426.94977 427.566058 425.330478 0.002342196
4.20301 426.61563 427.425509 425.581374 0.00234403
4.21181 426.41867 427.391653 425.832083 0.002345113
4.22062 426.67142 427.435612 426.082599 0.002343724
4.22942 427.50446 427.53455 426.33292 0.002339157
4.23822 428.58029 427.671449 426.582991 0.002333285
4.24702 428.55075 427.834283 426.83281 0.002333446
4.25582 428.45493 428.014893 427.082372 0.002333968
4.26463 428.94907 428.207876 427.331633 0.002331279
4.27343 429.57785 428.409752 427.580596 0.002327867
4.28223 429.24429 428.618231 427.82922 0.002329676
4.29103 429.20132 428.831818 428.077502 0.002329909
4.29984 429.5007 429.049482 428.325435 0.002328285
4.30864 430.03424 429.270453 428.572977 0.002325396
4.31744 430.17664 429.494186 428.820139 0.002324626
4.32624 430.4213 429.720208 429.06688 0.002323305
4.33504 430.89969 429.948157 429.313193 0.002320726
4.34385 431.31644 430.177742 429.55908 0.002318483
4.35265 431.04129 430.408678 429.804502 0.002319963
4.36145 430.61563 430.64075 430.049452 0.002322257
4.37025 429.88391 430.873781 430.293934 0.002326209
4.37905 429.40298 431.107577 430.537907 0.002328815
4.38786 429.836 431.342023 430.781388 0.002326469
4.39666 430.93341 431.576958 431.024332 0.002320544
4.40546 431.63101 431.812286 431.266743 0.002316794
4.41426 431.36569 432.047923 431.508625 0.002318219
4.42307 431.72067 432.283758 431.74994 0.002316313
4.43187 432.39297 432.519733 431.990702 0.002312711
4.44067 433.14502 432.755756 432.230875 0.002308696
4.44947 433.13672 432.991782 432.470465 0.00230874
4.45827 433.59094 433.227764 432.709473 0.002306321
4.46708 434.35358 433.463629 432.947864 0.002302272
4.47588 434.79697 433.699349 433.185647 0.002299924
4.48468 435.33917 433.934892 433.422823 0.00229706
4.49348 435.9101 434.170198 433.659359 0.002294051
4.50228 436.78735 434.405263 433.895276 0.002289444
4.51109 437.61957 434.640034 434.130543 0.00228509
4.51989 438.50641 434.874493 434.365162 0.002280468
4.52869 438.81339 435.108634 434.599145 0.002278873
4.53749 438.38504 435.342411 434.832461 0.0022811
4.54630 437.9783 435.575827 435.065128 0.002283218
4.55510 438.27194 435.808843 435.297118 0.002281688
4.56390 438.7012 436.041457 435.52844 0.002279456
4.57270 438.20328 436.273672 435.759107 0.002282046
4.58150 437.59433 436.505446 435.989084 0.002285222
4.59031 437.80588 436.736785 436.218386 0.002284117
4.59911 437.95529 436.967694 436.447022 0.002283338
4.60791 437.98459 437.198143 436.674969 0.002283185
4.61671 438.41556 437.428148 436.902245 0.002280941
4.62551 438.26694 437.657681 437.128828 0.002281714
4.63432 437.73822 437.886754 437.354732 0.00228447
4.64312 437.42297 438.115374 437.579965 0.002286117
4.65192 437.42444 438.343517 437.804505 0.002286109
4.66072 437.83893 438.632781 438.028368 0.002283945
4.66952 438.40494 438.860228 438.251564 0.002280996
4.67833 438.5246 439.087204 438.474072 0.002280374
4.68713 438.94662 439.313738 438.695919 0.002278181
4.69593 439.15997 439.53981 438.917084 0.002277075
4.70473 439.0574 439.765435 439.13758 0.002277607
4.71354 439.37045 439.990634 439.357424 0.002275984
4.72234 439.79593 440.215389 439.576596 0.002273782
4.73114 439.67899 440.439736 439.795126 0.002274387
4.73994 440.06268 440.663655 440.01299 0.002272404
4.74874 440.63736 440.88717 440.230208 0.00226944
4.75755 440.05139 441.110305 440.446797 0.002272462
4.76635 440.06525 441.333051 440.662742 0.00227239
4.77515 440.85468 441.555428 440.878055 0.002268321
4.78395 441.21692 441.777465 441.092757 0.002266459
4.79275 441.13974 441.999155 441.306835 0.002266855
4.80156 441.9364 442.220535 441.520313 0.002262769
4.81036 443.02664 442.4416 441.733179 0.002257201
4.81916 443.1134 442.662383 441.945454 0.002256759
4.82796 442.81653 442.882912 442.157154 0.002258272
4.83676 442.694 443.103186 442.368265 0.002258897
4.84557 443.12891 443.323251 442.578821 0.00225668
4.85437 443.10535 443.54311 442.788809 0.0022568
4.86317 443.11279 443.762795 442.998245 0.002256762
4.87197 444.22156 443.982347 443.207155 0.002251129
4.88078 445.14688 444.201773 443.415526 0.00224645
4.88958 444.86914 444.42111 443.623376 0.002247852
4.89838 443.64929 444.640405 443.830729 0.002254033
4.90718 443.80817 444.859665 444.037574 0.002253226
4.91598 443.96646 445.078955 444.243947 0.002252422
4.92479 444.65582 445.298282 444.449832 0.00224893
4.93359 445.09085 445.517701 444.655254 0.002246732
4.94239 445.49738 445.737267 444.860236 0.002244682
4.95119 445.51599 445.957003 445.064772 0.002244588
4.95999 445.46866 446.176976 445.26889 0.002244827
4.96880 446.13196 446.397832 445.472584 0.002241489
4.97760 446.50037 446.618409 445.675881 0.00223964
4.98640 446.43729 446.839388 445.878799 0.002239956
4.99520 446.32544 447.060808 446.081333 0.002240518
5.00401 446.68179 447.28275 446.283509 0.00223873
5.01281 447.63641 447.505293 446.485349 0.002233956
5.02161 448.02374 447.728491 446.686845 0.002232025
5.03041 448.6138 447.952451 446.888035 0.002229089
5.03921 448.6185 448.17724 447.088913 0.002229065
5.04802 448.49081 448.423602 447.289501 0.0022297
5.05682 448.30106 448.650443 447.489827 0.002230644
5.06562 448.90875 448.878421 447.689883 0.002227624
5.07442 449.60529 449.107685 447.889709 0.002224173
5.08322 449.89545 449.338337 448.089294 0.002222739
5.09203 449.68686 449.570536 448.288667 0.00222377
5.10083 449.27698 449.804453 448.487855 0.002225798
5.10963 449.26428 450.040237 448.686853 0.002225861
5.11843 449.86426 450.286596 448.885685 0.002222893
5.12723 450.40408 450.526761 449.084379 0.002220229
5.13604 450.99979 450.769422 449.282932 0.002217296
5.14484 450.98114 451.014856 449.481379 0.002217388
5.15364 450.68271 451.26332 449.679715 0.002218856
5.16244 450.39456 451.515144 449.877971 0.002220275
5.17125 450.89682 451.770692 450.07617 0.002217802
5.18005 450.89618 452.030329 450.274309 0.002217805
5.18885 451.56271 452.294512 450.472416 0.002214532
5.19765 451.97165 452.563759 450.670522 0.002212528
5.20645 452.20004 452.838596 450.868617 0.002211411
5.21526 452.24985 453.119698 451.066743 0.002211167
5.22406 452.87381 453.407763 451.264897 0.002208121
5.23286 453.86307 453.703637 451.463103 0.002203308
5.24166 454.4967 454.008295 451.661392 0.002200236
5.25046 454.4805 454.322805 451.859759 0.002200314
5.25927 454.37729 454.656526 452.058246 0.002200814
5.26807 454.34039 454.994839 452.256845 0.002200993
5.27687 454.18115 455.347517 452.455586 0.002201765
5.28567 454.72888 455.71662 452.654498 0.002199113
5.29448 455.76852 456.104523 452.853579 0.002194096
5.30328 456.91107 456.514075 453.052854 0.00218861
5.31208 456.76163 456.948724 453.252353 0.002189326
5.32088 457.16382 457.412609 453.452074 0.0021874
5.32968 457.49643 457.9108 453.652054 0.002185809
5.33849 458.30847 458.449694 453.852289 0.002181937
5.34729 458.65683 459.037689 454.052812 0.002180279
5.35609 458.89798 459.686215 454.253646 0.002179134
5.36489 458.93329 460.411787 454.45479 0.002178966
5.37369 459.48904 461.239739 454.656284 0.00217633
5.38250 460.57449 462.209999 454.858125 0.002171201
5.39130 461.50812 463.386035 455.060339 0.002166809
5.40010 463.01556 464.867739 455.262956 0.002159755
5.40890 464.89322 466.806597 455.465971 0.002151032
5.41770 466.80554 469.420237 455.669416 0.00214222
5.42651 468.96048 473.002136 455.873316 0.002132376
5.43531 472.87097 477.914388 456.077668 0.002114742
5.44411 477.6286 484.559925 456.282513 0.002093677
5.45291 485.43265 493.323338 456.487846 0.002060018
5.46172 495.8512 504.480633 456.693693 0.002016734
5.47052 510.47571 518.094326 456.900085 0.001958957
5.47932 529.29047 533.88505 457.107019 0.001889322
5.48812 553.00043 551.10208 457.314531 0.001808317
5.49692 577.60181 568.35453 457.522617 0.001731297
5.50573 605.31091 583.491593 457.731307 0.001652044
5.51453 625.56165 593.774335 457.940628 0.001598563
5.52333 637.63367 596.765009 458.150574 0.001568299
5.53213 622.67596 591.695572 458.361173 0.001605972
5.54093 591.55518 579.994131 458.572459 0.001690459
5.54974 552.87756 564.340204 458.784417 0.001808719
5.55854 523.10254 547.340437 458.997093 0.001911671
5.56734 502.13287 530.901425 459.21048 0.001991505
5.57614 488.81763 516.189218 459.424602 0.002045753
5.58495 481.41028 503.78779 459.63949 0.00207723
5.59375 476.55359 493.85434 459.855137 0.0020984
5.60255 473.23044 486.244718 460.071585 0.002113135
5.61135 470.70303 480.637676 460.288822 0.002124482
5.62015 469.8208 476.634473 460.506877 0.002128471
5.62896 468.92386 473.842545 460.725778 0.002132542
5.63776 468.44681 471.915343 460.94552 0.002134714
5.64656 468.29904 470.586243 461.166126 0.002135388
5.65536 468.92966 469.660041 461.387625 0.002132516
5.66416 468.5 469.003756 461.610011 0.002134472
5.67297 467.97507 468.530662 461.833318 0.002136866
5.68177 467.56424 468.186102 462.05754 0.002138744
5.69057 467.27637 467.935706 462.282706 0.002140061
5.69937 467.58337 467.75755 462.508839 0.002138656
5.70817 468.46738 467.637112 462.735929 0.00213462
5.71698 469.26111 467.564171 462.964006 0.00213101
5.72578 469.51364 467.531179 463.193097 0.002129864
5.73458 470.28012 467.532306 463.423187 0.002126392
5.74338 470.91467 467.562893 463.654318 0.002123527
5.75219 471.02496 467.619159 463.886477 0.00212303
5.76099 470.92743 467.697989 464.119694 0.002123469
5.76979 471.01328 467.796801 464.353991 0.002123082
5.77859 470.65738 467.913438 464.589356 0.002124688
5.78739 470.9126 468.046117 464.82583 0.002123536
5.79620 471.13541 468.193328 465.063401 0.002122532
5.80500 471.20288 468.353821 465.302091 0.002122228
5.81380 471.32092 468.526567 465.541928 0.002121697
5.82260 471.15625 468.710694 465.7829 0.002122438
5.83140 471.25186 468.905503 466.025027 0.002122008
5.84021 471.25085 469.110445 466.268339 0.002122012
5.84901 471.00369 469.325807 466.512822 0.002123126
5.85781 471.28873 469.549798 466.75851 0.002121842
5.86661 471.2179 469.782919 467.005389 0.00212216
5.87541 471.99808 470.025069 467.253485 0.002118653
5.88422 472.71771 470.278726 467.502826 0.002115427
5.89302 473.41425 470.538993 467.753389 0.002112315
5.90182 473.84869 470.808562 468.005215 0.002110378
5.91062 473.81799 471.089228 468.258291 0.002110515
5.91943 473.45877 471.378385 468.512633 0.002112116
5.92823 472.75125 471.678125 468.768271 0.002115277
5.93703 472.92291 471.989122 469.025185 0.00211451
5.94583 473.28076 472.31228 469.283402 0.002112911
5.95463 473.65479 472.648705 469.54294 0.002111242
5.96344 474.19983 472.9997 469.803783 0.002108816
5.97224 474.75269 473.366939 470.065969 0.00210636
5.98104 475.10809 473.771462 470.329481 0.002104784
5.98984 475.78354 474.177625 470.594335 0.002101796
5.99864 476.4119 474.607504 470.860559 0.002099024
6.00745 476.63828 475.064817 471.128133 0.002098027
6.01625 476.65826 475.554426 471.39709 0.002097939
6.02505 477.21771 476.083872 471.667411 0.00209548
6.03385 477.83548 476.659482 471.939122 0.002092771
6.04266 478.46698 477.295434 472.212238 0.002090008
6.05146 479.02466 478.011599 472.48674 0.002087575
6.06026 479.4476 478.839943 472.762651 0.002085734
6.06906 480.10788 479.849656 473.039995 0.002082865
6.07786 480.77173 481.086781 473.318741 0.002079989
6.08667 481.43988 482.692348 473.598932 0.002077103
6.09547 482.31329 484.841587 473.880541 0.002073341
6.10427 484.16589 487.76501 474.163593 0.002065408
6.11307 487.04767 491.738979 474.448104 0.002053187
6.12187 490.04449 497.039423 474.73405 0.002040631
6.13068 493.90964 503.902843 475.021469 0.002024662
6.13948 500.74344 512.433061 475.310337 0.001997031
6.14828 512.42682 522.512563 475.600668 0.001951498
6.15708 526.75079 533.688418 475.892487 0.001898431
6.16589 543.25873 545.02578 476.185768 0.001840744
6.17469 561.44165 554.979787 476.480527 0.001781129
6.18349 576.01184 561.518874 476.776786 0.001736075
6.19229 581.77747 562.889226 477.07452 0.00171887
6.20109 576.30005 558.751018 477.373759 0.001735207
6.20990 561.15228 550.439861 477.674475 0.001782047
6.21870 541.1087 540.011374 477.97669 0.001848058
6.22750 522.90448 529.236512 478.280426 0.001912395
6.23630 508.93832 519.270918 478.585646 0.001964875
6.24510 499.99994 510.729852 478.892371 0.002
6.25391 495.62482 503.842757 479.200626 0.002017655
6.26271 492.86966 498.577563 479.510371 0.002028934
6.27151 490.96152 494.740243 479.821646 0.00203682
6.28031 490.06744 492.057648 480.134417 0.002040535
6.28911 489.56088 490.248301 480.448707 0.002042647
6.29792 488.93341 489.06344 480.764529 0.002045268
6.30672 488.8934 488.306364 481.08185 0.002045436
6.31552 488.95178 487.835067 481.400709 0.002045191
6.32432 488.83072 487.553843 481.721072 0.002045698
6.33313 488.41995 487.401202 482.042951 0.002047418
6.34193 488.80344 487.338894 482.366369 0.002045812
6.35073 489.28015 487.343097 482.691292 0.002043819
6.35953 489.78021 487.398739 483.01773 0.002041732
6.36833 490.00806 487.495722 483.345707 0.002040783
6.37714 490.18945 487.626863 483.675187 0.002040028
6.38594 490.61377 487.788528 484.006201 0.002038263
6.39474 491.56091 487.973346 484.338712 0.002034336
6.40354 492.09351 488.179711 484.672739 0.002032134
6.41234 492.44434 488.405077 485.008303 0.002030686
6.42115 492.24805 488.647422 485.345356 0.002031496
6.42995 492.5741 488.905322 485.683939 0.002030151
6.43875 492.43466 489.17848 486.024012 0.002030726
6.44755 492.70068 489.465412 486.365594 0.00202963
6.45636 493.45361 489.767349 486.708697 0.002026533
6.46516 494.28064 490.085846 487.053281 0.002023142
6.47396 494.78091 490.423617 487.399368 0.002021097
6.48276 494.91833 490.784385 487.746966 0.002020535
6.49156 495.57477 491.172425 488.096037 0.002017859
6.50037 497.40161 491.591833 488.446616 0.002010448
6.50917 499.43164 492.045072 488.798665 0.002002276
6.51797 500.49149 492.531496 489.152192 0.001998036
6.52677 501.69836 493.045321 489.507216 0.00199323
6.53557 503.63843 493.572893 489.863699 0.001985551
6.54438 506.59595 494.089934 490.221666 0.00197396
6.55318 509.22284 494.561356 490.581078 0.001963777
6.56198 511.20612 494.955585 490.941951 0.001956158
6.57078 511.19644 495.255533 491.304303 0.001956195
6.57958 509.10489 495.483586 491.668081 0.001964232
6.58839 505.97067 495.675858 492.033304 0.001976399
6.59719 503.21274 495.864536 492.399988 0.001987231
6.60599 502.17004 496.073502 492.768089 0.001991357
6.61479 501.22589 496.307287 493.137636 0.001995108
6.62360 500.47632 496.572731 493.508584 0.001998097
6.63240 500.45279 496.868997 493.880954 0.00199819
6.64120 500.51868 497.199888 494.25475 0.001997927
6.65000 501.1073 497.545848 494.62993 0.001995581
6.65880 501.4577 497.909429 495.006529 0.001994186
6.66761 501.79645 498.286421 495.384501 0.00199284
6.67641 502.34531 498.682267 495.763853 0.001990663
6.68521 502.67767 499.077463 496.144604 0.001989346
6.69401 502.64752 499.479118 496.526708 0.001989466
6.70281 502.97375 499.886335 496.910169 0.001988175
6.71162 503.25238 500.298612 497.295008 0.001987075
6.72042 502.73404 500.720552 497.681177 0.001989123
6.72922 502.55042 501.142171 498.068704 0.00198985
6.73802 503.46201 501.568291 498.45754 0.001986247
6.74682 503.9277 501.998938 498.8477 0.001984412
6.75563 504.15637 502.434182 499.239203 0.001983512
6.76443 504.66705 502.874047 499.631986 0.001981504
6.77323 505.58731 503.318683 500.026069 0.001977898
6.78203 506.07819 503.768271 500.421464 0.001975979
6.79084 506.18851 504.222952 500.818123 0.001975549
6.79964 506.51318 504.683 501.216073 0.001974282
6.80844 506.89859 505.148641 501.615264 0.001972781
6.81724 507.03183 505.620221 502.015714 0.001972263
6.82604 507.72058 506.098132 502.417428 0.001969587
6.83485 508.73697 506.582761 502.820356 0.001965652
6.84365 509.63275 507.074655 503.224533 0.001962197
6.85245 510.05353 507.57435 503.629909 0.001960579
6.86125 509.73398 508.082546 504.036487 0.001961808
6.87005 509.22464 508.601976 504.444287 0.00196377
6.87886 509.39175 509.129705 504.853255 0.001963126
6.88766 510.54547 509.668752 505.263396 0.001958689
6.89646 510.76984 510.22042 505.674728 0.001957829
6.90526 511.33075 510.786493 506.087193 0.001955681
6.91407 512.70038 511.368243 506.500834 0.001950457
6.92287 513.6142 511.968069 506.915583 0.001946987
6.93167 513.0058 512.588636 507.331457 0.001949296
6.94047 513.09198 513.23317 507.748469 0.001948968
6.94927 513.41101 513.905523 508.166567 0.001947757
6.95808 514.97784 514.610569 508.585778 0.001941831
6.96688 516.4917 515.354403 509.006047 0.00193614
6.97568 516.22455 516.145063 509.427392 0.001937142
6.98448 515.61731 516.993381 509.849816 0.001939423
6.99328 516.80597 517.915205 510.273265 0.001934962
7.00209 517.94342 518.934079 510.697756 0.001930713
7.01089 518.44611 520.088579 511.123293 0.001928841
7.01969 519.49847 521.44108 511.54982 0.001924933
7.02849 520.51251 523.092026 511.977375 0.001921183
7.03729 522.19513 525.19582 512.405902 0.001914993
7.04610 523.52936 527.974201 512.835404 0.001910113
7.05490 525.56287 531.719078 513.265898 0.001902722
7.06370 528.05164 536.772136 513.697328 0.001893754
7.07250 533.16321 543.47222 514.129723 0.001875598
7.08131 540.36737 552.068897 514.563025 0.001850593
7.09011 551.51184 562.611896 514.997247 0.001813198
7.09891 567.17468 574.78003 515.432407 0.001763125
7.10771 585.54498 587.696015 515.868433 0.001707811
7.11651 605.16364 599.651911 516.305342 0.001652446
7.12532 618.69855 608.093308 516.743148 0.001616296
7.13412 622.79193 610.525577 517.181792 0.001605673
7.14292 613.05487 606.251347 517.621304 0.001631175
7.15172 596.72552 596.977325 518.061624 0.001675812
7.16052 575.50861 585.416902 518.502771 0.001737593
7.16933 558.46173 573.785638 518.944747 0.001790633
7.17813 547.90161 563.390473 519.387494 0.001825145
7.18693 541.17633 554.82141 519.831051 0.001847827
7.19573 537.65277 548.212428 520.275359 0.001859936
7.20453 534.70422 543.410023 520.72042 0.001870193
7.21334 533.12891 540.111878 521.166252 0.001875719
7.22214 532.29974 537.970621 521.612796 0.001878641
7.23094 532.01831 536.663491 522.060056 0.001879635
7.23974 531.62897 535.930293 522.508049 0.001881011
7.24855 531.26575 535.586379 522.956711 0.001882297
7.25735 531.52393 535.496383 523.406085 0.001881383
7.26615 531.93213 535.584811 523.856097 0.001879939
7.27495 531.7179 535.803304 524.306764 0.001880697
7.28375 532.09204 536.123132 524.758101 0.001879374
7.29256 533.21649 536.529103 525.210046 0.001875411
7.30136 533.84418 537.007584 525.662604 0.001873206
7.31016 534.67688 537.555416 526.115791 0.001870288
7.31896 536.29773 538.173897 526.569548 0.001864636
7.32777 536.87933 538.862227 527.023904 0.001862616
7.33657 536.83527 539.632554 527.478798 0.001862769
7.34537 537.41431 540.503822 527.93425 0.001860762
7.35417 538.68085 541.50735 528.390262 0.001856387
7.36297 539.00684 542.689873 528.846773 0.001855264
7.37178 539.45941 544.114009 529.303823 0.001853708
7.38058 540.97845 545.854588 529.761351 0.001848502
7.38938 542.59711 547.987308 530.219361 0.001842988
7.39818 543.86584 550.569877 530.677871 0.001838689
7.40698 544.7782 553.615134 531.136821 0.001835609
7.41579 546.23041 557.057141 531.596213 0.001830729
7.42459 547.83215 560.701356 532.056066 0.001825377
7.43339 548.91431 564.158184 532.516314 0.001821778
7.44219 549.34088 566.854947 532.977002 0.001820363
7.45099 549.68451 568.267658 533.438055 0.001819225
7.45980 549.90955 568.314209 533.89949 0.001818481
7.46860 550.57184 567.443642 534.361321 0.001816293
7.47740 551.0108 566.269843 534.823489 0.001814846
7.48620 551.86395 565.259995 535.286021 0.001812041
7.49501 552.59662 564.679431 535.748859 0.001809638
7.50381 554.38873 564.647536 536.21202 0.001803788
7.51261 555.79974 565.197863 536.675508 0.001799209
7.52141 557.42798 566.305931 537.139262 0.001793954
7.53021 560.21814 567.93192 537.603302 0.001785019
7.53902 563.26855 570.040473 538.06763 0.001775352
7.54782 566.04999 572.612389 538.532186 0.001766628
7.55662 569.94812 575.656302 538.997012 0.001754546
7.56542 574.87549 579.211732 539.462045 0.001739507
7.57422 580.76941 583.355135 539.92729 0.001721854
7.58303 587.46411 588.210726 540.392767 0.001702232
7.59183 594.87988 593.972853 540.858408 0.001681012
7.60063 605.13757 600.953189 541.324262 0.001652517
7.60943 618.25208 609.658202 541.79025 0.001617463
7.61823 634.2782 620.922692 542.256394 0.001576595
7.62704 654.15381 636.079003 542.722706 0.001528692
7.63584 679.79407 657.145239 543.189128 0.001471034
7.64464 713.17609 686.939991 543.655663 0.001402178
7.65344 755.76007 729.023863 544.12233 0.001323171
7.66225 813.17395 787.31186 544.58907 0.001229749
7.67105 885.65881 865.273288 545.055914 0.001129103
7.67985 976.68469 964.740107 545.522801 0.001023872
7.68865 1084.6033 1084.308756 545.989751 0.000921996
7.69745 1213.5598 1217.013385 546.456769 0.000824022
7.70626 1332.8267 1346.99034 546.923795 0.000750285
7.71506 1428.377 1447.321533 547.39087 0.000700095
7.72386 1468.6194 1486.843787 547.857935 0.000680912
7.73266 1434.6989 1450.500232 548.324995 0.00069701
7.74146 1345.0991 1352.807079 548.792069 0.00074344
7.75027 1228.1471 1224.840987 549.259098 0.000814235
7.75907 1104.286 1093.734274 549.726088 0.000905563
7.76787 993.02802 975.547425 550.193058 0.001007021
7.77667 899.46643 877.420577 550.659944 0.00111177
7.78548 823.2948 800.845901 551.126793 0.001214632
7.79428 765.60822 744.044252 551.593531 0.001306151
7.80308 724.23273 703.56921 552.060178 0.001380772
7.81188 689.88141 675.518148 552.52675 0.001449524
7.82068 665.74066 656.334249 552.993189 0.001502086
7.82949 648.09296 643.190469 553.459499 0.001542989
7.83829 634.70062 634.06926 553.925702 0.001575546
7.84709 624.95142 627.646446 554.391739 0.001600124
7.85589 617.23199 623.102373 554.857642 0.001620136
7.86469 611.60834 619.955183 555.323353 0.001635033
7.87350 608.23608 617.934645 555.788894 0.001644098
7.88230 605.82141 616.904938 556.254269 0.001650651
7.89110 604.95435 616.836935 556.719422 0.001653017
7.89990 605.51538 617.799093 557.184394 0.001651486
7.90870 607.11407 619.966874 557.649129 0.001647137
7.91751 610.81989 623.640592 558.113632 0.001637144
7.92631 616.11414 629.242958 558.577925 0.001623076
7.93511 622.91583 637.281919 559.041946 0.001605353
7.94391 632.58386 648.274957 559.505716 0.001580818
7.95272 646.10925 662.61318 559.969241 0.001547726
7.96152 664.97827 680.387849 560.432465 0.001503809
7.97032 690.73816 701.145874 560.895432 0.001447727
7.97912 720.50854 723.524792 561.358084 0.001387909
7.98792 754.39301 744.932071 561.820427 0.001325569
7.99673 785.07538 762.1345 562.282485 0.001273763
8.00553 803.4386 773.748874 562.744227 0.00124465
8.01433 807.54584 782.693415 563.205582 0.00123832
8.02313 804.61963 795.203166 563.666651 0.001242823
8.03193 808.10394 817.730608 564.127372 0.001237465
8.04074 827.02917 855.102926 564.58769 0.001209147
8.04954 865.14606 909.886219 565.04769 0.001155874
8.05834 923.00079 981.729846 565.507318 0.001083423
8.06714 1002.3965 1066.090957 565.966517 0.000997609
8.07594 1093.5164 1152.109842 566.425374 0.000914481
8.08475 1181.4388 1221.081912 566.883833 0.000846426
8.09355 1252.0256 1251.367282 567.341839 0.000798706
8.10235 1274.9463 1233.078371 567.799479 0.000784347
8.11115 1238.3447 1177.602886 568.256698 0.00080753
8.11996 1162.8739 1107.802706 568.713487 0.000859938
8.12876 1075.3259 1043.250641 569.169793 0.000929951
8.13756 1003.9149 995.137801 569.625702 0.0009961
8.14636 959.61139 967.502122 570.081159 0.001042089
8.15516 936.65228 958.824625 570.536111 0.001067632
8.16397 933.85846 962.539716 570.990643 0.001070826
8.17277 933.67706 967.438761 571.444702 0.001071034
8.18157 934.07159 960.990273 571.898235 0.001070582
8.19037 920.09839 936.777645 572.351328 0.00108684
8.19917 898.62427 898.543108 572.803926 0.001112812
8.20798 866.18384 855.203467 573.255974 0.001154489
8.21678 835.8952 814.299722 573.707571 0.001196322
8.22558 807.3667 780.144361 574.15865 0.001238595
8.23438 787.64508 754.663885 574.609209 0.001269607
8.24319 776.86316 738.52768 575.059192 0.001287228
8.25199 775.13855 731.951378 575.508699 0.001290092
8.26079 786.11188 735.348913 575.957663 0.001272084
8.26959 805.72479 749.76955 576.406033 0.001241119
8.27839 834.7002 777.112723 576.853904 0.001198035
8.28720 878.18323 819.901935 577.301226 0.001138715
8.29600 932.41888 880.647067 577.747931 0.001072479
8.30480 1001.371 960.779811 578.194122 0.000998631
8.31360 1088.1174 1059.166611 578.639741 0.000919018
8.32240 1183.0571 1169.888076 579.084738 0.000845268
8.33121 1273.6664 1279.079295 579.529199 0.000785135
8.34001 1340.5837 1362.706956 579.973074 0.000745944
8.34881 1366.3114 1393.111648 580.416357 0.000731898
8.35761 1338.5596 1358.138747 580.858999 0.000747072
8.36641 1268.9021 1272.587769 581.301086 0.000788083
8.37522 1155.7421 1164.758439 581.742568 0.000865245
8.38402 1046.5629 1058.21021 582.183395 0.000955509
8.39282 950.81207 966.493323 582.623653 0.001051733
8.40162 880.46008 895.702278 583.063293 0.00113577
8.41043 838.99664 847.530849 583.502266 0.0011919
8.41923 824.02209 821.110918 583.940658 0.00121356
8.42803 831.0415 814.127819 584.378419 0.001203309
8.43683 850.1106 823.347933 584.815503 0.001176318
8.44563 884.3313 844.62326 585.251993 0.001130798
8.45444 913.09265 872.142202 585.687843 0.001095179
8.46324 936.07184 897.401014 586.123049 0.001068294
8.47204 938.53662 909.942979 586.557562 0.001065489
8.48084 912.10046 902.465957 586.99147 0.00109637
8.48964 870.20428 876.178835 587.424723 0.001149155
8.49845 819.33746 838.695445 587.857275 0.001220498
8.50725 767.65674 797.894782 588.289212 0.001302666
8.51605 728.34222 759.214081 588.720487 0.001372981
8.52485 697.68671 725.704186 589.151052 0.001433308
8.53366 675.62469 698.526539 589.580994 0.001480112
8.54246 659.80292 677.56602 590.010266 0.001515604
8.55126 647.48999 661.973613 590.438817 0.001544425
8.56006 638.96997 650.624732 590.866747 0.001565019
8.56886 631.89612 642.422074 591.293996 0.001582539
8.57767 626.18744 636.441691 591.720566 0.001596966
8.58647 622.32147 631.988124 592.146408 0.001606887
8.59527 621.00641 628.575686 592.57162 0.001610289
8.60407 619.15271 625.885203 592.996144 0.00161511
8.61287 617.28967 623.712018 593.419934 0.001619985
8.62168 615.88354 621.924452 593.843085 0.001623684
8.63048 614.28833 620.436965 594.265553 0.0016279
8.63928 613.73523 619.190619 594.687279 0.001629367
8.64808 613.14404 618.142204 595.108362 0.001630938
8.65689 613.20135 617.259757 595.528754 0.001630786
8.66569 613.23077 616.518054 595.94841 0.001630707
8.67449 613.99774 615.89654 596.367416 0.00162867
8.68329 614.37842 615.378758 596.785728 0.001627661
8.69209 614.23566 614.951063 597.203345 0.00162804
8.70090 613.88757 614.602774 597.620224 0.001628963
8.70970 614.8653 614.322603 598.03645 0.001626372
8.71850 615.12561 614.103379 598.45198 0.001625684
8.72730 614.93427 613.939992 598.866772 0.00162619
8.73610 615.18994 613.823051 599.28091 0.001625514
8.74491 615.87067 613.749246 599.694352 0.001623718
8.75371 616.26813 613.714547 600.107055 0.00162267
8.76251 616.38031 613.714573 600.519105 0.001622375
8.77131 617.17627 613.74632 600.930459 0.001620283
8.78011 618.05072 613.807052 601.341075 0.00161799
8.78892 617.68652 613.894365 601.751039 0.001618944
8.79772 616.84113 614.005501 602.160308 0.001621163
8.80652 617.11401 614.138833 602.568884 0.001620446
8.81532 617.86383 614.292649 602.976725 0.00161848
8.82413 618.19836 614.465465 603.383916 0.001617604
8.83293 618.41571 614.655922 603.790416 0.001617035
8.84173 618.76819 614.862841 604.196185 0.001616114
8.85053 619.06097 615.085207 604.601306 0.00161535
8.85933 619.60217 615.322105 605.005739 0.001613939
8.86814 619.82288 615.572978 605.409445 0.001613364
8.87694 620.57715 615.837096 605.812507 0.001611403
8.88574 621.59015 616.113264 606.214885 0.001608777
8.89454 622.16718 616.401393 606.616537 0.001607285
8.90334 622.72162 616.70119 607.017558 0.001605854
8.91215 623.53625 617.012409 607.417896 0.001603756
8.92095 624.07806 617.334785 607.817557 0.001602364
8.92975 625.04657 617.66844 608.216499 0.001599881
8.93855 626.74335 618.013574 608.614817 0.001595549
8.94736 628.6239 618.370699 609.01246 0.001590776
8.95616 630.19122 618.741441 609.40939 0.00158682
8.96496 631.56018 619.126937 609.805699 0.00158338
8.97376 631.84589 619.531055 610.201349 0.001582664
8.98256 631.73859 619.959095 610.596287 0.001582933
8.99137 632.62164 620.4203 610.990612 0.001580724
9.00017 633.87567 620.922765 611.38428 0.001577596
9.00897 634.33124 621.477425 611.777254 0.001576463
9.01777 634.74902 622.095988 612.169618 0.001575426
9.02657 634.987 622.786337 612.561333 0.001574835
9.03538 634.50433 623.543452 612.952403 0.001576033
9.04418 633.80835 624.350243 613.34279 0.001577764
9.05298 633.53528 625.160488 613.732579 0.001578444
9.06178 634.04962 625.89297 614.121731 0.001577164
9.07058 634.58478 626.451206 614.51021 0.001575834
9.07939 634.34314 626.790683 614.898099 0.001576434
9.08819 633.45892 626.959841 615.285362 0.001578634
9.09699 633.04321 627.055621 615.671962 0.001579671
9.10579 633.94067 627.158762 616.057981 0.001577435
9.11460 635.27173 627.314407 616.443385 0.00157413
9.12340 635.59393 627.540818 616.828137 0.001573332
9.13220 635.08936 627.840455 617.212319 0.001574582
9.14100 635.2962 628.206904 617.595895 0.001574069
9.14980 635.4903 628.630097 617.978832 0.001573588
9.15861 635.55835 629.099513 618.361209 0.00157342
9.16741 635.37317 629.605526 618.742994 0.001573878
9.17621 636.16595 630.14034 619.124188 0.001571917
9.18501 635.82855 630.70055 619.504757 0.001572751
9.19381 636.40948 631.282607 619.884784 0.001571315
9.20262 637.21558 631.886023 620.264233 0.001569328
9.21142 637.3985 632.510109 620.643071 0.001568877
9.22022 637.04193 633.155838 621.021378 0.001569755
9.22902 636.9325 633.823757 621.39912 0.001570025
9.23782 637.77301 634.515051 621.776258 0.001567956
9.24663 639.26379 635.230979 622.152888 0.001564299
9.25543 640.7757 635.973419 622.528962 0.001560608
9.26423 641.73096 636.744235 622.904447 0.001558285
9.27303 642.40948 637.546275 623.279431 0.00155664
9.28184 643.90771 638.381327 623.653882 0.001553018
9.29064 646.02991 639.252594 624.027795 0.001547916
9.29944 647.45789 640.163041 624.401138 0.001544502
9.30824 648.09723 641.116787 624.773999 0.001542978
9.31704 649.8598 642.117926 625.146346 0.001538793
9.32585 651.45483 643.171186 625.518131 0.001535026
9.33465 652.79535 644.28211 625.88945 0.001531874
9.34345 652.7655 645.457158 626.260265 0.001531944
9.35225 653.10596 646.702614 626.630542 0.001531145
9.36105 653.50757 648.027251 627.000363 0.001530204
9.36986 654.04388 649.44029 627.369695 0.001528949
9.37866 654.01001 650.952339 627.738505 0.001529029
9.38746 654.08344 652.576203 628.106873 0.001528857
9.39626 654.3067 654.326323 628.474767 0.001528335
9.40507 654.58789 656.219819 628.842193 0.001527679
9.41387 655.21368 658.276271 629.209118 0.00152622
9.42267 657.13678 660.519921 629.575622 0.001521753
9.43147 658.48444 662.978553 629.941673 0.001518639
9.44027 659.95862 665.685265 630.30724 0.001515247
9.44908 661.82013 668.681021 630.672401 0.001510985
9.45788 664.65979 672.013987 631.037126 0.001504529
9.46668 667.89874 675.742827 631.401381 0.001497233
9.47548 672.04559 679.941178 631.765249 0.001487994
9.48428 676.39166 684.698652 632.128695 0.001478433
9.49309 682.00647 690.128022 632.49169 0.001466262
9.50189 688.46442 696.375951 632.854312 0.001452508
9.51069 695.73956 703.636337 633.21653 0.001437319
9.51949 705.60449 712.179594 633.578349 0.001417225
9.52829 717.61603 722.403806 633.939739 0.001393503
9.53710 732.2373 734.933248 634.300779 0.001365677
9.54590 751.05536 750.763774 634.661437 0.00133146
9.55470 773.87524 771.492743 635.021682 0.001292198
9.56350 805.11115 799.611762 635.381594 0.001242065
9.57231 841.88342 838.774105 635.741141 0.001187813
9.58111 894.09491 893.911876 636.100289 0.001118449
9.58991 959.77979 971.043272 636.459128 0.001041906
9.59871 1057.0414 1076.459792 636.817616 0.000946037
9.60751 1179.1586 1215.322567 637.175721 0.000848062
9.61632 1350.7588 1389.601494 637.533531 0.000740325
9.62512 1549.6805 1594.961882 637.891014 0.000645294
9.63392 1773.7401 1816.110836 638.248169 0.00056378
9.64272 2013.6271 2020.928249 638.604965 0.000496616
9.65152 2215.0542 2160.440153 638.961488 0.000451456
9.66033 2299.6125 2187.95902 639.317709 0.000434856
9.66913 2205.0627 2092.934021 639.673583 0.000453502
9.67793 1978.5713 1910.234562 640.029202 0.000505415
9.68673 1704.8386 1691.781147 640.384532 0.000586566
9.69553 1457.0741 1477.822223 640.739541 0.000686307
9.70434 1248.2084 1290.11523 641.094308 0.000801148
9.71314 1091.6411 1136.992091 641.448803 0.000916052
9.72194 975.85358 1018.723839 641.802995 0.001024744
9.73074 894.49359 931.189872 642.156963 0.001117951
9.73955 836.17139 868.37219 642.510676 0.001195927
9.74835 794.72589 824.005051 642.86414 0.001258295
9.75715 764.63739 792.643572 643.217324 0.001307809
9.76595 741.72894 770.07899 643.570306 0.001348201
9.77475 723.79999 753.36004 643.923057 0.001381597
9.78356 710.18542 740.545698 644.275546 0.001408083
9.79236 700.49335 730.414076 644.627851 0.001427565
9.80116 692.67035 722.209993 644.979942 0.001443688
9.80996 686.82452 715.455483 645.331787 0.001455976
9.81876 682.35394 709.834481 645.683466 0.001465515
9.82757 678.51965 705.127849 646.034948 0.001473797
9.83637 675.81329 701.174666 646.386202 0.001479699
9.84517 673.73956 697.851203 646.737307 0.001484253
9.85397 671.26831 695.061802 647.088231 0.001489717
9.86278 669.09528 692.730864 647.438981 0.001494555
9.87158 667.96503 690.79798 647.789527 0.001497084
9.88038 667.81866 689.215256 648.139945 0.001497412
9.88918 667.84833 687.944836 648.490206 0.001497346
9.89798 667.323 686.957471 648.84028 0.001498525
9.90679 666.79089 686.230785 649.190243 0.001499721
9.91559 666.9566 685.749096 649.540065 0.001499348
9.92439 667.24207 685.503052 649.889713 0.001498706
9.93319 667.71722 685.489663 650.239275 0.00149764
9.94199 667.99408 685.713854 650.588709 0.001497019
9.95080 669.17682 686.189726 650.937985 0.001494373
9.95960 670.177 686.944149 651.287188 0.001492143
9.96840 671.6554 688.019147 651.636288 0.001488859
9.97720 673.39276 689.475048 651.985281 0.001485017
9.98600 676.60938 691.39043 652.334138 0.001477958
9.99481 680.14453 693.859974 652.682943 0.001470276
10.00361 684.33984 696.984823 653.031678 0.001461262
10.01241 688.27429 700.861507 653.380262 0.001452909
10.02121 694.51605 705.570218 653.728849 0.001439852
10.03002 703.13007 711.152803 654.077326 0.001422212
10.03882 713.70575 717.595327 654.4257 0.001401138
10.04762 725.70526 724.832057 654.774093 0.00137797
10.05642 739.22339 732.87608 655.122391 0.001352771
10.06522 755.41852 742.208821 655.470641 0.00132377
10.07403 774.83289 754.149256 655.818846 0.001290601
10.08283 797.89044 770.777077 656.167052 0.001253305
10.09163 825.87793 794.50373 656.515184 0.001210833
10.10043 859.65509 827.665246 656.863248 0.001163257
10.10923 898.21252 872.12156 657.211367 0.001113322
10.11804 941.62445 928.639821 657.559427 0.001061995
10.12684 993.9259 996.102728 657.907473 0.001006111
10.13564 1053.3035 1070.218934 658.25551 0.000949394
10.14444 1108.2172 1141.712582 658.603581 0.00090235
10.15325 1163.2589 1195.475645 658.951574 0.000859654
10.16205 1180.8492 1215.29029 659.299611 0.000846848
10.17085 1178.3505 1194.816138 659.647698 0.000848644
10.17965 1141.0355 1143.524414 659.99572 0.000876397
10.18845 1087.1301 1078.850291 660.34384 0.000919853
10.19726 1026.8461 1015.814328 660.691944 0.000973856
10.20606 978.21716 963.534683 661.040116 0.001022268
10.21486 937.21509 926.400202 661.388241 0.001066991
10.22366 912.35596 905.549927 661.736444 0.001096063
10.23246 899.10315 899.854441 662.084727 0.001112219
10.24127 892.38318 906.212109 662.432977 0.001120595
10.25007 892.1524 919.495358 662.781356 0.001120885
10.25887 896.63757 932.312465 663.129751 0.001115278
10.26767 898.46655 936.253978 663.478204 0.001113007
10.27647 892.651 925.802851 663.82672 0.001120259
10.28528 877.75574 901.975535 664.175303 0.001139269
10.29408 854.56525 870.654391 664.523958 0.001170186
10.30288 830.4469 837.993678 664.872687 0.001204171
10.31168 805.94257 807.991285 665.221536 0.001240783
10.32048 788.11176 782.60747 665.570388 0.001268856
10.32929 774.76001 762.42939 665.919407 0.001290722
10.33809 767.1344 747.272005 666.268478 0.001303553
10.34689 761.30872 736.537626 666.617643 0.001313528
10.35569 758.9801 729.499177 666.966906 0.001317558
10.36450 759.00623 725.520034 667.316272 0.001317512
10.37330 763.04108 724.190946 667.665783 0.001310545
10.38210 769.48346 725.404524 668.015324 0.001299573
10.39090 776.19214 729.365047 668.365058 0.001288341
10.39971 785.06824 736.52713 668.714869 0.001273775
10.40851 795.21313 747.48258 669.06476 0.001257525
10.41731 805.17847 762.794129 669.414853 0.001241961
10.42611 816.16516 782.726658 669.765034 0.001225242
10.43491 828.09778 806.975605 670.115345 0.001207587
10.44371 842.05212 834.200944 670.465788 0.001187575
10.45252 859.83978 861.435222 670.816408 0.001163007
10.46132 879.64288 883.547924 671.167128 0.001136825
10.47012 890.84576 894.237952 671.51795 0.001122529
10.47892 893.93958 889.531931 671.868998 0.001118644
10.48773 881.79852 871.013366 672.220154 0.001134046
10.49653 859.30042 844.436952 672.571462 0.001163737
10.50533 831.1272 815.713658 672.922924 0.001203185
10.51413 802.8667 788.758212 673.274543 0.001245537
10.52293 776.55054 765.527958 673.626321 0.001287746
10.53174 756.43549 746.698524 673.978262 0.00132199
10.54054 740.0437 732.151622 674.330409 0.001351272
10.54934 728.1087 721.347024 674.682642 0.001373421
10.55814 718.58588 713.54202 675.035126 0.001391622
10.56695 710.87573 707.990577 675.387743 0.001406716
10.57575 705.67865 704.045008 675.740534 0.001417076
10.58455 701.63831 701.201717 676.093503 0.001425236
10.59335 698.57709 699.104039 676.446651 0.001431481
10.60215 696.18182 697.512528 676.800021 0.001436406
10.61096 694.59692 696.275366 677.153494 0.001439684
10.61976 693.47626 695.295659 677.507234 0.00144201
10.62856 692.39117 694.511977 677.861121 0.00144427
10.63736 691.30804 693.883456 678.215199 0.001446533
10.64616 690.04553 693.381115 678.569468 0.00144918
10.65497 689.28027 692.983896 678.923931 0.001450789
10.66377 689.16083 692.675223 679.27859 0.00145104
10.67257 689.58984 692.442229 679.633446 0.001450137
10.68137 689.79163 692.27443 679.988541 0.001449713
10.69017 689.23206 692.163235 680.343796 0.00145089
10.69898 688.70728 692.101656 680.699253 0.001451996
10.70778 688.39856 692.083764 681.054914 0.001452647
10.71658 688.97351 692.104808 681.41078 0.001451435
10.72538 689.74182 692.160654 681.766852 0.001449818
10.73419 690.45941 692.247998 682.123132 0.001448311
10.74299 691.86664 692.36404 682.479661 0.001445365
10.75179 692.02423 692.506384 682.83632 0.001445036
10.76059 691.77386 692.673192 683.19327 0.001445559
10.76939 691.75922 692.862814 683.550393 0.00144559
10.77820 692.77264 693.074035 683.907688 0.001443475
10.78700 694.41608 693.305981 684.265279 0.001440059
10.79580 696.18457 693.557902 684.623044 0.001436401
10.80460 697.07739 693.829461 684.981066 0.001434561
10.81340 697.85632 694.120428 685.339223 0.00143296
10.82221 698.57166 694.431054 685.697639 0.001431492
10.83101 699.02173 694.761743 686.056313 0.001430571
10.83981 699.51282 695.113188 686.415125 0.001429566
10.84861 700.2489 695.486661 686.774237 0.001428064
10.85741 700.59631 695.883624 687.133528 0.001427356
10.86622 700.72101 696.306203 687.49304 0.001427101
10.87502 700.86279 696.757103 687.852772 0.001426813
10.88382 700.63379 697.239993 688.212725 0.001427279
10.89262 701.13464 697.759593 688.572898 0.00142626
10.90142 701.84009 698.322592 688.933293 0.001424826
10.91023 702.83319 698.93845 689.29395 0.001422813
10.91903 703.46265 699.621309 689.654788 0.00142154
10.92783 704.27551 700.393306 690.015847 0.001419899
10.93663 705.59375 701.289201 690.377127 0.001417246
10.94544 707.5827 702.363594 690.738628 0.001413262
10.95424 710.44391 703.698351 691.100351 0.001407571
10.96304 712.276 705.41112 691.462294 0.00140395
10.97184 714.57941 707.657804 691.824498 0.001399425
10.98064 717.41217 710.626851 692.186841 0.001393899
10.98945 720.8822 714.522314 692.549485 0.001387189
10.99825 724.79913 719.522731 692.912308 0.001379693
11.00705 729.06165 725.737053 693.275349 0.001371626
11.01585 734.07385 733.130077 693.638609 0.001362261
11.02465 739.18225 741.438139 694.002085 0.001352846
11.03346 744.06952 750.031185 694.36582 0.00134396
11.04226 749.99066 757.771959 694.729689 0.00133335
11.05106 756.99353 763.071626 695.093855 0.001321015
11.05986 760.60181 764.479264 695.458194 0.001314748
11.06867 759.82495 761.656011 695.822747 0.001316093
11.07747 755.39508 755.645626 696.187512 0.001323811
11.08627 748.27277 748.085389 696.552489 0.001336411
11.09507 740.85864 740.355151 696.917676 0.001349785
11.10387 735.14886 733.305588 697.283072 0.001360269
11.11268 730.22217 727.348721 697.648718 0.001369446
11.12148 725.41278 722.616178 698.014488 0.001378525
11.13028 722.00494 719.05302 698.380504 0.001385032
11.13908 719.97266 716.507205 698.746767 0.001388942
11.14789 718.18243 714.781192 699.11319 0.001392404
11.15669 716.07349 713.67687 699.479815 0.001396505
11.16549 714.37195 713.022228 699.84664 0.001399831
11.17429 713.90479 712.682344 700.213705 0.001400747
11.18309 714.36755 712.560606 700.580883 0.00139984
11.19190 714.28931 712.591302 700.948297 0.001399993
11.20070 713.65015 712.732463 701.315947 0.001401247
11.20950 713.4577 712.957606 701.683704 0.001401625
11.21830 713.17456 713.250516 702.051735 0.001402181
11.22710 712.89996 713.600934 702.419912 0.001402721
11.23591 712.65009 714.002454 702.788275 0.001403213
11.24471 713.00061 714.451108 703.156822 0.001402523
11.25351 713.55963 714.944585 703.525551 0.001401425
11.26231 714.00409 715.481954 703.894502 0.001400552
11.27111 714.74609 716.063177 704.263546 0.001399098
11.27992 715.22211 716.689776 704.632851 0.001398167
11.28872 716.68286 717.363957 705.002287 0.001395317
11.29752 717.47137 718.089734 705.371894 0.001393784
11.30632 717.41034 718.872953 705.74167 0.001393902
11.31513 718.07288 719.722334 706.111613 0.001392616
11.32393 719.53809 720.650753 706.48172 0.00138978
11.33273 720.85889 721.677171 706.851989 0.001387234
11.34153 721.66058 722.82944 707.22246 0.001385693
11.35033 723.61304 724.145864 707.593003 0.001381954
11.35914 725.64301 725.679354 707.963785 0.001378088
11.36794 727.5014 727.495835 708.334677 0.001374568
11.37674 729.57635 729.674141 708.705718 0.001370658
11.38554 732.82568 732.300955 709.076906 0.001364581
11.39434 736.21704 735.462958 709.448237 0.001358295
11.40315 740.26636 739.239062 709.819751 0.001350865
11.41195 745.63037 743.683339 710.19132 0.001341147
11.42075 751.26099 748.810204 710.563108 0.001331095
11.42955 757.30725 754.552418 710.934987 0.001320468
11.43835 764.60364 760.731994 711.306953 0.001307867
11.44716 773.03577 767.103955 711.679131 0.001293601
11.45596 781.08588 773.531196 712.05139 0.001280269
11.46476 789.57147 780.187157 712.423769 0.00126651
11.47356 800.11279 787.489346 712.796267 0.001249824
11.48237 811.22534 795.775433 713.168922 0.001232703
11.49117 819.75385 804.987657 713.541603 0.001219878
11.49997 828.64105 814.496638 713.914435 0.001206795
11.50877 833.68121 823.101479 714.287415 0.001199499
11.51757 836.93475 829.451331 714.660454 0.001194836
11.52638 838.16162 832.87826 715.033592 0.001193087
11.53518 832.98889 833.875304 715.406826 0.001200496
11.54398 826.53644 833.612696 715.780194 0.001209868
11.55278 820.75793 833.040242 716.153566 0.001218386
11.56158 815.23773 832.45097 716.527066 0.001226636
11.57039 813.27716 831.71068 716.90069 0.001229593
11.57919 814.42822 830.887842 717.274308 0.001227855
11.58799 817.96442 830.806403 717.648086 0.001222547
11.59679 825.71777 832.983675 718.021893 0.001211068
11.60559 836.57416 839.22151 718.395769 0.001195351
11.61440 851.44678 851.304836 718.769709 0.001174472
11.62320 871.88446 870.894622 719.14371 0.001146941
11.63200 900.15961 899.438325 719.517811 0.001110914
11.64080 936.87329 937.903003 719.891881 0.00106738
11.64961 983.61444 986.528902 720.266086 0.001016659
11.65841 1041.8568 1044.266998 720.640295 0.000959825
11.66721 1106.5974 1108.288172 721.014547 0.000903671
11.67601 1172.8597 1173.068303 721.388838 0.000852617
11.68481 1233.8536 1229.718534 721.763164 0.000810469
11.69362 1267.1614 1266.918814 722.137522 0.000789165
11.70242 1280.0258 1275.214062 722.511908 0.000781234
11.71122 1262.3204 1252.95881 722.886361 0.000792192
11.72002 1221.9154 1207.592517 723.260748 0.000818387
11.72883 1163.5742 1150.610595 723.635238 0.000859421
11.73763 1113.1664 1092.159097 724.009697 0.000898338
11.74643 1062.0189 1039.00815 724.384165 0.000941603
11.75523 1018.8421 994.900904 724.758638 0.000981506
11.76403 985.68103 961.483885 725.133112 0.001014527
11.77284 963.54712 938.962951 725.507625 0.001037832
11.78164 951.31464 926.730607 725.882046 0.001051177
11.79044 948.81805 923.954288 726.256542 0.001053943
11.79924 952.75946 930.237449 726.630981 0.001049583
11.80804 965.98309 945.839632 727.005358 0.001035215
11.81685 986.99664 971.332701 727.379797 0.001013175
11.82565 1016.0687 1006.904876 727.754167 0.000984185
11.83445 1051.2329 1051.829311 728.128507 0.000951264
11.84325 1093.6866 1103.865921 728.502812 0.000914339
11.85206 1138.4133 1158.600146 728.87712 0.000878416
11.86086 1185.3232 1208.762162 729.251343 0.000843652
11.86966 1224.8997 1244.556599 729.625477 0.000816393
11.87846 1250.6235 1256.71185 729.999645 0.000799601
11.88726 1244.3344 1241.588618 730.373716 0.000803642
11.89607 1208.8538 1203.80682 730.747728 0.00082723
11.90487 1155.3568 1153.026892 731.121676 0.000865533
11.91367 1092.9528 1098.835 731.4956 0.000914953
11.92247 1034.9081 1048.015833 731.869368 0.000966269
11.93127 988.62555 1004.329402 732.243103 0.001011505
11.94008 953.23309 969.143887 732.616802 0.001049061
11.94888 928.09839 942.016781 732.990332 0.001077472
11.95768 908.77783 921.075062 733.363859 0.001100379
11.96648 893.94519 903.693283 733.737252 0.001118637
11.97528 881.75537 887.481289 734.110593 0.001134101
11.98409 868.427 871.237438 734.483748 0.001151507
11.99289 855.89142 855.04351 734.856842 0.001168373
12.00169 841.5849 839.596609 735.229871 0.001188234
12.01049 826.72021 825.573402 735.602702 0.001209599
12.01929 814.18964 813.385569 735.975503 0.001228215
12.02810 802.85406 803.216369 736.348141 0.001245556
12.03690 794.02576 795.077075 736.720655 0.001259405
12.04570 786.3205 788.849262 737.09304 0.001271746
12.05450 780.00476 784.327445 737.465293 0.001282043
12.06330 775.15399 781.237527 737.83741 0.001290066
12.07211 772.06219 779.264786 738.209386 0.001295232
12.08091 769.25269 778.060738 738.58126 0.001299963
12.08971 767.54016 777.244671 738.952943 0.001302863
12.09851 766.09967 776.431723 739.324474 0.001305313
12.10732 764.78778 775.311339 739.695848 0.001307552
12.11612 762.96307 773.758385 740.067061 0.001310679
12.12492 761.95349 771.85635 740.43811 0.001312416
12.13372 760.86902 769.802912 740.808991 0.001314287
12.14252 760.60242 767.793417 741.17974 0.001314747
12.15133 759.81281 765.969979 741.55023 0.001316114
12.16013 758.34888 764.417323 741.920623 0.001318654
12.16893 756.88757 763.182745 742.290789 0.0013212
12.17773 756.23383 762.287347 742.660725 0.001322342
12.18653 756.56213 761.738157 743.030553 0.001321769
12.19534 756.87512 761.536071 743.400143 0.001321222
12.20414 757.02527 761.679361 743.769575 0.00132096
12.21294 757.24292 762.165325 744.138719 0.00132058
12.22174 758.17438 762.986927 744.507739 0.001318958
12.23055 758.65442 764.126153 744.876506 0.001318123
12.23935 758.67322 765.544285 745.245016 0.001318091
12.24815 759.06189 767.169875 745.61339 0.001317416
12.25695 759.95001 768.880481 745.981499 0.001315876
12.26575 760.88171 770.486479 746.349382 0.001314265
12.27456 761.63892 771.735907 746.717035 0.001312958
12.28336 762.27106 772.376523 747.084495 0.001311869
12.29216 762.01477 772.277521 747.451634 0.001312311
12.30096 762.45874 771.512137 747.818573 0.001311546
12.30977 762.75708 770.309249 748.185309 0.001311033
12.31857 762.88104 768.929604 748.551755 0.00131082
12.32737 762.36676 767.581129 748.917948 0.001311705
12.33617 762.51154 766.398609 749.283885 0.001311456
12.34497 762.82227 765.457778 749.649605 0.001310921
12.35378 763.28711 764.790021 750.014979 0.001310123
12.36258 763.82507 764.395398 750.380127 0.0013092
12.37138 764.45624 764.252344 750.745047 0.001308119
12.38018 764.44574 764.325048 751.109612 0.001308137
12.38898 765.71027 764.570409 751.473982 0.001305977
12.39779 767.57031 764.943566 751.83803 0.001302812
12.40659 768.9541 765.407291 752.201795 0.001300468
12.41539 769.8299 765.944371 752.565274 0.001298988
12.42419 771.72443 766.571343 752.928462 0.001295799
12.43299 773.64557 767.342078 753.291357 0.001292582
12.44180 776.20013 768.339779 753.653955 0.001288328
12.45060 778.28168 769.66685 754.016294 0.001284882
12.45940 780.08215 771.434558 754.37829 0.001281916
12.46820 782.9574 773.756678 754.739979 0.001277209
12.47701 787.09741 776.734005 755.101359 0.001270491
12.48581 791.35046 780.438194 755.462426 0.001263663
12.49461 795.04553 784.886342 755.823178 0.00125779
12.50341 799.76276 790.014286 756.183612 0.001250371
12.51221 804.00879 795.646634 756.543765 0.001243767
12.52102 809.60815 801.445049 756.903512 0.001235165
12.52982 812.88373 806.879459 757.263014 0.001230188
12.53862 814.58887 811.222365 757.622145 0.001227613
12.54742 815.58209 813.727251 757.980902 0.001226118
12.55622 814.06421 813.959505 758.339404 0.001228404
12.56503 811.75525 812.071252 758.697528 0.001231898
12.57383 809.95282 808.722218 759.055351 0.00123464
12.58263 806.14465 804.740818 759.412748 0.001240472
12.59143 802.54303 800.827908 759.76988 0.001246039
12.60023 799.95526 797.471984 760.126623 0.00125007
12.60904 798.64038 794.949872 760.482973 0.001252128
12.61784 798.44495 793.371706 760.83905 0.001252434
12.62664 798.93536 792.706806 761.194729 0.001251666
12.63544 799.06665 792.797659 761.55005 0.00125146
12.64424 799.58954 793.371674 761.905008 0.001250642
12.65305 799.62628 794.057943 762.259643 0.001250584
12.66185 799.45062 794.452407 762.613831 0.001250859
12.67065 799.05811 794.243056 762.967691 0.001251473
12.67945 798.32825 793.33761 763.32122 0.001252618
12.68826 796.31244 791.876756 763.674335 0.001255788
12.69706 793.51917 790.117309 764.027075 0.001260209
12.70586 791.5976 788.309459 764.379438 0.001263268
12.71466 790.20197 786.637328 764.731461 0.001265499
12.72346 789.13782 785.216224 765.083023 0.001267206
12.73227 788.03711 784.106756 765.434241 0.001268976
12.74107 787.71222 783.32964 765.785114 0.001269499
12.74987 787.6474 782.879028 766.13552 0.001269604
12.75867 787.60504 782.730914 766.485615 0.001269672
12.76747 787.69751 782.853886 766.835281 0.001269523
12.77628 788.49951 783.21747 767.184553 0.001268232
12.78508 789.51862 783.79865 767.533431 0.001266595
12.79388 790.59656 784.588363 767.881912 0.001264868
12.80268 791.57574 785.595246 768.230035 0.001263303
12.81148 793.09985 786.850021 768.57768 0.001260875
12.82029 795.21271 788.409799 768.925003 0.001257525
12.82909 797.38739 790.358946 769.271883 0.001254096
12.83789 799.94226 792.811878 769.61836 0.00125009
12.84669 802.76886 795.90754 769.964432 0.001245689
12.85550 805.91736 799.802394 770.310096 0.001240822
12.86430 809.50323 804.6514 770.655353 0.001235326
12.87310 815.11084 810.584925 771.000201 0.001226827
12.88190 820.74146 817.681526 771.344677 0.00121841
12.89070 827.00934 825.924409 771.688663 0.001209176
12.89951 833.24799 835.182218 772.032315 0.001200123
12.90831 840.27423 845.145261 772.375514 0.001190088
12.91711 847.4798 855.299997 772.718298 0.001179969
12.92591 854.26367 864.878366 773.060667 0.001170599
12.93472 859.77173 872.916321 773.402619 0.001163099
12.94352 864.60046 878.518504 773.744192 0.001156604
12.95232 867.75885 881.306606 774.085269 0.001152394
12.96112 870.80957 881.73349 774.426004 0.001148357
12.96992 874.24023 880.919357 774.766281 0.00114385
12.97873 878.68555 880.172799 775.106098 0.001138064
12.98753 884.52313 880.597489 775.445572 0.001130553
12.99633 890.23438 882.940002 775.784585 0.0011233
13.00513 899.87781 887.564817 776.123176 0.001111262
13.01393 911.83832 894.486674 776.461345 0.001096686
13.02274 921.79834 903.370089 776.799128 0.001084836
13.03154 932.74585 913.554801 777.13645 0.001072103
13.04034 945.14331 924.175704 777.473309 0.001058041
13.04914 953.80933 934.43824 777.809821 0.001048428
13.05795 962.36279 943.986286 778.14587 0.001039109
13.06675 968.98212 953.167861 778.481495 0.001032011
13.07555 974.09473 962.975766 778.816695 0.001026594
13.08435 981.59668 974.669805 779.151508 0.001018748
13.09315 990.91632 989.268795 779.485821 0.001009167
13.10196 1002.3 1007.241919 779.819747 0.000997705
13.11076 1017.1462 1028.274996 780.153286 0.000983143
13.11956 1036.9929 1051.168097 780.486325 0.000964327
13.12836 1061.4961 1073.850808 780.819015 0.000942067
13.13716 1088.287 1093.734576 781.151243 0.000918875
13.14597 1110.1281 1108.739262 781.483086 0.000900797
13.15477 1127.2117 1118.362353 781.814429 0.000887145
13.16357 1138.3434 1123.97157 782.145387 0.00087847
13.17237 1144.4506 1127.82635 782.475959 0.000873782
13.18117 1145.2356 1131.773198 782.806035 0.000873183
13.18998 1142.9968 1136.388943 783.135764 0.000874893
13.19878 1140.3704 1140.701167 783.465034 0.000876908
13.20758 1135.3804 1142.420082 783.793884 0.000880762
13.21638 1126.5085 1138.786726 784.122314 0.000887699
13.22518 1115.2413 1128.001591 784.450325 0.000896667
13.23399 1101.3428 1110.415754 784.777917 0.000907983
13.24279 1083.5804 1088.438271 785.105092 0.000922866
13.25159 1063.7087 1065.301125 785.431888 0.000940107
13.26039 1046.2118 1043.892991 785.758231 0.000955829
13.26920 1029.3657 1026.126398 786.084159 0.000971472
13.27800 1021.2449 1012.930264 786.409674 0.000979197
13.28680 1014.6229 1004.286498 786.734776 0.000985588
13.29560 1013.1987 999.342306 787.059467 0.000986973
13.30440 1012.2031 996.468759 787.383747 0.000987944
13.31321 1009.0574 993.476957 787.707655 0.000991024
13.32201 999.56836 988.167321 788.031082 0.001000432
13.33081 983.61298 979.041929 788.354176 0.00101666
13.33961 963.96185 965.858918 788.676828 0.001037385
13.34841 943.271 949.524436 788.999039 0.001060141
13.35722 922.91504 931.499023 789.320922 0.001083523
13.36602 903.98285 913.221144 789.642367 0.001106216
13.37482 887.74548 895.790671 789.96345 0.001126449
13.38362 871.69421 879.933105 790.284062 0.001147191
13.39243 858.34406 866.044002 790.60435 0.001165034
13.40123 847.4447 854.27804 790.924209 0.001180018
13.41003 840.10791 844.602357 791.243638 0.001190323
13.41883 833.3656 836.848187 791.562749 0.001199954
13.42763 827.97583 830.772288 791.881436 0.001207765
13.43644 823.15912 826.095042 792.199735 0.001214832
13.44524 820.01727 822.537563 792.517649 0.001219487
13.45404 817.4624 819.849369 792.835215 0.001223298
13.46284 815.58966 817.819816 793.152329 0.001226107
13.47164 814.42694 816.281808 793.4691 0.001227857
13.48045 813.18036 815.110306 793.785529 0.001229739
13.48925 811.68262 814.215648 794.101512 0.001232009
13.49805 810.67603 813.53523 794.417194 0.001233538
13.50685 810.37408 813.027785 794.732469 0.001233998
13.51566 810.12158 812.667332 795.047412 0.001234383
13.52446 810.17706 812.439125 795.361918 0.001234298
13.53326 810.89514 812.338053 795.676096 0.001233205
13.54206 811.62231 812.367624 795.989949 0.0012321
13.55086 811.91205 812.540881 796.303371 0.00123166
13.55967 812.80066 812.881874 796.616509 0.001230314
13.56847 813.5238 813.427174 796.929257 0.00122922
13.57727 815.12537 814.228566 797.241654 0.001226805
13.58607 817.2226 815.352491 797.553703 0.001223657
13.59487 819.14087 816.87993 797.865405 0.001220791
13.60368 820.33685 818.900853 798.176765 0.001219011
13.61248 821.34106 821.506757 798.487783 0.001217521
13.62128 822.77582 824.780971 798.7985 0.001215398
13.63008 825.06256 828.778546 799.108846 0.001212029
13.63889 828.7063 833.514111 799.418859 0.0012067
13.64769 833.31732 838.934939 799.728544 0.001200023
13.65649 836.81525 844.904331 800.037902 0.001195007
13.66529 841.07813 851.170738 800.346936 0.00118895
13.67409 846.75006 857.341985 800.655651 0.001180986
13.68290 852.57831 862.874658 800.964082 0.001172913
13.69170 862.81537 867.109156 801.272129 0.001158997
13.70050 877.29474 869.436473 801.579935 0.001139868
13.70930 887.48773 869.524745 801.887397 0.001126776
13.71810 890.16833 867.493086 802.194519 0.001123383
13.72691 878.56415 863.848463 802.501409 0.001138221
13.73571 861.82147 859.26238 802.807966 0.001160333
13.74451 848.90759 854.346568 803.114261 0.001177985
13.75331 841.70209 849.559459 803.420195 0.001188069
13.76211 836.63153 845.178342 803.72591 0.001195269
13.77092 832.95966 841.334367 804.031303 0.001200538
13.77972 830.22595 838.029639 804.33638 0.001204491
13.78852 828.43829 835.180215 804.641248 0.001207091
13.79732 827.78467 832.670317 804.945805 0.001208044
13.80612 826.38239 830.402511 805.25009 0.001210094
13.81493 824.64441 828.332442 805.554107 0.001212644
13.82373 823.11774 826.457399 805.857893 0.001214893
13.83253 822.33014 824.793261 806.161348 0.001216057
13.84133 821.8562 823.351177 806.46458 0.001216758
13.85014 821.18921 822.133257 806.767592 0.001217746
13.85894 820.30237 821.133115 807.070318 0.001219063
13.86774 819.50934 820.34418 807.372798 0.001220242
13.87654 819.42377 819.75154 807.675034 0.00122037
13.88534 818.71332 819.339808 807.977064 0.001221429
13.89415 818.27051 819.093331 808.27879 0.00122209
13.90295 818.53802 818.996704 808.580317 0.00122169
13.91175 818.96527 819.036455 808.88165 0.001221053
13.92055 818.7948 819.202542 809.182689 0.001221307
13.92935 818.03271 819.488523 809.483576 0.001222445
13.93816 817.94678 819.891565 809.784211 0.001222573
13.94696 817.8927 820.411614 810.084632 0.001222654
13.95576 818.15637 821.049432 810.384844 0.00122226
13.96456 818.71082 821.804826 810.68485 0.001221432
13.97337 819.27948 822.673692 810.984688 0.001220585
13.98217 819.75128 823.64563 811.28426 0.001219882
13.99097 820.68658 824.701855 811.583705 0.001218492
13.99977 822.07111 825.810836 811.882927 0.00121644
14.00857 823.34863 826.927056 812.181962 0.001214552
14.01738 824.54626 827.988083 812.480814 0.001212788
14.02618 824.58087 828.920028 812.779488 0.001212737
14.03498 824.66522 829.652179 813.077988 0.001212613
14.04378 825.37347 830.142502 813.376317 0.001211573
14.05259 826.47986 830.397548 813.674514 0.001209951
14.06139 826.78033 830.470651 813.97248 0.001209511
14.07019 826.70551 830.440556 814.270356 0.001209621
14.07899 827.54614 830.387765 814.568043 0.001208392
14.08779 828.41858 830.381271 814.865581 0.001207119
14.09660 829.39117 830.476795 815.162971 0.001205704
14.10540 830.24078 830.720082 815.46022 0.00120447
14.11420 832.47894 831.152367 815.757364 0.001201232
14.12300 833.85663 831.816042 816.054307 0.001199247
14.13180 835.73871 832.762242 816.351187 0.001196546
14.14061 838.42126 834.055077 816.647907 0.001192718
14.14941 841.02325 835.785624 816.944472 0.001189028
14.15821 843.02039 838.070141 817.240986 0.001186211
14.16701 846.43158 841.056303 817.537353 0.00118143
14.17581 850.92719 844.924912 817.83361 0.001175189
14.18462 856.5376 849.878219 818.129762 0.001167491
14.19342 863.67108 856.129892 818.425846 0.001157848
14.20222 871.81366 863.872797 818.7218 0.001147034
14.21102 881.08661 873.25857 819.017626 0.001134962
14.21983 891.91388 884.358909 819.313431 0.001121184
14.22863 903.52545 897.115581 819.609116 0.001106776
14.23743 916.979 911.320067 819.904722 0.001090538
14.24623 931.216 926.550384 820.20025 0.001073865
14.25503 944.1358 942.137954 820.495705 0.00105917
14.26384 955.86017 957.106542 820.791092 0.001046178
14.27264 964.16693 970.173796 821.086415 0.001037165
14.28144 967.66364 979.880371 821.38171 0.001033417
14.29024 967.35968 984.904532 821.676882 0.001033742
14.29904 965.39001 984.546257 821.972068 0.001035851
14.30785 959.60022 979.025522 822.267173 0.001042101
14.31665 952.6936 969.387347 822.562233 0.001049655
14.32545 944.62317 957.080887 822.857254 0.001058623
14.33425 933.71796 943.528547 823.152238 0.001070987
14.34305 922.37207 929.881507 823.447223 0.001084161
14.35186 911.22858 916.991073 823.742113 0.001097419
14.36066 900.90796 905.406233 824.037046 0.001109991
14.36946 892.10571 895.472134 824.331925 0.001120943
14.37826 885.77155 887.355698 824.626788 0.001128959
14.38706 880.23181 881.124867 824.921638 0.001136064
14.39587 876.22961 876.790443 825.21648 0.001141253
14.40467 874.30139 874.339385 825.511318 0.00114377
14.41347 873.95813 873.758127 825.806155 0.00114422
14.42227 874.79773 875.030422 826.101029 0.001143121
14.43108 877.39526 878.142589 826.395876 0.001139737
14.43988 881.0238 883.067611 826.690735 0.001135043
14.44868 885.64789 889.75306 826.985608 0.001129117
14.45748 891.90942 898.089881 827.2805 0.00112119
14.46628 899.97516 907.884556 827.575415 0.001111142
14.47509 909.85883 918.822807 827.870355 0.001099072
14.48389 921.01825 930.428858 828.165359 0.001085755
14.49269 931.35291 942.038944 828.46033 0.001073707
14.50149 940.80219 952.81121 828.755405 0.001062923
14.51029 948.02954 961.788727 829.050488 0.001054819
14.51910 951.99908 968.05719 829.345582 0.001050421
14.52790 954.03491 970.933844 829.640791 0.00104818
14.53670 953.11407 970.111898 829.936019 0.001049192
14.54550 949.64655 965.740387 830.231302 0.001053023
14.55430 943.68835 958.401374 830.526644 0.001059672
14.56311 936.28918 948.989703 830.822049 0.001068046
14.57191 927.80286 938.507749 831.117554 0.001077815
14.58071 919.2998 927.893109 831.41306 0.001087784
14.58951 910.89429 917.911424 831.708707 0.001097822
14.59832 904.31348 909.150148 832.004397 0.001105811
14.60712 899.69293 902.039349 832.300166 0.00111149
14.61592 896.99695 896.878283 832.596019 0.001114831
14.62472 897.14197 893.872704 832.891957 0.001114651
14.63352 898.86853 893.149325 833.187986 0.00111251
14.64233 901.48865 894.768469 833.484107 0.001109276
14.65113 905.34583 898.731782 833.780358 0.00110455
14.65993 910.31696 904.972968 834.07664 0.001098518
14.66873 916.2702 913.351351 834.373093 0.001091381
14.67754 924.25647 923.630392 834.669617 0.001081951
14.68634 932.91235 935.456815 834.96625 0.001071912
14.69514 943.38556 948.337654 835.262994 0.001060012
14.70394 954.87323 961.595795 835.559853 0.001047259
14.71274 967.17444 974.359941 835.856863 0.00103394
14.72155 979.52313 985.560385 836.153925 0.001020905
14.73035 990.54858 994.074987 836.451179 0.001009542
14.73915 996.72284 998.969276 836.748524 0.001003288
14.74795 998.72095 999.833205 837.045998 0.001001281
14.75675 997.13873 996.966553 837.343604 0.001002869
14.76556 992.07593 991.285057 837.641344 0.001007987
14.77436 985.04608 984.002422 837.939221 0.001015181
14.78316 977.55957 976.311497 838.237237 0.001022956
14.79196 971.13824 969.193307 838.53543 0.00102972
14.80077 966.13214 963.344889 838.833732 0.001035055
14.80957 962.55066 959.189698 839.132148 0.001038906
14.81837 961.45728 956.877086 839.430781 0.001040088
14.82717 961.52765 956.31191 839.729532 0.001040012
14.83597 961.94696 957.165464 840.028437 0.001039558
14.84478 963.63208 958.933601 840.327499 0.00103774
14.85358 964.13989 961.048319 840.626753 0.001037194
14.86238 963.52466 963.024899 840.926099 0.001037856
14.87118 963.21301 964.579451 841.225643 0.001038192
14.87998 960.71924 965.626755 841.525386 0.001040887
14.88879 957.9953 966.166561 841.825227 0.001043846
14.89759 956.0332 966.138109 842.125306 0.001045989
14.90639 952.37903 965.339667 842.425521 0.001050002
14.91519 948.81921 963.42934 842.725943 0.001053942
14.92399 945.68835 960.049701 843.026472 0.001057431
14.93280 941.26923 954.990202 843.327211 0.001062395
14.94160 936.32495 948.323452 843.628162 0.001068005
14.95040 930.93591 940.416416 843.929225 0.001074188
14.95920 924.59686 931.793471 844.230537 0.001081552
14.96800 919.62372 922.999051 844.531998 0.001087401
14.97681 914.89685 914.486737 844.833643 0.001093019
14.98561 909.82953 906.58603 845.135474 0.001099107
14.99441 905.64911 899.513473 845.437492 0.00110418
15.00321 901.94922 893.383802 845.739699 0.00110871
15.01201 897.65875 888.236801 846.042095 0.001114009
15.02082 893.25787 884.047684 846.344716 0.001119498
15.02962 889.87061 880.742929 846.647495 0.001123759
15.03842 887.67017 878.212196 846.950468 0.001126545
15.04722 885.88788 876.320689 847.253634 0.001128811
15.05603 883.91956 874.91009 847.556995 0.001131325
15.06483 882.13855 873.878623 847.860552 0.001133609
15.07363 881.43384 873.105246 848.164306 0.001134515
15.08243 880.61279 872.526315 848.468292 0.001135573
15.09123 879.46021 872.121668 848.772408 0.001137061
15.10004 879.37695 871.90566 849.076791 0.001137169
15.10884 879.31726 871.913485 849.381339 0.001137246
15.11764 880.17767 872.191367 849.686053 0.001136134
15.12644 880.98419 872.789214 849.991036 0.001135094
15.13524 882.92603 873.756672 850.296186 0.001132598
15.14405 884.50232 875.139991 850.601571 0.001130579
15.15285 887.96918 876.977057 850.907089 0.001126165
15.16165 891.71039 879.297657 851.212878 0.00112144
15.17045 896.76331 882.114629 851.518833 0.001115121
15.17925 901.84534 885.425411 851.824956 0.001108838
15.18806 907.4917 889.206903 852.13135 0.001101938
15.19686 912.6004 893.407392 852.437911 0.00109577
15.20566 919.33478 897.94568 852.744674 0.001087743
15.21446 925.79169 902.702611 853.051639 0.001080157
15.22327 932.19434 907.52761 853.358839 0.001072738
15.23207 935.92255 912.258017 853.66617 0.001068464
15.24087 938.52576 916.769155 853.973737 0.001065501
15.24967 937.11194 921.01543 854.281539 0.001067108
15.25848 934.69617 925.048894 854.589505 0.001069866
15.26728 931.5766 928.980465 854.89767 0.001073449
15.27608 929.82605 932.926207 855.206033 0.00107547
15.28488 928.38318 936.923638 855.514628 0.001077141
15.29368 927.23077 940.904934 855.82335 0.00107848
15.30249 927.23853 944.677742 856.132303 0.001078471
15.31129 927.00476 947.933959 856.441486 0.001078743
15.32009 927.43481 950.307552 856.750792 0.001078243
15.32889 927.61633 951.47256 857.060361 0.001078032
15.33769 928.34442 951.276993 857.370086 0.001077186
15.34650 927.76746 949.823534 857.680001 0.001077856
15.35530 927.18585 947.516323 857.990105 0.001078532
15.36410 926.56396 944.897843 858.300397 0.001079256
15.37290 927.94647 942.577669 858.61091 0.001077648
15.38170 929.414 941.132676 858.921537 0.001075947
15.39051 932.28058 941.060679 859.232418 0.001072638
15.39931 936.5838 942.764728 859.543444 0.00106771
15.40811 943.5434 946.540132 859.85465 0.001059835
15.41691 950.36176 952.5676 860.166033 0.001052231
15.42572 959.4292 960.886466 860.477593 0.001042286
15.43452 968.32507 971.40173 860.789326 0.001032711
15.44332 976.11096 983.839824 861.101231 0.001024474
15.45212 984.00238 997.741366 861.413341 0.001016258
15.46092 993.05823 1012.440782 861.725548 0.00100699
15.46973 1001.9811 1027.064729 862.037991 0.000998023
15.47853 1010.3053 1040.538832 862.350562 0.0009898
15.48733 1018.158 1051.691597 862.663293 0.000982166
15.49613 1025.0381 1059.417366 862.976182 0.000975573
15.50493 1032.5741 1062.900695 863.289227 0.000968453
15.51374 1042.7281 1061.778312 863.60246 0.000959023
15.52254 1058.5061 1056.191142 863.915773 0.000944728
15.53134 1078.4786 1046.707641 864.229304 0.000927232
15.54014 1087.8145 1034.191576 864.542944 0.000919274
15.54894 1069.771 1019.638371 864.856691 0.000934779
15.55775 1029.5835 1004.019918 865.170648 0.000971267
15.56655 993.65765 988.190368 865.484704 0.001006383
15.57535 967.06219 972.817575 865.798894 0.00103406
15.58415 948.16132 958.430613 866.113213 0.001054673
15.59296 934.5965 945.353837 866.427693 0.00106998
15.60176 924.22784 933.787659 866.742226 0.001081984
15.61056 916.05084 923.80056 867.056913 0.001091642
15.61936 909.75543 915.371323 867.371752 0.001099197
15.62816 904.97937 908.403809 867.686668 0.001104998
15.63697 901.85663 902.75458 868.001693 0.001108824
15.64577 899.44482 898.253848 868.316823 0.001111797
15.65457 896.21667 894.724533 868.63209 0.001115802
15.66337 893.13928 891.997703 868.947383 0.001119646
15.67217 891.19049 889.917022 869.262805 0.001122095
15.68098 889.8584 888.348753 869.578353 0.001123774
15.68978 889.28021 887.176234 869.893915 0.001124505
15.69858 888.81879 886.317813 870.20963 0.001125089
15.70738 889.3786 885.698391 870.525386 0.001124381
15.71618 888.95642 885.263333 870.841216 0.001124915
15.72499 888.35327 884.973386 871.157114 0.001125678
15.73379 887.81104 884.7987 871.473076 0.001126366
15.74259 887.87189 884.718624 871.789134 0.001126289
15.75139 888.06506 884.71889 872.105176 0.001126044
15.76020 888.69952 884.790409 872.42134 0.00112524
15.76900 888.55768 884.928152 872.737514 0.001125419
15.77780 888.41443 885.130604 873.05373 0.001125601
15.78660 888.76489 885.399582 873.369982 0.001125157
15.79540 889.92114 885.740111 873.686265 0.001123695
15.80421 890.65369 886.160734 874.002576 0.001122771
15.81301 891.56543 886.673717 874.318907 0.001121623
15.82181 892.45093 887.295483 874.635292 0.00112051
15.83061 893.7514 888.046231 874.951615 0.001118879
15.83942 894.97607 888.951073 875.268017 0.001117348
15.84822 896.45447 890.038152 875.584384 0.001115506
15.85702 897.8277 891.339223 875.900746 0.001113799
15.86582 899.30127 892.88793 876.217099 0.001111974
15.87462 900.72632 894.718365 876.533436 0.001110215
15.88343 902.72247 896.863846 876.849788 0.00110776
15.89223 905.26495 899.352619 877.166042 0.001104649
15.90103 908.56866 902.209149 877.482336 0.001100632
15.90983 911.36316 905.446184 877.798555 0.001097257
15.91863 914.5321 909.064493 878.114696 0.001093455
15.92744 918.41632 913.048428 878.430858 0.001088831
15.93624 922.8559 917.356879 878.746929 0.001083593
15.94504 927.99408 921.924536 879.062939 0.001077593
15.95384 931.91833 926.660587 879.378882 0.001073055
15.96265 937.12775 931.460576 879.694786 0.00106709
15.97145 942.03882 936.223348 880.010576 0.001061527
15.98025 947.36951 940.875099 880.326243 0.001055554
15.98905 952.16693 945.378112 880.64189 0.001050236
15.99785 958.5462 949.717102 880.957403 0.001043247
16.00665 962.65576 953.872496 881.272811 0.001038793
16.01546 968.41071 957.795306 881.588107 0.00103262
16.02426 972.98724 961.394142 881.903322 0.001027763
16.03306 977.60931 964.552025 882.218376 0.001022904
16.04186 979.89227 967.163839 882.533299 0.00102052
16.05066 982.11859 969.171743 882.848049 0.001018207
16.05947 981.92017 970.583717 883.16269 0.001018413
16.06827 981.28125 971.456838 883.477216 0.001019076
16.07707 979.25793 971.874567 883.791549 0.001021181
16.08588 978.10754 971.9337 884.105752 0.001022382
16.09468 976.97919 971.744837 884.419747 0.001023563
16.10348 974.58545 971.437362 884.733493 0.001026077
16.11228 972.10309 971.143066 885.047159 0.001028697
16.12108 970.64429 970.965298 885.360598 0.001030244
16.12989 968.84558 970.950812 885.673871 0.001032156
16.13869 966.55023 971.065071 885.986902 0.001034607
16.14749 965.64905 971.19924 886.299755 0.001035573
16.15629 964.06384 971.183422 886.61235 0.001037276
16.16509 965.05896 970.830948 886.924645 0.001036206
16.17390 962.48822 969.985563 887.23681 0.001038974
16.18270 962.38495 968.575716 887.548696 0.001039085
16.19150 959.64368 966.645307 887.860366 0.001042053
16.20030 959.67706 964.34785 888.171742 0.001042017
16.20911 955.96362 961.907394 888.482887 0.001046065
16.21790 955.5163 959.577123 888.793653 0.001046555
16.22671 952.6748 957.60341 889.104207 0.001049676
16.23551 952.91852 956.21642 889.414508 0.001049408
16.24431 952.36798 955.622982 889.724477 0.001050014
16.25312 953.8028 955.99803 890.034177 0.001048435
16.26192 954.2644 957.471511 890.343529 0.001047928
16.27072 958.39929 960.116124 890.652596 0.001043406
16.27952 961.71045 963.92982 890.961229 0.001039814
16.28832 966.16467 968.834893 891.269598 0.00103502
16.29713 970.81488 974.668278 891.577657 0.001030062
16.30593 977.25665 981.172205 891.88533 0.001023273
16.31473 983.29913 988.00295 892.192678 0.001016985
16.32353 989.53882 994.715319 892.499623 0.001010572
16.33233 995.7608 1000.788156 892.806158 0.001004257
16.34114 999.9812 1005.655309 893.112344 0.001000019
16.34994 1003.4109 1008.782441 893.418138 0.000996601
16.35874 1004.8002 1009.779932 893.723567 0.000995223
16.36754 1005.3416 1008.499899 894.028553 0.000994687
16.37635 1002.1851 1005.074765 894.333157 0.00099782
16.38515 997.61285 999.872186 894.637302 0.001002393
16.39395 990.11591 993.384851 894.940979 0.001009983
16.40275 984.01019 986.127598 895.24425 0.00101625
16.41155 976.64807 978.570386 895.547072 0.00102391
16.42036 969.74536 971.097528 895.84947 0.001031199
16.42916 962.54291 964.015004 896.151368 0.001038915
16.43796 957.0318 957.538206 896.452826 0.001044897
16.44676 951.25629 951.81783 896.753698 0.001051241
16.45556 947.78357 946.930805 897.054182 0.001055093
16.46437 945.62756 942.90438 897.354133 0.001057499
16.47317 943.68378 939.722617 897.653575 0.001059677
16.48197 941.599 937.338681 897.952535 0.001062023
16.49077 939.88855 935.697724 898.250936 0.001063956
16.49958 937.69812 934.743447 898.548838 0.001066441
16.50838 936.52698 934.432467 898.846096 0.001067775
16.51718 936.06073 934.730448 899.142906 0.001068307
16.52598 935.659 935.608063 899.439123 0.001068765
16.53478 936.15802 937.03548 899.734773 0.001068196
16.54359 936.65173 938.973882 900.029881 0.001067633
16.55239 937.72772 941.372463 900.324371 0.001066408
16.56119 939.31702 944.163114 900.618235 0.001064603
16.56999 941.29333 947.258071 900.911531 0.001062368
16.57879 943.75745 950.545278 901.20425 0.001059594
16.58760 946.25702 953.884084 901.496318 0.001056795
16.59640 949.1554 957.113412 901.787759 0.001053568
16.60520 952.72943 960.063575 902.078597 0.001049616
16.61400 956.30438 962.583356 902.368758 0.001045692
16.62280 959.61145 964.575566 902.658234 0.001042088
16.63161 962.41266 966.019841 902.947082 0.001039055
16.64041 964.60223 966.970333 903.235293 0.001036697
16.64921 965.82513 967.532373 903.522793 0.001035384
16.65801 966.82904 967.820441 903.809606 0.001034309
16.66681 967.03278 967.929019 904.095757 0.001034091
16.67562 967.17938 967.907986 904.381106 0.001033934
16.68442 967.55414 967.762678 904.665841 0.001033534
16.69322 967.5 967.46419 904.949822 0.001033592
16.70202 967.3429 966.967222 905.233107 0.00103376
16.71082 966.53601 966.240441 905.515621 0.001034623
16.71963 965.65356 965.278784 905.79739 0.001035568
16.72843 965.57135 964.109685 906.078436 0.001035656
16.73723 965.2254 962.778777 906.358623 0.001036027
16.74603 963.66315 961.331988 906.638134 0.001037707
16.75483 962.04047 959.8056 906.916834 0.001039457
16.76364 960.95801 958.220231 907.194777 0.001040628
16.77244 959.60718 956.589622 907.471892 0.001042093
16.78124 957.40918 954.932251 907.748202 0.001044485
16.79004 956.11462 953.285362 908.023668 0.0010459
16.79885 954.1972 951.713282 908.298343 0.001048001
16.80765 952.57629 950.30501 908.57222 0.001049785
16.81645 951.58063 949.164175 908.845228 0.001050883
16.82525 951.53125 948.397098 909.11742 0.001050938
16.83405 950.94434 948.104056 909.388727 0.001051586
16.84286 951.29858 948.374599 909.659171 0.001051195
16.85166 951.60449 949.284474 909.928715 0.001050857
16.86046 953.2583 950.897599 910.197409 0.001049034
16.86926 955.59692 953.262117 910.465248 0.001046466
16.87806 959.23401 956.410285 910.732161 0.001042498
16.88687 962.68781 960.356285 910.998201 0.001038758
16.89567 967.64185 965.092883 911.2633 0.00103344
16.90447 972.79364 970.586401 911.527421 0.001027967
16.91327 978.63458 976.777773 911.790704 0.001021832
16.92207 985.45599 983.567874 912.053024 0.001014759
16.93088 993.82751 990.818844 912.31443 0.001006211
16.93968 1001.1338 998.351395 912.574856 0.000998867
16.94848 1009.8179 1005.954564 912.834354 0.000990278
16.95728 1019.4212 1013.40757 913.092857 0.000980949
16.96608 1027.9332 1020.513114 913.350328 0.000972826
16.97489 1036.3768 1027.137714 913.606906 0.0009649
16.98369 1044.6842 1033.213311 913.862466 0.000957227
16.99249 1050.2584 1038.73037 914.117059 0.000952147
17.00129 1053.8514 1043.696462 914.37062 0.0009489
17.01010 1056.2163 1048.086691 914.623199 0.000946776
17.01890 1057.3938 1051.848981 914.874673 0.000945721
17.02770 1057.1682 1054.915311 915.12518 0.000945923
17.03650 1057.236 1057.182847 915.374682 0.000945863
17.04530 1058.0662 1058.633404 915.623115 0.00094512
17.05411 1057.5287 1059.376285 915.87053 0.000945601
17.06291 1057.4397 1059.664176 916.116862 0.00094568
17.07171 1055.5667 1059.869465 916.362133 0.000947358
17.08051 1055.3734 1060.418211 916.606308 0.000947532
17.08931 1054.3047 1061.714292 916.849436 0.000948492
17.09812 1057.9735 1064.095215 917.091509 0.000945203
17.10692 1060.9794 1067.786942 917.332465 0.000942525
17.11572 1068.6038 1072.89909 917.572354 0.000935801
17.12452 1074.0112 1079.40329 917.811113 0.000931089
17.13333 1086.2312 1087.138692 918.048736 0.000920614
17.14213 1095.6974 1095.807394 918.28527 0.000912661
17.15093 1110.8678 1104.962676 918.520683 0.000900197
17.15973 1123.3567 1114.032144 918.754994 0.000890189
17.16853 1140.1969 1122.333323 918.988144 0.000877042
17.17734 1149.3383 1129.143023 919.220179 0.000870066
17.18614 1158.7452 1133.797911 919.451041 0.000863002
17.19494 1159.1378 1135.830167 919.680724 0.00086271
17.20374 1158.65 1135.086371 919.909273 0.000863073
17.21254 1149.8372 1131.776562 920.136657 0.000869688
17.22135 1140.2804 1126.427326 920.362896 0.000876977
17.23015 1125.0347 1119.771444 920.587932 0.000888861
17.23895 1114.6068 1112.604144 920.81181 0.000897177
17.24775 1103.0115 1105.688435 921.034424 0.000906609
17.25656 1096.5897 1099.673226 921.25592 0.000911918
17.26536 1091.3545 1095.076853 921.476191 0.000916293
17.27416 1090.6165 1092.268607 921.695258 0.000916913
17.28296 1091.9216 1091.461492 921.913138 0.000915817
17.29177 1096.5198 1092.721542 922.129778 0.000911976
17.30057 1104.1567 1095.957146 922.345173 0.000905669
17.30937 1113.8807 1100.93044 922.559366 0.000897762
17.31817 1126.8695 1107.260043 922.772353 0.000887414
17.32697 1141.5925 1114.421188 922.984079 0.000875969
17.33578 1156.1924 1121.783555 923.194565 0.000864908
17.34458 1169.3143 1128.646557 923.403829 0.000855202
17.35338 1179.1904 1134.324087 923.611819 0.000848039
17.36218 1184.0677 1138.252087 923.818531 0.000844546
17.37098 1185.1075 1140.091276 924.024007 0.000843805
17.37979 1182.5344 1139.778003 924.228242 0.000845641
17.38859 1177.1139 1137.512788 924.431187 0.000849535
17.39739 1169.0872 1133.665462 924.632859 0.000855368
17.40619 1159.5377 1128.677582 924.833277 0.000862413
17.41499 1147.804 1122.95989 925.032347 0.000871229
17.42380 1134.5972 1116.831613 925.230201 0.00088137
17.43260 1121.0963 1110.510767 925.426744 0.000891984
17.44140 1109.4327 1104.084876 925.622017 0.000901362
17.45020 1097.6748 1097.548237 925.815973 0.000911017
17.45901 1087.5103 1090.800382 926.008629 0.000919532
17.46781 1077.1208 1083.702507 926.200005 0.000928401
17.47661 1066.6027 1076.120018 926.39001 0.000937556
17.48541 1055.5477 1067.968433 926.578771 0.000947375
17.49421 1045.3564 1059.265136 926.766198 0.000956612
17.50302 1035.1111 1050.116394 926.952331 0.00096608
17.51182 1024.9325 1040.709144 927.137124 0.000975674
17.52062 1014.5233 1031.262989 927.320596 0.000985685
17.52942 1004.5475 1021.998545 927.502724 0.000995473
17.53822 995.69598 1013.10983 927.683547 0.001004323
17.54703 988.96429 1004.756803 927.86306 0.001011159
17.55583 981.93121 997.060592 928.041222 0.001018401
17.56463 975.37775 990.105164 928.218071 0.001025244
17.57343 970.65918 983.941576 928.393563 0.001030228
17.58224 966.97168 978.591482 928.567718 0.001034156
17.59104 963.54181 974.048778 928.740513 0.001037838
17.59984 960.70795 970.284359 928.911986 0.001040899
17.60864 958.22339 967.250152 929.082135 0.001043598
17.61744 956.8678 964.880814 929.250919 0.001045076
17.62625 956.12006 963.098507 929.418356 0.001045894
17.63505 955.117 961.814742 929.584465 0.001046992
17.64385 954.12292 960.93742 929.749167 0.001048083
17.65265 953.66089 960.370608 929.912575 0.001048591
17.66145 953.67084 960.021065 930.074612 0.00104858
17.67026 954.4198 959.80178 930.235315 0.001047757
17.67906 954.82928 959.635077 930.394646 0.001047308
17.68786 955.17889 959.457153 930.552623 0.001046924
17.69666 954.83752 959.210242 930.709262 0.001047299
17.70546 954.23785 958.884138 930.864493 0.001047957
17.71427 954.75763 958.459702 931.018421 0.001047386
17.72307 955.10809 957.947739 931.170975 0.001047002
17.73187 954.52094 957.376355 931.32219 0.001047646
17.74067 954.02283 956.785902 931.472031 0.001048193
17.74948 953.30957 956.222784 931.620516 0.001048977
17.75828 952.25995 955.734532 931.767627 0.001050133
17.76708 951.51685 955.365722 931.9134 0.001050954
17.77588 951.44861 955.156777 932.057834 0.001051029
17.78468 951.25616 955.142522 932.200896 0.001051242
17.79349 951.7926 955.352201 932.34262 0.001050649
17.80229 952.58972 955.808913 932.482974 0.00104977
17.81109 953.14587 956.530456 932.621975 0.001049157
17.81989 954.50763 957.528822 932.759609 0.001047661
17.82869 957.17322 958.811144 932.895909 0.001044743
17.83750 959.47339 960.380351 933.030874 0.001042238
17.84630 961.56885 962.233759 933.164476 0.001039967
17.85510 964.30127 964.362429 933.296746 0.00103702
17.86390 967.46722 966.762928 933.427656 0.001033627
17.87270 970.78442 969.417267 933.557209 0.001030095
17.88151 974.00513 972.307673 933.685435 0.001026689
17.89031 978.02252 975.413597 933.812322 0.001022471
17.89911 981.66071 978.719203 933.937885 0.001018682
17.90791 984.4425 982.2154 934.0621 0.001015803
17.91672 987.62878 985.911258 934.184995 0.001012526
17.92552 991.07959 989.829573 934.306546 0.001009001
17.93432 993.81946 994.006675 934.426755 0.001006219
17.94312 996.32672 998.479436 934.545653 0.001003687
17.95192 999.513 1003.268731 934.663229 0.001000487
17.96073 1002.2462 1008.370223 934.779499 0.000997759
17.96953 1006.3524 1013.739011 934.894439 0.000993688
17.97833 1010.8157 1019.289623 935.008078 0.0009893
17.98713 1015.4248 1024.884232 935.12037 0.00098481
17.99593 1018.9009 1030.34449 935.231392 0.00098145
18.00474 1022.8417 1035.445648 935.3411 0.000977668
18.01354 1025.3989 1039.940106 935.449507 0.00097523
18.02234 1028.0948 1043.581958 935.556632 0.000972673
18.03114 1028.2963 1046.160254 935.662452 0.000972482
18.03995 1028.875 1047.533749 935.766996 0.000971935
18.04875 1027.286 1047.652491 935.870221 0.000973439
18.05755 1025.568 1046.560153 935.972201 0.000975069
18.06635 1021.9839 1044.38022 936.072895 0.000978489
18.07515 1018.8329 1041.292336 936.172318 0.000981515
18.08396 1014.3459 1037.501717 936.270486 0.000985857
18.09276 1011.0832 1033.219705 936.367382 0.000989038
18.10156 1007.4078 1028.637446 936.463009 0.000992647
18.11036 1004.4057 1023.919389 936.557396 0.000995614
18.11916 1001.8644 1019.201832 936.650547 0.000998139
18.12797 999.05933 1014.59816 936.742445 0.001000942
18.13677 995.15173 1010.206932 936.833107 0.001004872
18.14557 992.48022 1006.118377 936.922548 0.001007577
18.15437 990.87457 1002.417088 937.010754 0.001009209
18.16317 990.53979 999.19079 937.097729 0.001009551
18.17198 989.32178 996.50673 937.1835 0.001010793
18.18078 988.58179 994.426005 937.268073 0.00101155
18.18958 987.41547 992.999838 937.351433 0.001012745
18.19838 987.01642 992.272862 937.433596 0.001013154
18.20719 987.15222 992.28642 937.514579 0.001013015
18.21599 989.17438 993.080487 937.59435 0.001010944
18.22479 991.67279 994.690709 937.67297 0.001008397
18.23359 995.09436 997.142124 937.75041 0.00100493
18.24239 999.02673 1000.442488 937.826686 0.001000974
18.25120 1003.7627 1004.574537 937.901811 0.000996251
18.26000 1008.8875 1009.491286 937.975777 0.000991191
18.26880 1014.2488 1015.109561 938.048607 0.000985951
18.27760 1020.2205 1021.306286 938.120274 0.00098018
18.28640 1027.437 1027.921268 938.190836 0.000973296
18.29521 1036.5002 1034.744689 938.260267 0.000964785
18.30401 1046.1401 1041.523156 938.328581 0.000955895
18.31281 1057.9764 1047.95921 938.395795 0.000945201
18.32161 1068.6564 1053.721188 938.4619 0.000935754
18.33041 1076.6022 1058.461453 938.526904 0.000928848
18.33922 1082.2314 1061.856818 938.59083 0.000924017
18.34802 1085.3729 1063.646961 938.653685 0.000921342
18.35682 1085.8293 1063.685769 938.715462 0.000920955
18.36562 1083.4393 1061.969648 938.776178 0.000922987
18.37443 1076.7778 1058.636452 938.835846 0.000928697
18.38323 1066.9679 1053.936069 938.894461 0.000937235
18.39203 1055.4952 1048.187293 938.952032 0.000947423
18.40083 1042.7214 1041.726026 939.00858 0.000959029
18.40963 1031.0726 1034.882165 939.064113 0.000969864
18.41844 1021.8313 1027.95262 939.118627 0.000978635
18.42724 1015.1411 1021.193812 939.172138 0.000985085
18.43604 1009.659 1014.818686 939.224659 0.000990433
18.44484 1004.0881 1008.998392 939.276176 0.000995929
18.45364 999.4259 1003.858618 939.326732 0.001000574
18.46245 996.2749 999.491616 939.376314 0.001003739
18.47125 995.20624 995.953641 939.424942 0.001004817
18.48005 994.53735 993.269509 939.472614 0.001005493
18.48885 993.46869 991.437613 939.519343 0.001006574
18.49766 993.10425 990.434686 939.565146 0.001006944
18.50646 993.74121 990.218564 939.61001 0.001006298
18.51526 995.33881 990.735291 939.653976 0.001004683
18.52406 996.99835 991.923533 939.697032 0.001003011
18.53286 999.58386 993.721608 939.739198 0.001000416
18.54167 1002.7736 996.073577 939.780474 0.000997234
18.55047 1007.0187 998.936303 939.820875 0.00099303
18.55927 1010.9694 1002.284331 939.860405 0.00098915
18.56807 1015.6206 1006.108417 939.899084 0.00098462
18.57687 1020.5881 1010.410129 939.936921 0.000979827
18.58568 1025.5796 1015.194311 939.973917 0.000975058
18.59448 1029.3972 1020.459109 940.010091 0.000971442
18.60328 1034.2058 1026.188217 940.045444 0.000966926
18.61208 1038.3893 1032.345039 940.079991 0.00096303
18.62088 1043.504 1038.875775 940.113737 0.00095831
18.62969 1048.4943 1045.713598 940.146702 0.000953749
18.63849 1053.5685 1052.786888 940.178895 0.000949155
18.64729 1059.1201 1060.032177 940.210318 0.00094418
18.65609 1066.0603 1067.400292 940.240989 0.000938033
18.66490 1072.3608 1074.85147 940.270912 0.000932522
18.67370 1078.814 1082.342957 940.300098 0.000926944
18.68250 1085.9308 1089.819443 940.328563 0.000920869
18.69130 1094.6375 1097.184373 940.356314 0.000913544
18.70010 1103.6827 1104.300886 940.383365 0.000906058
18.70891 1113.0552 1110.989354 940.409721 0.000898428
18.71771 1120.7924 1117.042176 940.435399 0.000892226
18.72651 1128.1847 1122.247323 940.460402 0.00088638
18.73531 1133.1195 1126.428476 940.484742 0.000882519
18.74411 1137.9031 1129.484218 940.508435 0.000878809
18.75292 1139.4233 1131.410948 940.531489 0.000877637
18.76172 1139.061 1132.318504 940.553917 0.000877916
18.77052 1135.6543 1132.3997 940.575725 0.00088055
18.77932 1131.9637 1131.899294 940.596929 0.000883421
18.78812 1127.0743 1131.055669 940.61753 0.000887253
18.79693 1122.0336 1130.070289 940.637551 0.000891239
18.80573 1118.6356 1129.074644 940.657001 0.000893946
18.81453 1116.0884 1128.114728 940.675884 0.000895986
18.82333 1113.9465 1127.157706 940.694218 0.000897709
18.83214 1111.4706 1126.086926 940.712007 0.000899709
18.84094 1109.3364 1124.733317 940.729269 0.00090144
18.84974 1106.9172 1122.893756 940.746005 0.00090341
18.85854 1104.4098 1120.37518 940.762236 0.000905461
18.86734 1101.8002 1117.029395 940.777971 0.000907606
18.87615 1098.8134 1112.778888 940.793218 0.000910073
18.88495 1095.7469 1107.624927 940.80799 0.00091262
18.89375 1092.021 1101.639094 940.822296 0.000915733
18.90255 1084.5004 1094.940266 940.836146 0.000922084
18.91135 1076.4993 1087.669539 940.849554 0.000928937
18.92016 1068.2526 1079.979709 940.86253 0.000936108
18.92896 1060.2849 1072.010465 940.875087 0.000943143
18.93776 1052.9943 1063.893575 940.887231 0.000949673
18.94656 1046.5118 1055.736779 940.898977 0.000955555
18.95537 1039.2903 1047.640578 940.910333 0.000962195
18.96417 1032.1334 1039.687758 940.92131 0.000968867
18.97297 1025.0946 1031.950982 940.93192 0.00097552
18.98177 1018.9748 1024.497477 940.942175 0.000981379
18.99057 1012.8676 1017.38163 940.952084 0.000987296
18.99938 1007.5082 1010.655017 940.961658 0.000992548
19.00818 1002.3463 1004.356024 940.970908 0.000997659
19.01698 997.55823 998.521218 940.979842 0.001002448
19.02578 992.56165 993.169373 940.988476 0.001007494
19.03458 987.91736 988.317763 940.996816 0.00101223
19.04339 983.94946 983.969237 941.004874 0.001016312
19.05219 980.64252 980.117503 941.012661 0.00101974
19.06099 977.46613 976.749634 941.020187 0.001023053
19.06979 974.83679 973.84344 941.027462 0.001025813
19.07859 972.29657 971.377472 941.034495 0.001028493
19.08740 970.94464 969.320017 941.041301 0.001029925
19.09620 969.78839 967.641404 941.047886 0.001031153
19.10500 969.17114 966.308091 941.054261 0.00103181
19.11380 968.56757 965.285925 941.060437 0.001032452
19.12261 968.37311 964.539464 941.066423 0.00103266
19.13141 967.77948 964.032682 941.072229 0.001033293
19.14021 967.66437 963.728816 941.077867 0.001033416
19.14901 967.83203 963.590867 941.083345 0.001033237
19.15781 967.86292 963.582555 941.088673 0.001033204
19.16662 967.8714 963.668062 941.09386 0.001033195
19.17542 968.02637 963.81426 941.098918 0.00103303
19.18422 968.03235 963.99144 941.103854 0.001033023
19.19302 968.21246 964.17595 941.108678 0.001032831
19.20182 968.79858 964.352006 941.113401 0.001032206
19.21063 968.56171 964.513325 941.118031 0.001032459
19.21943 968.41254 964.664579 941.122578 0.001032618
19.22823 968.67822 964.821381 941.12705 0.001032335
19.23703 968.62354 965.009477 941.131457 0.001032393
19.24583 968.59015 965.262956 941.135806 0.001032428
19.25464 969.40759 965.621716 941.140109 0.001031558
19.26344 970.55914 966.128295 941.144373 0.001030334
19.27224 971.31201 966.82561 941.148608 0.001029535
19.28104 972.58838 967.754613 941.15282 0.001028184
19.28985 974.17084 968.952849 941.157019 0.001026514
19.29865 976.17035 970.452896 941.161214 0.001024411
19.30745 978.8219 972.280995 941.165411 0.001021636
19.31625 982.32349 974.457945 941.169622 0.001017995
19.32505 985.42584 976.995054 941.173851 0.00101479
19.33386 988.62201 979.895285 941.178108 0.001011509
19.34266 992.9577 983.151371 941.182401 0.001007092
19.35146 997.98132 986.745049 941.186736 0.001002023
19.36026 1002.6542 990.645725 941.191121 0.000997353
19.36906 1007.44 994.81252 941.195565 0.000992615
19.37787 1012.3686 999.189807 941.200074 0.000987783
19.38667 1017.3352 1003.711245 941.204655 0.00098296
19.39547 1021.5771 1008.301206 941.209316 0.000978879
19.40427 1026.2124 1012.878736 941.214063 0.000974457
19.41307 1030.6328 1017.362007 941.218901 0.000970278
19.42188 1034.698 1021.680144 941.223841 0.000966466
19.43068 1037.318 1025.771599 941.228887 0.000964025
19.43948 1040.345 1029.591148 941.234045 0.00096122
19.44828 1042.655 1033.105995 941.239322 0.00095909
19.45709 1045.3866 1036.287235 941.244724 0.000956584
19.46589 1047.2909 1039.100243 941.250255 0.000954845
19.47469 1048.1564 1041.494582 941.255922 0.000954056
19.48349 1047.8156 1043.402496 941.261733 0.000954366
19.49229 1046.7028 1044.737357 941.26769 0.000955381
19.50110 1045.0741 1045.406027 941.2738 0.00095687
19.50990 1043.6857 1045.32524 941.280068 0.000958143
19.51870 1041.4182 1044.440474 941.286499 0.000960229
19.52750 1038.8314 1042.743242 941.293095 0.00096262
19.53630 1035.4384 1040.276147 941.299865 0.000965774
19.54511 1031.2288 1037.131264 941.306812 0.000969717
19.55391 1026.0819 1033.434372 941.313939 0.000974581
19.56271 1021.4492 1029.326813 941.321252 0.000979001
19.57151 1017.2542 1024.948853 941.328754 0.000983038
19.58032 1012.4636 1020.428374 941.336449 0.00098769
19.58912 1008.0577 1015.876857 941.344338 0.000992007
19.59792 1003.5078 1011.38413 941.352428 0.000996504
19.60672 999.35181 1007.028579 941.360722 0.001000649
19.61552 995.7959 1002.874744 941.369222 0.001004222
19.62433 992.23688 998.976873 941.377932 0.001007824
19.63313 989.85474 995.378383 941.386853 0.001010249
19.64193 987.8761 992.11191 941.395987 0.001012273
19.65073 985.98016 989.193415 941.405339 0.001014219
19.65953 983.51013 986.626571 941.41491 0.001016766
19.66834 981.45587 984.398878 941.424702 0.001018895
19.67714 980.17035 982.482902 941.434717 0.001020231
19.68594 979.23914 980.838663 941.444957 0.001021201
19.69474 978.66217 979.4156 941.455421 0.001021803
19.70354 978.55542 978.156826 941.466111 0.001021915
19.71235 977.59888 977.001676 941.47703 0.001022914
19.72115 975.87683 975.892498 941.488178 0.001024719
19.72995 974.81976 974.779888 941.499557 0.001025831
19.73875 973.83716 973.625617 941.511164 0.001026866
19.74756 972.75732 972.407012 941.523003 0.001028006
19.75636 971.50616 971.117876 941.535068 0.00102933
19.76516 969.89136 969.765051 941.547366 0.001031043
19.77396 968.40039 968.367841 941.559893 0.001032631
19.78276 966.44604 966.951311 941.572649 0.001034719
19.79157 964.79175 965.544048 941.585635 0.001036493
19.80037 963.52527 964.17519 941.598846 0.001037855
19.80917 962.52991 962.87237 941.612285 0.001038929
19.81797 961.66827 961.661614 941.625944 0.00103986
19.82678 961.07166 960.565131 941.63983 0.001040505
19.83558 959.78284 959.602861 941.653937 0.001041902
19.84438 959.09961 958.794227 941.668262 0.001042645
19.85318 959.71149 958.152904 941.682807 0.00104198
19.86198 959.79779 957.690759 941.697564 0.001041886
19.87079 959.47937 957.416812 941.712531 0.001042232
19.87959 959.32166 957.337152 941.72771 0.001042403
19.88839 959.21912 957.454701 941.743096 0.001042515
19.89719 959.55927 957.769843 941.758683 0.001042145
19.90599 959.65839 958.279324 941.77447 0.001042037
19.91480 960.26422 958.977178 941.790454 0.00104138
19.92360 961.42853 959.852901 941.806628 0.001040119
19.93240 962.29193 960.894772 941.822987 0.001039186
19.94120 963.34222 962.085657 941.839532 0.001038053
19.95001 965.05902 963.404412 941.856258 0.001036206
19.95881 967.15582 964.825934 941.873156 0.00103396
19.96761 968.87659 966.320397 941.890222 0.001032123
19.97641 970.02032 967.854164 941.907455 0.001030906
19.98521 970.74054 969.388446 941.924841 0.001030141
19.99402 971.67725 970.883558 941.942386 0.001029148
20.00282 973.15735 972.297505 941.960076 0.001027583
20.01162 974.28973 973.590162 941.977909 0.001026389
20.02042 975.04559 974.72499 941.995875 0.001025593
20.02922 975.70258 975.67061 942.013971 0.001024902
20.03803 975.60846 976.402313 942.03219 0.001025001
20.04683 975.83112 976.900828 942.050519 0.001024767
20.05563 976.29187 977.154946 942.068962 0.001024284
20.06443 975.74377 977.160987 942.087504 0.001024859
20.07324 974.48651 976.925781 942.106142 0.001026181
20.08204 973.79297 976.467585 942.124864 0.001026912
20.09084 973.20343 975.816607 942.143665 0.001027534
20.09964 971.8222 975.013217 942.162534 0.001028995
20.10844 971.02191 974.103798 942.181467 0.001029843
20.11725 969.76221 973.138149 942.200456 0.001031181
20.12605 969.44623 972.164562 942.219488 0.001031517
20.13485 969.32562 971.227788 942.238559 0.001031645
20.14365 969.00397 970.358134 942.257655 0.001031988
20.15245 969.24927 969.606212 942.27677 0.001031726
20.16126 969.60492 968.989804 942.295891 0.001031348
20.17006 969.67871 968.529282 942.315015 0.001031269
20.17886 969.5282 968.240241 942.33413 0.00103143
20.18766 969.61426 968.133298 942.353223 0.001031338
20.19646 970.36389 968.215796 942.372289 0.001030541
20.20527 971.02551 968.492041 942.391312 0.001029839
20.21407 971.70886 968.964198 942.41028 0.001029115
20.22287 972.01471 969.633052 942.429194 0.001028791
20.23167 972.94745 970.497215 942.448033 0.001027805
20.24047 973.47803 971.554786 942.466792 0.001027245
20.24928 973.7746 972.802639 942.485455 0.001026932
20.25808 974.31726 974.238609 942.504016 0.00102636
20.26688 974.7536 975.860734 942.522458 0.0010259
20.27568 976.33441 977.668488 942.540768 0.001024239
20.28449 978.5202 979.664624 942.558945 0.001021951
20.29329 979.37299 981.850862 942.576969 0.001021061
20.30209 980.81897 984.229958 942.594832 0.001019556
20.31089 982.98315 986.805367 942.612518 0.001017311
20.31969 985.4151 989.578454 942.630019 0.001014801
20.32850 987.01001 992.549105 942.647314 0.001013161
20.33730 989.5296 995.720169 942.664401 0.001010581
20.34610 991.9104 999.096254 942.681265 0.001008156
20.35490 994.36389 1002.683937 942.69789 0.001005668
20.36370 997.86926 1006.498964 942.714267 0.001002135
20.37251 1001.6517 1010.556818 942.730379 0.000998351
20.38131 1005.4312 1014.876491 942.746217 0.000994598
20.39011 1009.1181 1019.4687 942.761761 0.000990964
20.39891 1013.4229 1024.337584 942.777006 0.000986755
20.40771 1018.9328 1029.470877 942.791937 0.000981419
20.41652 1024.1154 1034.832114 942.806538 0.000976452
20.42532 1030.4628 1040.367509 942.820798 0.000970438
20.43412 1037.9775 1045.995641 942.834701 0.000963412
20.44292 1046.4824 1051.614497 942.848233 0.000955582
20.45172 1055.4974 1057.096516 942.861383 0.000947421
20.46053 1065.2552 1062.321415 942.874137 0.000938742
20.46933 1072.4209 1067.145607 942.886482 0.00093247
20.47813 1076.9591 1071.437798 942.898401 0.00092854
20.48693 1080.5485 1075.091246 942.909884 0.000925456
20.49574 1084.5187 1078.026539 942.920913 0.000922068
20.50454 1087.0426 1080.196808 942.931475 0.000919927
20.51334 1089.3821 1081.591769 942.941559 0.000917952
20.52214 1091.2268 1082.229796 942.951149 0.0009164
20.53094 1093.606 1082.154902 942.960233 0.000914406
20.53975 1092.8738 1081.421211 942.968795 0.000915019
20.54855 1090.8275 1080.093565 942.976821 0.000916735
20.55735 1087.5121 1078.227896 942.984296 0.00091953
20.56615 1084.3737 1075.871712 942.991211 0.000922191
20.57495 1081.1719 1073.059646 942.997547 0.000924922
20.58376 1079.1139 1069.812296 943.003293 0.000926686
20.59256 1074.9388 1066.145826 943.008435 0.000930286
20.60136 1068.4862 1062.080356 943.012958 0.000935904
20.61016 1059.246 1057.646489 943.016849 0.000944068
20.61896 1050.953 1052.89091 943.020093 0.000951517
20.62777 1042.1179 1047.87528 943.02268 0.000959584
20.63657 1034.652 1042.675339 943.024593 0.000966509
20.64537 1027.7343 1037.366017 943.025821 0.000973014
20.65417 1021.6742 1032.021657 943.02635 0.000978786
20.66298 1016.7484 1026.708903 943.026166 0.000983527
20.67178 1012.77 1021.483035 943.025257 0.000987391
20.68058 1008.124 1016.387718 943.02361 0.000991941
20.68938 1004.6688 1011.454714 943.021212 0.000995353
20.69818 1001.2073 1006.711548 943.01805 0.000998794
20.70699 998.24554 1002.171948 943.014113 0.001001758
20.71579 994.82245 997.848077 943.009386 0.001005204
20.72459 992.45752 993.744956 943.00386 0.0010076
20.73339 990.0191 989.867981 942.997522 0.001010082
20.74219 987.37952 986.219408 942.99036 0.001012782
20.75100 984.87305 982.801979 942.982362 0.001015359
20.75980 982.92822 979.620278 942.973517 0.001017368
20.76860 980.52307 976.676386 942.963814 0.001019864
20.77741 978.29889 973.971412 942.953242 0.001022182
20.78620 976.79327 971.507191 942.941794 0.001023758
20.79501 975.06793 969.280228 942.929453 0.00102557
20.80381 973.2334 967.288984 942.916214 0.001027503
20.81261 971.76147 965.52906 942.902063 0.001029059
20.82141 971.01947 963.996516 942.886995 0.001029845
20.83022 970.68286 962.686794 942.871 0.001030203
20.83902 969.79205 961.595937 942.854065 0.001031149
20.84782 969.03162 960.72144 942.836191 0.001031958
20.85662 968.32227 960.060838 942.817358 0.001032714
20.86542 967.72351 959.61472 942.797565 0.001033353
20.87423 966.99969 959.38423 942.776802 0.001034126
20.88303 966.9494 959.372565 942.755065 0.00103418
20.89183 967.44403 959.584575 942.732345 0.001033652
20.90063 967.93689 960.026436 942.70864 0.001033125
20.90943 968.47382 960.706074 942.683937 0.001032552
20.91824 969.43646 961.632035 942.658232 0.001031527
20.92704 970.5636 962.813109 942.631525 0.001030329
20.93584 971.96027 964.258196 942.603805 0.001028849
20.94465 972.93756 965.974716 942.575076 0.001027815
20.95345 974.05902 967.968832 942.545329 0.001026632
20.96225 975.8905 970.242811 942.514567 0.001024705
20.97105 977.48486 972.796812 942.482779 0.001023034
20.97985 979.12329 975.626031 942.449963 0.001021322
20.98866 981.65497 978.71912 942.416125 0.001018688
20.99746 984.68292 982.060848 942.381257 0.001015555
21.00626 987.36206 985.627123 942.345366 0.0010128
21.01506 989.7616 989.387344 942.308458 0.001010344
21.02386 992.46222 993.305864 942.270512 0.001007595
21.03267 995.47772 997.333969 942.231546 0.001004543
21.04147 998.70728 1001.417044 942.191555 0.001001294
21.05027 1001.8992 1005.48983 942.15055 0.000998104
21.05907 1005.1019 1009.481154 942.10853 0.000994924
21.06788 1009.476 1013.312024 942.065495 0.000990613
21.07668 1013.5065 1016.90082 942.02147 0.000986673
21.08548 1017.1324 1020.168288 941.97643 0.000983156
21.09428 1019.8313 1023.036346 941.930402 0.000980554
21.10308 1022.1163 1025.43959 941.883382 0.000978362
21.11189 1024.4795 1027.324807 941.835391 0.000976105
21.12069 1026.3168 1028.659379 941.78643 0.000974358
21.12949 1027.03 1029.429562 941.736516 0.000973681
21.13829 1026.3464 1029.644762 941.685647 0.00097433
21.14709 1024.4677 1029.329858 941.633835 0.000976117
21.15590 1022.8425 1028.527046 941.581104 0.000977668
21.16470 1020.2955 1027.28495 941.527455 0.000980108
21.17350 1018.2292 1025.661403 941.472914 0.000982097
21.18230 1015.2133 1023.714614 941.417491 0.000985015
21.19110 1012.4174 1021.508458 941.361207 0.000987735
21.19991 1010.2193 1019.105116 941.304066 0.000989884
21.20871 1007.5702 1016.568692 941.246087 0.000992487
21.21751 1004.7178 1013.96226 941.187302 0.000995304
21.22631 1002.2822 1011.343595 941.127716 0.000997723
21.23512 1000.7011 1008.765163 941.067365 0.000999299
21.24392 998.60614 1006.269996 941.006271 0.001001396
21.25272 997.40778 1003.891664 940.944444 0.001002599
21.26152 997.42535 1001.653862 940.881914 0.001002581
21.27032 995.81891 999.571799 940.8187 0.001004199
21.27913 994.25928 997.6534 940.754843 0.001005774
21.28793 993.49524 995.899559 940.690355 0.001006547
21.29673 992.82605 994.306718 940.625282 0.001007226
21.30553 991.89709 992.867725 940.559653 0.001008169
21.31433 990.83856 991.573226 940.493485 0.001009246
21.32314 989.76434 990.411965 940.426817 0.001010342
21.33194 988.80243 989.371153 940.359677 0.001011324
21.34074 988.07196 988.437872 940.292116 0.001012072
21.34954 987.44775 987.596617 940.224153 0.001012712
21.35834 986.83331 986.832919 940.15586 0.001013342
21.36715 986.89362 986.13015 940.087228 0.00101328
21.37595 986.59497 985.475406 940.018329 0.001013587
21.38475 986.25879 984.85736 939.949199 0.001013933
21.39355 985.52454 984.270656 939.879872 0.001014688
21.40236 984.14215 983.713245 939.810411 0.001016113
21.41116 982.70544 983.190102 939.740845 0.001017599
21.41996 981.50281 982.708175 939.671256 0.001018846
21.42876 980.98584 982.277532 939.601645 0.001019383
21.43756 981.00171 981.907167 939.532096 0.001019366
21.44637 980.59961 981.60419 939.462654 0.001019784
21.45517 980.0285 981.369657 939.393366 0.001020378
21.46397 979.71692 981.201336 939.324304 0.001020703
21.47277 979.37598 981.088318 939.255526 0.001021058
21.48157 979.13013 981.014608 939.187076 0.001021315
21.49038 978.97308 980.958136 939.119016 0.001021479
21.49918 978.71198 980.892248 939.051425 0.001021751
21.50798 978.90753 980.787173 938.98436 0.001021547
21.51678 979.50836 980.613684 938.917881 0.00102092
21.52558 979.50781 980.343458 938.852086 0.001020921
21.53439 978.90967 979.954469 938.787002 0.001021545
21.54319 978.64807 979.431741 938.722731 0.001021818
21.55199 979.28558 978.769234 938.659332 0.001021153
21.56079 978.97717 977.970669 938.596898 0.001021474
21.56959 977.36902 977.047994 938.535498 0.001023155
21.57840 975.92395 976.020997 938.475208 0.00102467
21.58720 975.09015 974.914777 938.416136 0.001025546
21.59600 973.74976 973.757366 938.358327 0.001026958
21.60480 972.3501 972.580173 938.301894 0.001028436
21.61360 971.66913 971.413279 938.246921 0.001029157
21.62241 970.49591 970.285659 938.193491 0.001030401
21.63121 969.66235 969.223838 938.141711 0.001031287
21.64001 968.93152 968.249747 938.091676 0.001032065
21.64881 968.53979 967.380267 938.043472 0.001032482
21.65762 968.90033 966.62594 937.997199 0.001032098
21.66642 969.11969 965.994417 937.952971 0.001031864
21.67522 969.11615 965.48424 937.910887 0.001031868
21.68402 968.72717 965.090214 937.871051 0.001032282
21.69282 969.19708 964.800513 937.83358 0.001031782
21.70163 969.97253 964.599966 937.798586 0.001030957
21.71043 970.69574 964.46891 937.766176 0.001030189
21.71923 971.81549 964.384523 937.736467 0.001029002
21.72803 971.89093 964.323147 937.709586 0.001028922
21.73683 971.53131 964.259459 937.685652 0.001029303
21.74564 971.22632 964.169156 937.664787 0.001029626
21.75444 970.49109 964.029714 937.647127 0.001030406
21.76324 969.84436 963.8218 937.63279 0.001031093
21.77204 968.14972 963.530773 937.621917 0.001032898
21.78085 967.2171 963.148077 937.61464 0.001033894
21.78965 966.1004 962.671652 937.611101 0.001035089
21.79845 964.96173 962.106011 937.611438 0.001036311
21.80725 962.82251 961.460946 937.615797 0.001038613
21.81605 961.18011 960.750682 937.624322 0.001040388
21.82486 959.91827 959.990973 937.637167 0.001041755
21.83366 958.52649 959.198487 937.654481 0.001043268
21.84246 956.62445 958.389243 937.676424 0.001045342
21.85126 954.92993 957.577275 937.70315 0.001047197
21.86006 953.79602 956.774988 937.734823 0.001048442
21.86887 952.84521 955.991812 937.771602 0.001049488
21.87767 953.06903 955.236019 937.813666 0.001049242
21.88647 952.81165 954.513 937.861185 0.001049525
21.89527 952.18884 953.827083 937.914325 0.001050212
21.90408 951.1059 953.180768 937.973274 0.001051408
21.91288 950.07697 952.576041 938.038201 0.001052546
21.92168 949.38232 952.013867 938.109295 0.001053316
21.93048 949.2254 951.494774 938.186735 0.001053491
21.93928 948.43719 951.018925 938.27073 0.001054366
21.94809 948.14471 950.586433 938.361475 0.001054691
21.95689 948.34985 950.196536 938.459149 0.001054463
21.96569 948.25781 949.848239 938.563974 0.001054566
21.97449 947.78375 949.539485 938.676131 0.001055093
21.98329 947.92371 949.267807 938.795826 0.001054937
21.99210 947.79913 949.029955 938.923299 0.001055076
22.00090 947.39105 948.822289 939.05875 0.00105553
22.00970 947.15851 948.641094 939.202417 0.001055789
22.01850 946.9743 948.483145 939.35449 0.001055995
22.02731 946.41394 948.345644 939.515229 0.00105662
22.03611 946.36127 948.226942 939.684829 0.001056679
22.04491 946.36017 948.126238 939.86352 0.00105668
22.05371 946.17102 948.043785 940.051582 0.001056891
22.06251 946.49744 947.980495 940.249235 0.001056527
22.07132 946.93335 947.937874 940.456752 0.001056041
22.08012 946.8053 947.917358 940.674333 0.001056183
22.08892 946.76392 947.920409 940.902282 0.00105623
22.09772 947.3501 947.947958 941.140751 0.001055576
22.10652 948.12274 948.000612 941.390163 0.001054716
22.11533 948.84833 948.078256 941.650675 0.001053909
22.12413 949.12518 948.180368 941.922585 0.001053602
22.13293 949.36847 948.305749 942.2062 0.001053332
22.14173 949.53253 948.452727 942.501735 0.00105315
22.15054 949.57697 948.619142 942.809539 0.001053101
22.15934 950.12152 948.802424 943.129756 0.001052497
22.16814 951.01239 948.999979 943.462896 0.001051511
22.17694 951.30334 949.208978 943.809107 0.001051189
22.18574 951.25177 949.426993 944.168728 0.001051246
22.19455 950.56799 949.652126 944.542106 0.001052003
22.20335 950.33441 949.883063 944.929465 0.001052261
22.21215 950.75317 950.119485 945.331116 0.001051798
22.22095 950.59143 950.361914 945.747467 0.001051977
22.22975 950.6546 950.611602 946.178798 0.001051907
22.23856 951.23584 950.870375 946.625487 0
22.24736 951.29535 0 0 0
22.25616 951.39117 0 0 0
22.26496 951.78119 0 0 0
22.27376 951.29077 0 0 0
22.28257 951.52057 0 0 0
22.29137 952.26727 0 0 0
22.30017 952.58087 0 0 0
22.30897 952.19763 0 0 0
22.31778 952.3515 0 0 0
22.32658 952.88245 0 0 0
22.33538 953.09344 0 0 0
22.34418 953.53809 0 0 0
22.35298 954.14874 0 0 0
22.36179 953.97101 0 0 0
22.37059 954.22046 0 0 0
22.37939 954.46045 0 0 0
22.38819 955.61633 0 0 0
22.39699 956.83746 0 0 0
22.40580 957.41333 0 0 0
22.41460 957.07751 0 0 0
22.42340 958.79504 0 0 0
22.43220 960.77313 0 0 0
22.44100 961.05658 0 0 0
22.44981 961.56598 0 0 0
22.45861 963.25684 0 0 0
22.46741 964.45599 0 0 0
22.47621 965.63086 0 0 0
22.48502 966.82861 0 0 0
22.49382 968.01532 0 0 0
22.50262 969.33521 0 0 0
22.51142 971.37561 0 0 0
22.52022 972.93939 0 0 0
22.52903 974.367 0 0 0
22.53783 975.47949 0 0 0
22.54663 977.03235 0 0 0
22.55543 979.48639 0 0 0
22.56423 982.18927 0 0 0
22.57304 984.91718 0 0 0
22.58184 987.84888 0 0 0
22.59064 990.08691 0 0 0
22.59944 992.21674 0 0 0
22.60825 995.60675 0 0 0
22.61705 999.27081 0 0 0
22.62585 1002.3776 0 0 0
22.63465 1004.838 0 0 0
22.64345 1007.7849 0 0 0
22.65226 1010.8757 0 0 0
22.66106 1013.2012 0 0 0
22.66986 1014.5767 0 0 0
22.67866 1016.1846 0 0 0
22.68746 1017.8506 0 0 0
22.69627 1018.2393 0 0 0
22.70507 1017.7473 0 0 0
22.71387 1016.2752 0 0 0
22.72267 1015.0009 0 0 0
22.73147 1012.6573 0 0 0
22.74028 1009.5247 0 0 0
22.74908 1006.3384 0 0 0
22.75788 1003.2212 0 0 0
22.76668 999.55292 0 0 0
22.77549 995.37866 0 0 0
22.78429 991.16187 0 0 0
22.79309 987.64233 0 0 0
22.80189 985.35254 0 0 0
22.81069 982.63452 0 0 0
22.81950 979.32758 0 0 0
22.82830 975.77209 0 0 0
22.83710 973.00983 0 0 0
22.84590 970.37836 0 0 0
22.85470 967.38568 0 0 0
22.86351 965.04333 0 0 0
22.87231 963.25317 0 0 0
22.88111 961.70807 0 0 0
22.88991 960.23499 0 0 0
22.89871 958.63684 0 0 0
22.90752 957.22064 0 0 0
22.91632 956.11023 0 0 0
22.92512 956.28943 0 0 0
22.93392 956.04413 0 0 0
22.94273 955.0506 0 0 0
22.95153 954.44836 0 0 0
22.96033 954.03143 0 0 0
22.96913 953.15192 0 0 0
22.97793 951.6875 0 0 0
22.98674 950.9917 0 0 0
22.99554 950.97742 0 0 0
23.00434 951.28674 0 0 0
23.01314 951.68243 0 0 0
23.02194 951.58081 0 0 0
23.03075 950.93976 0 0 0
23.03955 951.02917 0 0 0
23.04835 951.24945 0 0 0
23.05715 950.6015 0 0 0
23.06596 949.21741 0 0 0
23.07476 948.57208 0 0 0
23.08356 948.51697 0 0 0
23.09236 948.05103 0 0 0
23.10116 948.26587 0 0 0
23.10997 948.96136 0 0 0
23.11877 948.56183 0 0 0
23.12757 947.36322 0 0 0
23.13637 946.75452 0 0 0
23.14517 947.83514 0 0 0
23.15398 948.54517 0 0 0
23.16278 948.1593 0 0 0
23.17158 948.11816 0 0 0
23.18038 949.03796 0 0 0
23.18918 949.41284 0 0 0
23.19799 949.12732 0 0 0
23.20679 949.26422 0 0 0
23.21559 950.43909 0 0 0
23.22439 951.04443 0 0 0
23.23320 950.94196 0 0 0
23.24200 951.07599 0 0 0
23.25080 952.1377 0 0 0
23.25960 953.43555 0 0 0
23.26840 954.58716 0 0 0
23.27721 955.90106 0 0 0
23.28601 957.25305 0 0 0
23.29481 958.41394 0 0 0
23.30361 959.6402 0 0 0
23.31241 960.8255 0 0 0
23.32122 961.93439 0 0 0
23.33002 962.9668 0 0 0
23.33882 964.26587 0 0 0
23.34762 966.04889 0 0 0
23.35642 967.21771 0 0 0
23.36523 967.97241 0 0 0
23.37403 968.40454 0 0 0
23.38283 969.96246 0 0 0
23.39163 971.0733 0 0 0
23.40044 971.83551 0 0 0
23.40924 972.31451 0 0 0
23.41804 973.02338 0 0 0
23.42684 973.8714 0 0 0
23.43564 974.7757 0 0 0
23.44445 974.22266 0 0 0
23.45325 973.51617 0 0 0
23.46205 973.60858 0 0 0
23.47085 973.74152 0 0 0
23.47965 972.99695 0 0 0
23.48846 971.11896 0 0 0
23.49726 970.65735 0 0 0
23.50606 970.88672 0 0 0
23.51486 970.50873 0 0 0
23.52367 969.763 0 0 0
23.53247 970.12823 0 0 0
23.54127 970.46649 0 0 0
23.55007 970.77814 0 0 0
23.55887 971.10986 0 0 0
23.56768 971.72595 0 0 0
23.57648 973.09454 0 0 0
23.58528 974.76697 0 0 0
23.59408 975.98676 0 0 0
23.60288 976.60315 0 0 0
23.61169 977.56201 0 0 0
23.62049 978.1969 0 0 0
23.62929 979.00623 0 0 0
23.63809 978.2583 0 0 0
23.64689 976.16803 0 0 0
23.65570 973.73254 0 0 0
23.66450 972.02655 0 0 0
23.67330 970.51715 0 0 0
23.68210 968.99426 0 0 0
23.69091 967.49988 0 0 0
23.69971 967.2511 0 0 0
23.70851 966.5672 0 0 0
23.71731 965.94775 0 0 0
23.72611 965.08575 0 0 0
23.73492 964.07184 0 0 0
23.74372 963.15814 0 0 0
23.75252 962.06274 0 0 0
23.76132 961.63678 0 0 0
23.77012 961.28888 0 0 0
23.77893 961.31592 0 0 0
23.78773 960.74115 0 0 0
23.79653 959.6731 0 0 0
23.80533 959.16223 0 0 0
23.81414 959.24841 0 0 0
23.82294 958.95032 0 0 0
23.83174 959.73956 0 0 0
23.84054 960.17621 0 0 0
23.84934 961.58368 0 0 0
23.85815 962.31995 0 0 0
23.86695 963.21796 0 0 0
23.87575 964.01117 0 0 0
23.88455 963.92389 0 0 0
23.89335 964.01971 0 0 0
23.90216 964.729 0 0 0
23.91096 965.67456 0 0 0
23.91976 966.03223 0 0 0
23.92856 967.25061 0 0 0
23.93736 969.58203 0 0 0
23.94617 971.87799 0 0 0
23.95497 972.83319 0 0 0
23.96377 974.72223 0 0 0
23.97257 976.62317 0 0 0
23.98137 977.63831 0 0 0
23.99018 978.21014 0 0 0
23.99898 978.55585 0 0 0
24.00778 978.28253 0 0 0
24.01658 977.89264 0 0 0
24.02539 977.07635 0 0 0
24.03419 976.92102 0 0 0
24.04299 977.79871 0 0 0
24.05179 977.49487 0 0 0
24.06059 977.01306 0 0 0
24.06940 976.67773 0 0 0
24.07820 976.54333 0 0 0
24.08700 976.54926 0 0 0
24.09580 976.5993 0 0 0
24.10460 976.58099 0 0 0
24.11341 976.2066 0 0 0
24.12221 975.23181 0 0 0
24.13101 975.87292 0 0 0
24.13981 976.34082 0 0 0
24.14862 976.32794 0 0 0
24.15742 976.31799 0 0 0
24.16622 976.86749 0 0 0
24.17502 976.49695 0 0 0
24.18382 976.07611 0 0 0
24.19263 977.04742 0 0 0
24.20143 978.19177 0 0 0
24.21023 979.28198 0 0 0
24.21903 980.75867 0 0 0
24.22783 982.7522 0 0 0
24.23664 983.18256 0 0 0
24.24544 984.54926 0 0 0
24.25424 986.3255 0 0 0
24.26304 988.34802 0 0 0
24.27184 990.08215 0 0 0
24.28065 993.56519 0 0 0
24.28945 997.74451 0 0 0
24.29825 1000.2005 0 0 0
24.30705 1004.264 0 0 0
24.31586 1008.1946 0 0 0
24.32466 1012.2926 0 0 0
24.33346 1015.3618 0 0 0
24.34226 1018.9567 0 0 0
24.35106 1020.9718 0 0 0
24.35987 1021.8866 0 0 0
24.36867 1022.7259 0 0 0
24.37747 1024.6851 0 0 0
24.38627 1025.3895 0 0 0
24.39507 1025.7601 0 0 0
24.40388 1026.3662 0 0 0
24.41268 1027.2653 0 0 0
24.42148 1027.7609 0 0 0
24.43029 1027.1035 0 0 0
24.43908 1026.5006 0 0 0
24.44789 1024.6151 0 0 0
24.45669 1022.8319 0 0 0
24.46549 1019.8541 0 0 0
24.47430 1016.5853 0 0 0
24.48310 1012.8721 0 0 0
24.49190 1008.8257 0 0 0
24.50070 1004.7105 0 0 0
24.50950 1000.2924 0 0 0
24.51831 996.19403 0 0 0
24.52711 992.68646 0 0 0
24.53591 989.1731 0 0 0
24.54471 985.84473 0 0 0
24.55351 982.66534 0 0 0
24.56232 979.78876 0 0 0
24.57112 976.90796 0 0 0
24.57992 974.82269 0 0 0
24.58872 972.91351 0 0 0
24.59753 970.83765 0 0 0
24.60633 969.86688 0 0 0
24.61513 968.83185 0 0 0
24.62393 967.2265 0 0 0
24.63273 966.86108 0 0 0
24.64154 967.89752 0 0 0
24.65034 967.96552 0 0 0
24.65914 967.38104 0 0 0
24.66794 968.14618 0 0 0
24.67674 970.07397 0 0 0
24.68555 970.73804 0 0 0
24.69435 971.09778 0 0 0
24.70315 972.3645 0 0 0
24.71195 973.98236 0 0 0
24.72076 976.02515 0 0 0
24.72956 976.68323 0 0 0
24.73836 978.48767 0 0 0
24.74716 981.24005 0 0 0
24.75596 983.47113 0 0 0
24.76477 985.08356 0 0 0
24.77357 987.03564 0 0 0
24.78237 989.17291 0 0 0
24.79117 992.01154 0 0 0
24.79997 994.69312 0 0 0
24.80878 996.03259 0 0 0
24.81758 998.07965 0 0 0
24.82638 999.0451 0 0 0
24.83518 999.64789 0 0 0
24.84398 999.73962 0 0 0
24.85279 999.68884 0 0 0
24.86159 999.66504 0 0 0
24.87039 1000.3879 0 0 0
24.87919 999.08441 0 0 0
24.88800 996.77417 0 0 0
24.89680 994.4491 0 0 0
24.90560 991.1731 0 0 0
24.91440 986.47998 0 0 0
24.92320 981.74182 0 0 0
24.93201 977.59167 0 0 0
24.94081 972.6485 0 0 0
24.94961 968.42157 0 0 0
24.95841 964.89026 0 0 0
24.96721 961.28973 0 0 0
24.97602 957.24164 0 0 0
24.98482 955.32269 0 0 0
24.99362 953.37769 0 0 0
25.00242 951.26245 0 0 0
25.01122 949.45612 0 0 0
25.02003 947.9538 0 0 0
25.02883 946.15692 0 0 0
25.03763 944.42365 0 0 0
25.04643 943.82867 0 0 0
25.05523 942.91498 0 0 0
25.06404 942.64221 0 0 0
25.07284 942.73315 0 0 0
25.08164 942.28406 0 0 0
25.09044 941.2818 0 0 0
25.09924 940.55084 0 0 0
25.10805 940.48883 0 0 0
25.11685 941.03479 0 0 0
25.12565 941.75165 0 0 0
25.13445 942.36572 0 0 0
25.14325 943.55341 0 0 0
25.15206 944.17096 0 0 0
25.16086 945.1441 0 0 0
25.16966 946.94751 0 0 0
25.17846 947.61145 0 0 0
25.18727 948.40338 0 0 0
25.19607 950.21454 0 0 0
25.20487 951.37585 0 0 0
25.21367 952.71515 0 0 0
25.22247 953.83966 0 0 0
25.23128 955.52917 0 0 0
25.24008 956.62311 0 0 0
25.24888 956.74615 0 0 0
25.25768 957.51093 0 0 0
25.26648 957.82751 0 0 0
25.27529 957.427 0 0 0
25.28409 957.64581 0 0 0
25.29289 958.54272 0 0 0
25.30169 958.35437 0 0 0
25.31049 958.70959 0 0 0
25.31930 957.78711 0 0 0
25.32810 957.1698 0 0 0
25.33690 957.06586 0 0 0
25.34570 956.6615 0 0 0
25.35451 956.53412 0 0 0
25.36331 955.14722 0 0 0
25.37211 953.94189 0 0 0
25.38091 953.42645 0 0 0
25.38971 953.14722 0 0 0
25.39852 952.92963 0 0 0
25.40732 952.52203 0 0 0
25.41612 951.55054 0 0 0
25.42492 950.40057 0 0 0
25.43372 949.15222 0 0 0
25.44253 947.82434 0 0 0
25.45133 947.07654 0 0 0
25.46013 945.69153 0 0 0
25.46893 943.02747 0 0 0
25.47774 941.52795 0 0 0
25.48654 941.37622 0 0 0
25.49534 940.62854 0 0 0
25.50414 939.15613 0 0 0
25.51294 937.55292 0 0 0
25.52175 937.73175 0 0 0
25.53055 937.29858 0 0 0
25.53935 937.13751 0 0 0
25.54815 937.78107 0 0 0
25.55695 938.89764 0 0 0
25.56576 938.86859 0 0 0
25.57456 938.04614 0 0 0
25.58336 938.73798 0 0 0
25.59216 939.21124 0 0 0
25.60096 940.06677 0 0 0
25.60977 940.27814 0 0 0
25.61857 940.7724 0 0 0
25.62737 942.10132 0 0 0
25.63618 943.42371 0 0 0
25.64498 943.271 0 0 0
25.65378 943.54974 0 0 0
25.66258 945.26843 0 0 0
25.67138 946.33905 0 0 0
25.68019 946.71814 0 0 0
25.68899 946.69012 0 0 0
25.69779 947.84174 0 0 0
25.70659 948.88098 0 0 0
25.71539 948.85492 0 0 0
25.72420 948.82532 0 0 0
25.73300 950.50208 0 0 0
25.74180 952.19672 0 0 0
25.75060 952.65381 0 0 0
25.75940 953.49756 0 0 0
25.76821 954.20343 0 0 0
25.77701 955.40137 0 0 0
25.78581 956.43042 0 0 0
25.79461 957.61566 0 0 0
25.80342 958.15759 0 0 0
25.81222 957.95538 0 0 0
25.82102 957.55957 0 0 0
25.82982 957.90826 0 0 0
25.83862 957.66022 0 0 0
25.84743 956.90381 0 0 0
25.85623 955.70972 0 0 0
25.86503 953.74384 0 0 0
25.87383 952.10883 0 0 0
25.88263 950.24866 0 0 0
25.89144 948.69537 0 0 0
25.90024 946.14423 0 0 0
25.90904 943.92804 0 0 0
25.91784 941.66754 0 0 0
25.92664 940.48126 0 0 0
25.93545 940.06189 0 0 0
25.94425 939.03131 0 0 0
25.95305 937.39209 0 0 0
25.96185 935.73853 0 0 0
25.97066 934.914 0 0 0
25.97946 934.56781 0 0 0
25.98826 934.27399 0 0 0
25.99706 933.02759 0 0 0
26.00586 931.35834 0 0 0
26.01467 929.86542 0 0 0
26.02347 928.80304 0 0 0
26.03227 927.93506 0 0 0
26.04107 927.43567 0 0 0
26.04987 927.64789 0 0 0
26.05868 927.91675 0 0 0
26.06748 927.7738 0 0 0
26.07628 927.38824 0 0 0
26.08508 926.90131 0 0 0
26.09388 927.60327 0 0 0
26.10269 928.48529 0 0 0
26.11149 927.87152 0 0 0
26.12029 927.52008 0 0 0
26.12909 928.28815 0 0 0
26.13790 929.53925 0 0 0
26.14670 929.89392 0 0 0
26.15550 929.68878 0 0 0
26.16430 930.88678 0 0 0
26.17310 932.79315 0 0 0
26.18191 933.82172 0 0 0
26.19071 934.573 0 0 0
26.19951 935.737 0 0 0
26.20831 936.46533 0 0 0
26.21711 936.91156 0 0 0
26.22592 937.10297 0 0 0
26.23472 937.02496 0 0 0
26.24352 937.56256 0 0 0
26.25232 938.01825 0 0 0
26.26113 938.28699 0 0 0
26.26993 939.52094 0 0 0
26.27873 940.54578 0 0 0
26.28753 939.65558 0 0 0
26.29633 937.89783 0 0 0
26.30514 936.82489 0 0 0
26.31394 936.41656 0 0 0
26.32274 936.44666 0 0 0
26.33154 936.23328 0 0 0
26.34034 935.3219 0 0 0
26.34915 933.68494 0 0 0
26.35795 932.69189 0 0 0
26.36675 932.85291 0 0 0
26.37555 933.77124 0 0 0
26.38435 934.32251 0 0 0
26.39316 933.0697 0 0 0
26.40196 932.06085 0 0 0
26.41076 933.21179 0 0 0
26.41956 934.43097 0 0 0
26.42837 933.85535 0 0 0
26.43717 933.28064 0 0 0
26.44597 933.93085 0 0 0
26.45477 934.09406 0 0 0
26.46357 934.45953 0 0 0
26.47238 934.86469 0 0 0
26.48118 935.10437 0 0 0
26.48998 936.32922 0 0 0
26.49878 937.38196 0 0 0
26.50758 938.40869 0 0 0
26.51639 939.44427 0 0 0
26.52519 940.31561 0 0 0
26.53399 940.52631 0 0 0
26.54279 940.27161 0 0 0
26.55159 940.95905 0 0 0
26.56040 941.67627 0 0 0
26.56920 941.99994 0 0 0
26.57800 943.77783 0 0 0
26.58680 945.57141 0 0 0
26.59561 946.36108 0 0 0
26.60441 946.31403 0 0 0
26.61321 945.93188 0 0 0
26.62201 945.89557 0 0 0
26.63081 945.67426 0 0 0
26.63962 945.34229 0 0 0
26.64842 945.54419 0 0 0
26.65722 944.92432 0 0 0
26.66602 944.28802 0 0 0
26.67482 943.91705 0 0 0
26.68363 942.14435 0 0 0
26.69243 941.80286 0 0 0
26.70123 941.04572 0 0 0
26.71003 939.50446 0 0 0
26.71884 938.81372 0 0 0
26.72764 937.98657 0 0 0
26.73644 937.87738 0 0 0
26.74524 937.14001 0 0 0
26.75404 935.91992 0 0 0
26.76285 935.41315 0 0 0
26.77165 935.84967 0 0 0
26.78045 936.59393 0 0 0
26.78925 935.95923 0 0 0
26.79805 934.93054 0 0 0
26.80686 934.08984 0 0 0
26.81566 934.81805 0 0 0
26.82446 936.43011 0 0 0
26.83326 936.87726 0 0 0
26.84206 937.00317 0 0 0
26.85087 937.34766 0 0 0
26.85967 937.85144 0 0 0
26.86847 937.38306 0 0 0
26.87727 936.38306 0 0 0
26.88608 935.65863 0 0 0
26.89488 934.77502 0 0 0
26.90368 933.29071 0 0 0
26.91248 931.99664 0 0 0
26.92128 930.98114 0 0 0
26.93009 929.42468 0 0 0
26.93889 927.13776 0 0 0
26.94769 925.43494 0 0 0
26.95649 924.89429 0 0 0
26.96529 923.60382 0 0 0
26.97410 921.81091 0 0 0
26.98290 921.19513 0 0 0
26.99170 920.82324 0 0 0
27.00050 919.5592 0 0 0
27.00930 918.85419 0 0 0
27.01811 918.90479 0 0 0
27.02691 918.98389 0 0 0
27.03571 919.90594 0 0 0
27.04451 920.22125 0 0 0
27.05332 918.6355 0 0 0
27.06212 916.91235 0 0 0
27.07092 917.70636 0 0 0
27.07972 919.48633 0 0 0
27.08852 920.00281 0 0 0
27.09733 920.01147 0 0 0
27.10613 920.98834 0 0 0
27.11493 921.67157 0 0 0
27.12373 921.92169 0 0 0
27.13253 922.47894 0 0 0
27.14134 922.22827 0 0 0
27.15014 922.58759 0 0 0
27.15894 923.10699 0 0 0
27.16774 923.03784 0 0 0
27.17655 923.37537 0 0 0
27.18535 923.62372 0 0 0
27.19415 923.28839 0 0 0
27.20295 923.36737 0 0 0
27.21175 923.91663 0 0 0
27.22056 924.57977 0 0 0
27.22936 925.49146 0 0 0
27.23816 924.90405 0 0 0
27.24696 922.66638 0 0 0
27.25576 921.99432 0 0 0
27.26457 922.46112 0 0 0
27.27337 921.15674 0 0 0
27.28217 919.35828 0 0 0
27.29097 918.82062 0 0 0
27.29977 919.14813 0 0 0
27.30858 918.75244 0 0 0
27.31738 917.94897 0 0 0
27.32618 916.9679 0 0 0
27.33498 916.5708 0 0 0
27.34379 917.01062 0 0 0
27.35259 916.56989 0 0 0
27.36139 916.12 0 0 0
27.37019 916.76489 0 0 0
27.37899 916.74103 0 0 0
27.38780 915.7016 0 0 0
27.39660 915.55469 0 0 0
27.40540 916.65729 0 0 0
27.41420 917.58423 0 0 0
27.42300 917.66064 0 0 0
27.43181 917.2619 0 0 0
27.44061 916.42548 0 0 0
27.44941 916.2262 0 0 0
27.45821 916.6745 0 0 0
27.46701 917.55042 0 0 0
27.47582 918.55731 0 0 0
27.48462 918.90369 0 0 0
27.49342 918.2384 0 0 0
27.50222 918.12793 0 0 0
27.51103 919.37762 0 0 0
27.51983 919.40143 0 0 0
27.52863 919.20728 0 0 0
27.53743 919.63 0 0 0
27.54623 919.92468 0 0 0
27.55504 919.99292 0 0 0
27.56384 919.49634 0 0 0
27.57264 919.99231 0 0 0
27.58144 920.52069 0 0 0
27.59024 920.50256 0 0 0
27.59905 920.92529 0 0 0
27.60785 920.68268 0 0 0
27.61665 920.77075 0 0 0
27.62545 922.09943 0 0 0
27.63426 922.43219 0 0 0
27.64306 921.86603 0 0 0
27.65186 921.94165 0 0 0
27.66066 922.13409 0 0 0
27.66946 922.45282 0 0 0
27.67827 923.625 0 0 0
27.68707 924.74286 0 0 0
27.69587 924.95966 0 0 0
27.70467 924.92053 0 0 0
27.71347 925.15662 0 0 0
27.72228 925.61072 0 0 0
27.73108 927.16791 0 0 0
27.73988 927.79193 0 0 0
27.74868 926.98932 0 0 0
27.75748 927.80585 0 0 0
27.76629 927.8551 0 0 0
27.77509 926.43262 0 0 0
27.78389 925.4848 0 0 0
27.79269 925.55066 0 0 0
27.80150 925.79443 0 0 0
27.81030 925.26038 0 0 0
27.81910 924.16034 0 0 0
27.82790 922.75079 0 0 0
27.83670 921.80261 0 0 0
27.84551 921.76715 0 0 0
27.85431 921.138 0 0 0
27.86311 920.39661 0 0 0
27.87191 920.44653 0 0 0
27.88071 919.80469 0 0 0
27.88952 917.84729 0 0 0
27.89832 916.54138 0 0 0
27.90712 916.64612 0 0 0
27.91592 915.72717 0 0 0
27.92472 914.7674 0 0 0
27.93353 913.90179 0 0 0
27.94233 912.90289 0 0 0
27.95113 912.68896 0 0 0
27.95993 912.68298 0 0 0
27.96874 912.46283 0 0 0
27.97754 911.88135 0 0 0
27.98634 910.94757 0 0 0
27.99514 910.60022 0 0 0
28.00394 910.50879 0 0 0
28.01275 909.10699 0 0 0
28.02155 908.75427 0 0 0
28.03035 908.87518 0 0 0
28.03915 908.10095 0 0 0
28.04796 908.01251 0 0 0
28.05676 909.58624 0 0 0
28.06556 911.6308 0 0 0
28.07436 911.69012 0 0 0
28.08316 911.64453 0 0 0
28.09196 911.46533 0 0 0
28.10077 909.75476 0 0 0
28.10957 909.29547 0 0 0
28.11837 910.15778 0 0 0
28.12717 909.69757 0 0 0
28.13598 909.27692 0 0 0
28.14478 910.3927 0 0 0
28.15358 910.90753 0 0 0
28.16238 909.65936 0 0 0
28.17119 909.1546 0 0 0
28.17999 909.12946 0 0 0
28.18879 909.08356 0 0 0
28.19759 909.46631 0 0 0
28.20639 909.90912 0 0 0
28.21520 909.82227 0 0 0
28.22400 908.87085 0 0 0
28.23280 909.90594 0 0 0
28.24160 911.86249 0 0 0
28.25040 912.30719 0 0 0
28.25921 912.59558 0 0 0
28.26801 912.94495 0 0 0
28.27681 912.38977 0 0 0
28.28561 912.51831 0 0 0
28.29442 914.04041 0 0 0
28.30322 914.57379 0 0 0
28.31202 913.2326 0 0 0
28.32082 912.38135 0 0 0
28.32962 908.31952 0 0 0
28.33843 893.11041 0 0 0
28.34723 890.26556 0 0 0
28.35603 900.80994 0 0 0
28.36483 905.34821 0 0 0
28.37363 908.02881 0 0 0
28.38244 907.97943 0 0 0
28.39124 909.00458 0 0 0
28.40004 912.61884 0 0 0
28.40884 915.23749 0 0 0
28.41765 916.43988 0 0 0
28.42645 918.5603 0 0 0
28.43525 921.73425 0 0 0
28.44405 923.52222 0 0 0
28.45285 925.5697 0 0 0
28.46166 927.33813 0 0 0
28.47046 927.81427 0 0 0
28.47926 928.5329 0 0 0
28.48806 929.60736 0 0 0
28.49686 930.57373 0 0 0
28.50567 931.16217 0 0 0
28.51447 929.99744 0 0 0
28.52327 928.758 0 0 0
28.53207 930.04919 0 0 0
28.54087 931.20172 0 0 0
28.54968 930.78064 0 0 0
28.55848 930.01843 0 0 0
28.56728 929.77319 0 0 0
28.57608 927.5694 0 0 0
28.58488 926.64069 0 0 0
28.59369 928.24054 0 0 0
28.60249 928.1969 0 0 0
28.61129 927.17474 0 0 0
28.62009 925.23676 0 0 0
28.62889 921.85254 0 0 0
28.63770 917.76385 0 0 0
28.64650 915.90521 0 0 0
28.65530 914.5741 0 0 0
28.66410 912.05328 0 0 0
28.67291 910.63159 0 0 0
28.68171 910.3526 0 0 0
28.69051 910.7981 0 0 0
28.69931 911.50439 0 0 0
28.70811 910.28723 0 0 0
28.71692 910.01239 0 0 0
28.72572 910.42242 0 0 0
28.73452 910.58362 0 0 0
28.74332 909.54364 0 0 0
28.75212 908.00043 0 0 0
28.76093 908.15338 0 0 0
28.76973 908.08435 0 0 0
28.77853 906.54401 0 0 0
28.78733 905.62054 0 0 0
28.79613 905.95972 0 0 0
28.80494 906.2851 0 0 0
28.81374 908.16431 0 0 0
28.82254 909.62585 0 0 0
28.83134 909.45862 0 0 0
28.84014 910.02112 0 0 0
28.84895 910.99664 0 0 0
28.85775 909.09344 0 0 0
28.86655 908.26221 0 0 0
28.87535 910.07397 0 0 0
28.88416 909.86774 0 0 0
28.89296 909.64526 0 0 0
28.90176 907.45068 0 0 0
28.91056 905.95081 0 0 0
28.91936 907.23102 0 0 0
28.92817 908.13312 0 0 0
28.93697 908.66608 0 0 0
28.94577 907.22693 0 0 0
28.95457 906.68146 0 0 0
28.96337 905.83649 0 0 0
28.97218 904.69055 0 0 0
28.98098 903.99463 0 0 0
28.98978 904.09406 0 0 0
28.99858 904.61249 0 0 0
29.00738 903.63684 0 0 0
29.01619 902.46399 0 0 0
29.02499 903.13672 0 0 0
29.03379 904.7168 0 0 0
29.04259 903.95477 0 0 0
29.05140 902.5437 0 0 0
29.06020 902.31024 0 0 0
29.06900 901.50153 0 0 0
29.07780 899.65668 0 0 0
29.08660 898.23224 0 0 0
29.09541 896.01501 0 0 0
29.10421 895.29401 0 0 0
29.11301 895.60333 0 0 0
29.12181 896.30908 0 0 0
29.13061 895.81842 0 0 0
29.13942 894.50653 0 0 0
29.14822 894.06342 0 0 0
29.15702 894.8941 0 0 0
29.16583 895.04401 0 0 0
29.17463 893.40198 0 0 0
29.18343 892.03607 0 0 0
29.19223 893.99133 0 0 0
29.20103 895.60529 0 0 0
29.20984 896.04041 0 0 0
29.21864 896.77979 0 0 0
29.22744 896.3988 0 0 0
29.23624 895.9201 0 0 0
29.24504 895.65918 0 0 0
29.25384 895.56561 0 0 0
29.26265 895.56415 0 0 0
29.27145 894.98499 0 0 0
29.28025 895.25726 0 0 0
29.28906 895.59943 0 0 0
29.29785 895.66937 0 0 0
29.30666 897.02783 0 0 0
29.31546 897.27484 0 0 0
29.32426 896.33099 0 0 0
29.33307 897.72949 0 0 0
29.34187 899.26453 0 0 0
29.35067 899.44165 0 0 0
29.35947 899.52936 0 0 0
29.36827 899.13904 0 0 0
29.37708 898.89795 0 0 0
29.38588 899.83752 0 0 0
29.39468 901.26727 0 0 0
29.40348 903.03241 0 0 0
29.41228 905.45319 0 0 0
29.42109 905.27484 0 0 0
29.42989 905.11182 0 0 0
29.43869 906.56927 0 0 0
29.44749 908.51532 0 0 0
29.45630 909.3399 0 0 0
29.46510 909.44574 0 0 0
29.47390 910.09393 0 0 0
29.48270 911.28003 0 0 0
29.49150 913.90717 0 0 0
29.50031 914.68201 0 0 0
29.50911 915.19324 0 0 0
29.51791 917.71552 0 0 0
29.52671 918.21863 0 0 0
29.53551 918.099 0 0 0
29.54432 919.13568 0 0 0
29.55312 920.36993 0 0 0
29.56192 922.12244 0 0 0
29.57072 923.25598 0 0 0
29.57952 923.38861 0 0 0
29.58833 923.5498 0 0 0
29.59713 923.68237 0 0 0
29.60593 923.77338 0 0 0
29.61473 923.63025 0 0 0
29.62354 923.66473 0 0 0
29.63234 922.15137 0 0 0
29.64114 919.58545 0 0 0
29.64994 919.43762 0 0 0
29.65874 919.16406 0 0 0
29.66755 919.95636 0 0 0
29.67635 925.7049 0 0 0
29.68515 937.36151 0 0 0
29.69395 991.84668 0 0 0
29.70275 1083.4995 0 0 0
29.71156 1120.6947 0 0 0
29.72036 1097.3752 0 0 0
29.72916 1051.0397 0 0 0
29.73796 994.97119 0 0 0
29.74676 944.83337 0 0 0
29.75557 922.27606 0 0 0
29.76437 910.43457 0 0 0
29.77317 906.57733 0 0 0
29.78197 907.4162 0 0 0
29.79078 907.23114 0 0 0
29.79958 906.74945 0 0 0
29.80838 904.38416 0 0 0
29.81718 901.26685 0 0 0
29.82598 900.55933 0 0 0
29.83479 900.87024 0 0 0
29.84359 900.55835 0 0 0
29.85239 900.18854 0 0 0
29.86119 899.57916 0 0 0
29.86999 899.15509 0 0 0
29.87880 900.06409 0 0 0
29.88760 899.1665 0 0 0
29.89640 897.04376 0 0 0
29.90520 897.29156 0 0 0
29.91400 899.38953 0 0 0
29.92281 901.04602 0 0 0
29.93161 900.03522 0 0 0
29.94041 898.93152 0 0 0
29.94921 898.9541 0 0 0
29.95801 900.13684 0 0 0
29.96682 900.5484 0 0 0
29.97562 898.51154 0 0 0
29.98442 898.99902 0 0 0
29.99322 899.30853 0 0 0
30.00203 898.07239 0 0 0
30.01083 898.76691 0 0 0
30.01963 898.86658 0 0 0
30.02843 897.99304 0 0 0
30.03723 897.68109 0 0 0
30.04604 898.65411 0 0 0
30.05484 899.8504 0 0 0
30.06364 899.98608 0 0 0
30.07244 899.90503 0 0 0
30.08124 899.78442 0 0 0
30.09005 902.25018 0 0 0
30.09885 903.44299 0 0 0
30.10765 901.94684 0 0 0
30.11645 902.35132 0 0 0
30.12526 902.24371 0 0 0
30.13406 902.44843 0 0 0
30.14286 903.06372 0 0 0
30.15166 904.62756 0 0 0
30.16046 905.71588 0 0 0
30.16927 905.51306 0 0 0
30.17807 905.48053 0 0 0
30.18687 906.28345 0 0 0
30.19567 906.45935 0 0 0
30.20447 906.3103 0 0 0
30.21328 906.58575 0 0 0
30.22208 906.90289 0 0 0
30.23088 906.42841 0 0 0
30.23968 906.90509 0 0 0
30.24849 907.30536 0 0 0
30.25729 906.54938 0 0 0
30.26609 906.72382 0 0 0
30.27489 908.52625 0 0 0
30.28369 910.23846 0 0 0
30.29250 909.33038 0 0 0
30.30130 908.57776 0 0 0
30.31010 909.15332 0 0 0
30.31890 911.76263 0 0 0
30.32770 911.98254 0 0 0
30.33651 912.53088 0 0 0
30.34531 914.36157 0 0 0
30.35411 914.17859 0 0 0
30.36291 913.26245 0 0 0
30.37172 914.04639 0 0 0
30.38052 914.33478 0 0 0
30.38932 917.39014 0 0 0
30.39812 922.19299 0 0 0
30.40692 924.40192 0 0 0
30.41573 922.67078 0 0 0
30.42453 923.54474 0 0 0
30.43333 924.69843 0 0 0
30.44213 924.37659 0 0 0
30.45093 923.95874 0 0 0
30.45974 926.49005 0 0 0
30.46854 928.43512 0 0 0
30.47734 928.19775 0 0 0
30.48614 927.77063 0 0 0
30.49494 929.04022 0 0 0
30.50375 929.3136 0 0 0
30.51255 930.7121 0 0 0
30.52135 930.81128 0 0 0
30.53015 930.94287 0 0 0
30.53896 930.62201 0 0 0
30.54776 928.62958 0 0 0
30.55656 927.19989 0 0 0
30.56536 927.87848 0 0 0
30.57416 929.47418 0 0 0
30.58297 927.75256 0 0 0
30.59177 924.63434 0 0 0
30.60057 923.7959 0 0 0
30.60937 925.13086 0 0 0
30.61817 925.51349 0 0 0
30.62698 924.16962 0 0 0
30.63578 922.62579 0 0 0
30.64458 922.70074 0 0 0
30.65338 920.742 0 0 0
30.66218 919.96558 0 0 0
30.67099 919.00293 0 0 0
30.67979 918.49896 0 0 0
30.68859 919.35339 0 0 0
30.69739 916.86011 0 0 0
30.70620 917.2182 0 0 0
30.71500 918.53351 0 0 0
30.72380 919.05469 0 0 0
30.73260 917.3382 0 0 0
30.74140 914.43591 0 0 0
30.75021 913.17163 0 0 0
30.75901 910.87006 0 0 0
30.76781 910.06366 0 0 0
30.77661 910.29401 0 0 0
30.78541 908.80817 0 0 0
30.79422 906.13568 0 0 0
30.80302 906.60394 0 0 0
30.81182 908.43225 0 0 0
30.82062 906.47919 0 0 0
30.82943 902.70929 0 0 0
30.83823 902.44586 0 0 0
30.84703 903.31439 0 0 0
30.85583 901.51288 0 0 0
30.86463 899.83917 0 0 0
30.87344 897.29639 0 0 0
30.88224 896.94141 0 0 0
30.89104 898.65906 0 0 0
30.89984 898.90332 0 0 0
30.90864 896.71234 0 0 0
30.91745 893.76746 0 0 0
30.92625 895.71405 0 0 0
30.93505 898.63531 0 0 0
30.94385 899.09607 0 0 0
30.95265 900.56134 0 0 0
30.96146 899.42072 0 0 0
30.97026 898.67896 0 0 0
30.97906 900.32251 0 0 0
30.98786 902.03857 0 0 0
30.99667 902.48389 0 0 0
31.00547 901.64929 0 0 0
31.01427 902.83722 0 0 0
31.02307 905.15491 0 0 0
31.03187 905.62878 0 0 0
31.04068 906.44055 0 0 0
31.04948 906.53497 0 0 0
31.05828 906.2392 0 0 0
31.06708 906.53607 0 0 0
31.07588 907.34778 0 0 0
31.08469 907.50616 0 0 0
31.09349 907.56958 0 0 0
31.10229 905.80756 0 0 0
31.11109 903.49628 0 0 0
31.11989 903.55151 0 0 0
31.12870 902.04169 0 0 0
31.13750 900.52612 0 0 0
31.14630 901.63751 0 0 0
31.15510 902.22034 0 0 0
31.16391 901.83594 0 0 0
31.17271 902.65094 0 0 0
31.18151 901.49243 0 0 0
31.19031 899.34698 0 0 0
31.19911 901.30206 0 0 0
31.20792 899.47388 0 0 0
31.21672 898.4325 0 0 0
31.22552 895.83295 0 0 0
31.23432 893.35034 0 0 0
31.24312 892.65894 0 0 0
31.25193 892.83759 0 0 0
31.26073 893.08472 0 0 0
31.26953 891.72034 0 0 0
31.27833 892.46021 0 0 0
31.28714 893.35236 0 0 0
31.29594 892.78638 0 0 0
31.30474 889.92346 0 0 0
31.31354 889.79907 0 0 0
31.32234 892.09015 0 0 0
31.33115 892.88318 0 0 0
31.33995 892.3089 0 0 0
31.34875 890.37048 0 0 0
31.35755 888.58484 0 0 0
31.36635 888.659 0 0 0
31.37516 888.60736 0 0 0
31.38396 887.96503 0 0 0
31.39276 885.1897 0 0 0
31.40156 885.89972 0 0 0
31.41036 887.71301 0 0 0
31.41917 885.67206 0 0 0
31.42797 886.2113 0 0 0
31.43677 888.37097 0 0 0
31.44557 889.25745 0 0 0
31.45438 888.92853 0 0 0
31.46318 887.49188 0 0 0
31.47198 885.08362 0 0 0
31.48078 885.50696 0 0 0
31.48958 886.66559 0 0 0
31.49839 887.58014 0 0 0
31.50719 888.07819 0 0 0
31.51599 887.71991 0 0 0
31.52479 887.7016 0 0 0
31.53359 887.12109 0 0 0
31.54240 886.96838 0 0 0
31.55120 886.57568 0 0 0
31.56000 885.41296 0 0 0
31.56880 885.84363 0 0 0
31.57760 886.09644 0 0 0
31.58641 886.42712 0 0 0
31.59521 886.7312 0 0 0
31.60401 885.5816 0 0 0
31.61281 884.8938 0 0 0
31.62162 884.17102 0 0 0
31.63042 883.58356 0 0 0
31.63922 882.53198 0 0 0
31.64802 880.68555 0 0 0
31.65682 880.19043 0 0 0
31.66563 878.89673 0 0 0
31.67443 877.81616 0 0 0
31.68323 878.21558 0 0 0
31.69203 877.66315 0 0 0
31.70083 878.00824 0 0 0
31.70964 879.08197 0 0 0
31.71844 880.81238 0 0 0
31.72724 881.05133 0 0 0
31.73604 876.47565 0 0 0
31.74485 874.41077 0 0 0
31.75365 875.58752 0 0 0
31.76245 874.68927 0 0 0
31.77125 872.35931 0 0 0
31.78005 870.38812 0 0 0
31.78886 870.9165 0 0 0
31.79766 870.35468 0 0 0
31.80646 872.87903 0 0 0
31.81526 872.15192 0 0 0
31.82406 874.67737 0 0 0
31.83287 877.56384 0 0 0
31.84167 874.47723 0 0 0
31.85047 874.31177 0 0 0
31.85927 874.77527 0 0 0
31.86807 875.37091 0 0 0
31.87688 873.96582 0 0 0
31.88568 871.23615 0 0 0
31.89448 871.5 0 0 0
31.90328 874.78979 0 0 0
31.91209 875.98334 0 0 0
31.92089 876.9834 0 0 0
31.92969 874.53546 0 0 0
31.93849 870.41339 0 0 0
31.94729 869.55493 0 0 0
31.95610 870.22229 0 0 0
31.96490 871.77234 0 0 0
31.97370 872.7135 0 0 0
31.98250 871.716 0 0 0
31.99130 873.30957 0 0 0
32.00011 870.28027 0 0 0
32.00891 865.57422 0 0 0
32.01771 864.62268 0 0 0
32.02651 867.85925 0 0 0
32.03532 867.3772 0 0 0
32.04412 863.07135 0 0 0
32.05292 859.75775 0 0 0
32.06172 861.30963 0 0 0
32.07052 866.04767 0 0 0
32.07933 868.3335 0 0 0
32.08813 866.52454 0 0 0
32.09693 861.02417 0 0 0
32.10573 858.76697 0 0 0
32.11454 858.04944 0 0 0
32.12334 861.37317 0 0 0
32.13214 860.98224 0 0 0
32.14094 853.4574 0 0 0
32.14974 851.26135 0 0 0
32.15855 852.55359 0 0 0
32.16735 854.03619 0 0 0
32.17615 854.19287 0 0 0
32.18495 851.60083 0 0 0
32.19375 852.33698 0 0 0
32.20256 856.98499 0 0 0
32.21136 857.65582 0 0 0
32.22016 857.23779 0 0 0
32.22896 856.02069 0 0 0
32.23776 851.48151 0 0 0
32.24657 848.22388 0 0 0
32.25537 846.1001 0 0 0
32.26417 849.73151 0 0 0
32.27297 850.47174 0 0 0
32.28178 852.19299 0 0 0
32.29058 854.26776 0 0 0
32.29938 850.15936 0 0 0
32.30818 853.34393 0 0 0
32.31698 849.33307 0 0 0
32.32579 843.27502 0 0 0
32.33459 848.01764 0 0 0
32.34339 845.77289 0 0 0
32.35219 845.18701 0 0 0
32.36099 849.14789 0 0 0
32.36980 851.87231 0 0 0
32.37860 847.25323 0 0 0
32.38740 842.98578 0 0 0
32.39620 843.14166 0 0 0
32.40500 840.19409 0 0 0
32.41381 842.13672 0 0 0
32.42261 841.57825 0 0 0
32.43141 842.92657 0 0 0
32.44021 846.177 0 0 0
32.44902 848.74219 0 0 0
32.45782 849.47272 0 0 0
32.46662 837.00897 0 0 0
32.47542 828.41705 0 0 0
32.48422 831.81042 0 0 0
32.49303 831.40619 0 0 0
32.50183 836.72406 0 0 0
32.51063 838.40472 0 0 0
32.51943 822.63074 0 0 0
32.52823 822.70709 0 0 0
32.53704 834.58795 0 0 0
32.54584 822.229 0 0 0
32.55464 809.68683 0 0 0
32.56344 818.75586 0 0 0
32.57225 820.63348 0 0 0
32.58105 822.53796 0 0 0
32.58985 825.90442 0 0 0
32.59865 809.66034 0 0 0
32.60745 806.16901 0 0 0
32.61626 815.68958 0 0 0
32.62506 809.85022 0 0 0
32.63386 800.16302 0 0 0
32.64266 783.68451 0 0 0
32.65146 772.89899 0 0 0
32.66027 792.14001 0 0 0
32.66907 810.66455 0 0 0
32.67787 800.36688 0 0 0
32.68667 781.39728 0 0 0
32.69547 771.11682 0 0 0
32.70428 763.52649 0 0 0
32.71308 765.17609 0 0 0
32.72188 759.24188 0 0 0
32.73068 745.83716 0 0 0
32.73949 743.27393 0 0 0
32.74829 733.11847 0 0 0
32.75709 709.52087 0 0 0
32.76589 701.74701 0 0 0
32.77469 689.80585 0 0 0
32.78350 676.9798 0 0 0
32.79230 648.37732 0 0 0
32.80110 597.14282 0 0 0
32.80990 554.51349 0 0 0
32.81870 493.08829 0 0 0
32.82751 408.50317 0 0 0
32.83631 275.63547 0 0 0
32.84511 174.25877 0 0 0
32.85391 168.87932 0 0 0
32.86271 182.82751 0 0 0
32.87152 189.7961 0 0 0
32.88032 181.86334 0 0 0
32.88912 173.37309 0 0 0
32.89792 166.54079 0 0 0
32.90673 165.89273 0 0 0
32.91553 174.30037 0 0 0
32.92433 181.05684 0 0 0
32.93313 186.16039 0 0 0
32.94193 189.91803 0 0 0
32.95074 192.02766 0 0 0
32.95954 175.80722 0 0 0
32.96834 153.52545 0 0 0
32.97714 155.43536 0 0 0
32.98594 164.93556 0 0 0
32.99475 166.25797 0 0 0
33.00355 168.17191 0 0 0
33.01235 177.46678 0 0 0
33.02115 187.17377 0 0 0
33.02996 185.11525 0 0 0
33.03876 178.21254 0 0 0
33.04756 180.57817 0 0 0
33.05636 182.34883 0 0 0
33.06516 182.59035 0 0 0
33.07397 179.55232 0 0 0
33.08277 180.95808 0 0 0
33.09157 192.46378 0 0 0
33.10037 193.70876 0 0 0
33.10917 185.72453 0 0 0
33.11798 185.74565 0 0 0
33.12678 185.11722 0 0 0
33.13558 176.74544 0 0 0
33.14438 166.9342 0 0 0
33.15318 166.85527 0 0 0
33.16199 179.00778 0 0 0
33.17079 184.51938 0 0 0
33.17959 183.96617 0 0 0
33.18839 189.55659 0 0 0
33.19720 191.71753 0 0 0
33.20600 190.74394 0 0 0
33.21480 182.97459 0 0 0
33.22360 172.7868 0 0 0
33.23240 170.21635 0 0 0
33.24121 169.07201 0 0 0
33.25001 172.70473 0 0 0
33.25881 174.8277 0 0 0
33.26761 183.62187 0 0 0
33.27641 192.3705 0 0 0
33.28522 196.83051 0 0 0
33.29402 194.5623 0 0 0
33.30282 182.64259 0 0 0
33.31162 167.71236 0 0 0
33.32042 174.91444 0 0 0
33.32923 191.66553 0 0 0
33.33803 190.83279 0 0 0
33.34683 181.83717 0 0 0
33.35563 175.93924 0 0 0
33.36444 174.90736 0 0 0
33.37324 174.58839 0 0 0
33.38204 173.19507 0 0 0
33.39084 182.10799 0 0 0
33.39964 200.55984 0 0 0
33.40845 199.66061 0 0 0
33.41725 184.88393 0 0 0
33.42605 178.66516 0 0 0
33.43485 182.61102 0 0 0
33.44365 196.10527 0 0 0
33.45246 203.0257 0 0 0
33.46126 202.76709 0 0 0
33.47006 201.36984 0 0 0
33.47886 199.15401 0 0 0
33.48766 185.73427 0 0 0
33.49647 177.03561 0 0 0
33.50527 188.75603 0 0 0
33.51407 198.65477 0 0 0
33.52287 195.48602 0 0 0
33.53168 181.95007 0 0 0
33.54048 177.49754 0 0 0
33.54928 179.79506 0 0 0
33.55808 185.75954 0 0 0
33.56688 200.72617 0 0 0
33.57569 193.98352 0 0 0
33.58449 185.69734 0 0 0
33.59329 194.67339 0 0 0
33.60209 198.19318 0 0 0
33.61089 181.67564 0 0 0
33.61970 160.59895 0 0 0
33.62850 160.10168 0 0 0
33.63730 171.57497 0 0 0
33.64610 189.06804 0 0 0
33.65491 192.49582 0 0 0
33.66371 183.3553 0 0 0
33.67251 174.40422 0 0 0
33.68131 181.8703 0 0 0
33.69011 189.29553 0 0 0
33.69892 175.66519 0 0 0
33.70772 166.56075 0 0 0
33.71652 175.38243 0 0 0
33.72532 189.23325 0 0 0
33.73412 199.82185 0 0 0
33.74293 194.22331 0 0 0
33.75173 187.75603 0 0 0
33.76053 188.76199 0 0 0
33.76933 184.31006 0 0 0
33.77813 183.70149 0 0 0
33.78694 195.56012 0 0 0
33.79574 201.87051 0 0 0
33.80454 188.66742 0 0 0
33.81334 192.63736 0 0 0
33.82215 202.6922 0 0 0
33.83095 201.93651 0 0 0
33.83975 191.38248 0 0 0
33.84855 182.11722 0 0 0
33.85735 185.84065 0 0 0
33.86616 195.74321 0 0 0
33.87496 193.06381 0 0 0
33.88376 187.89406 0 0 0
33.89256 177.76108 0 0 0
33.90136 172.82773 0 0 0
33.91017 181.89259 0 0 0
33.91897 190.20111 0 0 0
33.92777 186.6826 0 0 0
33.93657 181.78589 0 0 0
33.94537 191.19403 0 0 0
33.95418 198.67149 0 0 0
33.96298 197.37007 0 0 0
33.97178 194.43196 0 0 0
33.98058 188.03905 0 0 0
33.98939 184.1806 0 0 0
33.99819 192.06427 0 0 0
34.00699 194.82523 0 0 0
34.01579 185.00328 0 0 0
34.02459 181.45198 0 0 0
34.03340 194.07062 0 0 0
34.04220 193.53302 0 0 0
34.05100 186.90202 0 0 0
34.05980 193.21193 0 0 0
34.06860 202.68732 0 0 0
34.07741 206.04538 0 0 0
34.08621 204.50409 0 0 0
34.09501 202.74222 0 0 0
34.10381 195.93059 0 0 0
34.11262 190.17424 0 0 0
34.12142 183.85423 0 0 0
34.13022 181.47197 0 0 0
34.13902 180.08272 0 0 0
34.14782 185.13475 0 0 0
34.15663 190.74741 0 0 0
34.16543 185.34329 0 0 0
34.17423 182.57008 0 0 0
34.18303 185.90013 0 0 0
34.19183 187.15366 0 0 0
34.20064 189.8998 0 0 0
34.20944 200.09595 0 0 0
34.21824 211.80385 0 0 0
34.22704 214.87233 0 0 0
34.23584 210.75414 0 0 0
34.24465 192.9146 0 0 0
34.25345 187.1449 0 0 0
34.26225 185.58603 0 0 0
34.27105 181.44354 0 0 0
34.27986 179.68181 0 0 0
34.28866 189.39551 0 0 0
34.29746 197.94005 0 0 0
34.30626 207.11754 0 0 0
34.31506 199.41551 0 0 0
34.32387 187.9698 0 0 0
34.33267 187.14838 0 0 0
34.34147 191.55119 0 0 0
34.35027 197.76579 0 0 0
34.35907 196.96603 0 0 0
34.36788 199.45792 0 0 0
34.37668 197.90581 0 0 0
34.38548 195.73415 0 0 0
34.39428 198.46758 0 0 0
34.40308 196.25551 0 0 0
34.41189 192.35971 0 0 0
34.42069 198.80316 0 0 0
34.42949 201.03816 0 0 0
34.43829 201.38776 0 0 0
34.44710 199.20425 0 0 0
34.45590 200.21788 0 0 0
34.46470 197.96434 0 0 0
34.47350 191.75038 0 0 0
34.48230 196.37305 0 0 0
34.49111 204.66113 0 0 0
34.49991 198.97731 0 0 0
34.50871 197.71362 0 0 0
34.51751 195.713 0 0 0
34.52631 189.32191 0 0 0
34.53512 193.74759 0 0 0
34.54392 201.89778 0 0 0
34.55272 211.1488 0 0 0
34.56152 215.68843 0 0 0
34.57033 213.10965 0 0 0
34.57913 207.12639 0 0 0
34.58793 202.26851 0 0 0
34.59673 198.32159 0 0 0
34.60553 191.35303 0 0 0
34.61434 188.72707 0 0 0
34.62314 188.80434 0 0 0
34.63194 193.91693 0 0 0
34.64074 207.06372 0 0 0
34.64954 214.81535 0 0 0
34.65835 208.52481 0 0 0
34.66715 202.74893 0 0 0
34.67595 191.45561 0 0 0
34.68475 184.2254 0 0 0
34.69355 186.00838 0 0 0
34.70236 192.0524 0 0 0
34.71116 191.98943 0 0 0
34.71996 198.23158 0 0 0
34.72876 216.24413 0 0 0
34.73757 215.01991 0 0 0
34.74637 201.63501 0 0 0
34.75517 195.18645 0 0 0
34.76397 198.4527 0 0 0
34.77277 206.60634 0 0 0
34.78158 205.38806 0 0 0
34.79038 188.93671 0 0 0
34.79918 192.94653 0 0 0
34.80798 196.39049 0 0 0
34.81678 199.87822 0 0 0
34.82559 220.62599 0 0 0
34.83439 229.57185 0 0 0
34.84319 224.02338 0 0 0
34.85199 210.85001 0 0 0
34.86079 207.8324 0 0 0
34.86960 216.90982 0 0 0
34.87840 236.61421 0 0 0
34.88720 238.01364 0 0 0
34.89600 233.89912 0 0 0
34.90481 217.75348 0 0 0
34.91361 204.72871 0 0 0
34.92241 199.39238 0 0 0
34.93121 196.8707 0 0 0
34.94001 203.18672 0 0 0
34.94882 206.40349 0 0 0
34.95762 208.6832 0 0 0
34.96642 210.57689 0 0 0
34.97522 207.85495 0 0 0
34.98402 206.27777 0 0 0
34.99283 211.4664 0 0 0
35.00163 215.19148 0 0 0
35.01043 210.60207 0 0 0
35.01923 195.37401 0 0 0
35.02804 188.96242 0 0 0
35.03684 199.17041 0 0 0
35.04564 208.14981 0 0 0
35.05444 208.65622 0 0 0
35.06324 206.5952 0 0 0
35.07205 205.52773 0 0 0
35.08085 206.45195 0 0 0
35.08965 204.70157 0 0 0
35.09845 205.22362 0 0 0
35.10725 213.26903 0 0 0
35.11606 213.59482 0 0 0
35.12486 209.23 0 0 0
35.13366 198.68068 0 0 0
35.14246 203.75021 0 0 0
35.15126 213.43677 0 0 0
35.16007 215.52328 0 0 0
35.16887 216.19958 0 0 0
35.17767 206.95207 0 0 0
35.18647 204.57703 0 0 0
35.19528 212.98026 0 0 0
35.20408 219.01569 0 0 0
loop_
_gsas_i100_meas
2.04
16.17
10.10
0.52
8.85
1.25
100.00
12.21
65.20
30.43
84.20
27.07
2.27
0.48
72.01
92.65
1.70
57.90
23.99
25.90
7.57
0.00
2.58
8.37
4.82
64.87
4.44
59.62
9.44
1.24
1.36
0.01
0.21
6.89
2.85
0.16
10.26
5.37
7.97
30.57
35.91
11.23
9.43
0.03
8.18
1.23
0.00
0.91
22.65
0.68
8.63
10.30
0.74
21.48
9.71
11.99
1.19
6.17
10.52
0.09
20.23
11.59
0.16
0.58
2.61
1.96
3.55
3.68
5.24
1.22
5.55
1.99
1.40
18.07
0.09
1.32
0.04
6.63
4.74
0.59
2.98
9.82
0.01
16.24
0.61
18.21
17.84
30.47
3.92
1.59
1.11
9.28
5.98
0.75
1.54
3.64
7.43
3.91
0.06
0.56
1.57
2.86
3.05
1.64
0.00
23.36
1.00
2.52
0.67
8.83
2.76
25.01
2.66
17.47
5.04
3.80
2.66
0.04
0.02
0.13
0.98
1.49
0.29
0.97
0.08
8.59
16.37
2.74
1.09
3.18
0.01
0.02
0.01
0.07
2.60
4.22
0.10
0.59
0.80
0.47
4.68
0.00
0.02
14.36
9.63
0.05
1.82
0.22
11.49
0.34
2.00
2.71
0.22
0.66
0.17
1.96
2.59
3.23
7.16
1.08
4.45
0.92
1.22
2.13
1.97
0.05
2.87
0.69
3.79
1.40
1.86
1.15
0.15
3.92
0.02
0.05
0.29
0.73
0.48
0.26
0.04
0.43
0.00
0.04
