#------------------------------------------------------------------------------
#$Date: 2021-02-05 01:04:31 +0200 (Fri, 05 Feb 2021) $
#$Revision: 261628 $
#$URL: file:///home/coder/svn-repositories/cod/cif/7/24/18/7241827.cif $
#------------------------------------------------------------------------------
#
# This file is available in the Crystallography Open Database (COD),
# http://www.crystallography.net/
#
# All data on this site have been placed in the public domain by the
# contributors.
#
data_7241827
loop_
_publ_author_name
'Gu\'nka, Piotr A.'
'Hanfland, Michael'
'Chen, Yu-Sheng'
'Zachara, Janusz'
_publ_section_title
;
 High-pressure and low-temperature structural study of claudetite I, a
 monoclinic layered As2O3 polymorph
;
_journal_issue                   3
_journal_name_full               CrystEngComm
_journal_page_first              638
_journal_page_last               644
_journal_paper_doi               10.1039/D0CE01401J
_journal_volume                  23
_journal_year                    2021
_chemical_formula_moiety         'As2 O3'
_chemical_formula_sum            'As2 O3'
_chemical_formula_weight         197.84
_chemical_name_common            'claudetite I'
_chemical_name_systematic
;
arsenic(III) oxide
;
_space_group_IT_number           14
_space_group_name_Hall           '-P 2yn'
_space_group_name_H-M_alt        'P 1 21/n 1'
_symmetry_cell_setting           monoclinic
_symmetry_space_group_name_H-M   'P 1 21/n 1'
_audit_creation_date             2020-10-21T10:50
_audit_creation_method           'created in GSAS-II'
_audit_update_record
;
2020-10-22 deposited with the CCDC.	2020-12-10 downloaded from the CCDC.
;
_cell_angle_alpha                90
_cell_angle_beta                 94.552(5)
_cell_angle_gamma                90
_cell_formula_units_Z            4
_cell_length_a                   5.1421(5)
_cell_length_b                   12.56168(22)
_cell_length_c                   4.4451(3)
_cell_measurement_pressure       2.42e6(5)
_cell_measurement_temperature    293
_cell_volume                     286.22(3)
_computing_data_reduction        Fit2D
_computing_structure_refinement
'GSAS-II (Toby & Von Dreele, J. Appl. Cryst. 46, 544-549, 2013)'
_diffrn_ambient_pressure         2.42e6(5)
_diffrn_ambient_temperature      293
_diffrn_detector                 'Mar555 flat panel'
_diffrn_detector_type            'Mar555 flat panel'
_diffrn_measurement_device_type  'ESRF ID09A beamline'
_diffrn_radiation_monochromator  Si
_diffrn_radiation_polarisn_ratio 0.9900
_diffrn_radiation_probe          x-ray
_diffrn_radiation_wavelength     0.41421
_diffrn_source                   'ESRF ID09A'
_diffrn_source_type              synchrotron
_exptl_crystal_colour            colourless
_exptl_crystal_density_diffrn    4.5912
_exptl_crystal_description       'white powder'
_pd_block_id                     2020-10-21T10:50|clau1_006rietveld||id09a
_pd_calc_method                  'Rietveld Refinement'
_pd_meas_number_of_points        4000
_pd_phase_name                   claudetiteI
_pd_prep_pressure                100.0(1)
_pd_prep_temperature             293
_pd_proc_info_datetime           2020-10-21T10:50
_pd_proc_ls_background_function
;
Background function: "chebyschev" function with 20 terms:
    711.6(17), 367(9), -448(29), -8.6(9)e2, 1.256(12)e4, 6.63(25)e3, 
    -1.0537(9)e5, -1.266(9)e4, 4.1477(11)e5, -5.518(24)e4, -9.0932(3)e5, 
    3.1221(11)e5, 1.17520(10)e6, -6.3868(14)e5, -8.8473(13)e5, 
    6.6846(27)e5, 3.5422(5)e5, -3.5847(15)e5, -5.692(16)e4, 7.846(31)e4, 
;
_pd_proc_ls_pref_orient_corr
;
Simple spherical harmonic correction Order = 6
    Coefficients:  0:0:C(6,6) = 0.646(19); 0:0:C(4,4) = 1.049(26); 
    0:0:C(6,-2) = 0.105(21); 0:0:C(2,-2) = 0.380(14); 0:0:C(4,-4) = 0.176(18); 
    0:0:C(2,2) = 0.989(15); 0:0:C(4,0) = 0.373(18); 0:0:C(6,-6) = -0.398(25); 
    0:0:C(6,4) = -0.051(25); 0:0:C(4,2) = -0.042(17); 0:0:C(6,2) = 0.299(20); 
    0:0:C(6,-4) = -0.062(23); 0:0:C(6,0) = -0.125(24); 0:0:C(2,0) = 0.479(16); 
    0:0:C(4,-2) = -0.151(17); 
;
_pd_proc_ls_profile_function
;
Finger-Cox-Jephcoat function parameters U, V, W, X, Y, SH/L:
  peak variance(Gauss) = Utan(Th)^2^+Vtan(Th)+W:
  peak HW(Lorentz) = X/cos(Th)+Ytan(Th); SH/L = S/L+H/L
  U, V, W in (centideg)^2^, X & Y in centideg
    7.5(5)e2, -100(9), 4.7(4), 1.20(12), -18.2(29), 0.002, 
  Crystallite size in microns with "isotropic" model:
  parameters: Size, G/L mix
    1.000, 1.000, 
  Microstrain, "isotropic" model (10^6^ * delta Q/Q)
    parameters: Mustrain, G/L mix
    1000.000, 1.000, 

;
_pd_proc_ls_prof_R_factor        0.02139
_pd_proc_ls_prof_wR_expected     0.03543
_pd_proc_ls_prof_wR_factor       0.03361
_refine_ls_goodness_of_fit_all   0.975
_refine_ls_matrix_type           full
_refine_ls_number_parameters     62
_refine_ls_R_Fsqd_factor         0.76173
_refine_ls_shift/su_max          0.0006
_refine_ls_wR_factor_obs         0.03401
_reflns_d_resolution_high        1.192
_reflns_d_resolution_low         6.281
_reflns_limit_h_max              4
_reflns_limit_h_min              0
_reflns_limit_k_max              10
_reflns_limit_k_min              0
_reflns_limit_l_max              3
_reflns_limit_l_min              -3
_reflns_number_total             177
_cod_data_source_file            d0ce01401j3.cif
_cod_data_source_block           clau1_006rietveld
_cod_depositor_comments
'Adding full bibliography for 7241824--7241862.cif.'
_cod_original_cell_volume        286.221(17)
_cod_database_code               7241827
_refine_ls_r_f_factor            0.15332
_gsas_proc_ls_prof_r_b_factor    0.03803
_gsas_proc_ls_prof_wr_b_factor   0.05162
loop_
_space_group_symop_id
_space_group_symop_operation_xyz
1 x,y,z
2 1/2-x,1/2+y,1/2-z
3 -x,-y,-z
4 1/2+x,1/2-y,1/2+z
loop_
_atom_site_label
_atom_site_type_symbol
_atom_site_fract_x
_atom_site_fract_y
_atom_site_fract_z
_atom_site_occupancy
_atom_site_adp_type
_atom_site_U_iso_or_equiv
_atom_site_symmetry_multiplicity
As1 As 0.2595(13) 0.09607(21) 0.0373(6) 1.000 Uiso 0.0208(14) 4
As2 As 0.3541(11) 0.35465(25) 0.0013(6) 1.000 Uiso 0.0208 4
O3 O 0.4301(21) 0.2183(4) 0.0320(27) 1.000 Uiso 0.0208 4
O4 O 0.6592(20) 0.4084(14) 0.1411(13) 1.000 Uiso 0.0208 4
O5 O -0.0406(24) 0.1512(15) 0.1315(18) 1.000 Uiso 0.0208 4
loop_
_atom_type_symbol
_atom_type_number_in_cell
_atom_type_scat_Cromer_Mann_a1
_atom_type_scat_Cromer_Mann_a2
_atom_type_scat_Cromer_Mann_a3
_atom_type_scat_Cromer_Mann_a4
_atom_type_scat_Cromer_Mann_b1
_atom_type_scat_Cromer_Mann_b2
_atom_type_scat_Cromer_Mann_b3
_atom_type_scat_Cromer_Mann_b4
_atom_type_scat_Cromer_Mann_c
_atom_type_scat_length_neutron
_atom_type_scat_source
_atom_type_scat_dispersion_real
_atom_type_scat_dispersion_imag
_atom_type_scat_dispersion_source
As 8 16.6723 6.0701 3.4313 4.2779 2.6345 0.2647 12.9479 47.7972 2.531 0.658
https://subversion.xray.aps.anl.gov/pyGSAS/trunk/atmdata.py 0.283 0.775
https://subversion.xray.aps.anl.gov/pyGSAS/trunk/atmdata.py
O 12 3.0485 2.2868 1.5463 0.867 13.2771 5.7011 0.3239 32.9089 0.2508 0.5805
https://subversion.xray.aps.anl.gov/pyGSAS/trunk/atmdata.py 0.002 0.002
https://subversion.xray.aps.anl.gov/pyGSAS/trunk/atmdata.py
loop_
_geom_angle_atom_site_label_1
_geom_angle_atom_site_label_2
_geom_angle_atom_site_label_3
_geom_angle
_geom_angle_site_symmetry_1
_geom_angle_site_symmetry_2
_geom_angle_site_symmetry_3
_geom_angle_publ_flag
O3 As1 O4 96.8(8) 1_555 1_555 4_454 yes
O3 As1 O5 96.1(8) 1_555 1_555 1_555 yes
O4 As1 O5 93.2(4) 4_454 1_555 1_555 yes
O3 As2 O4 99.1(8) 1_555 1_555 1_555 yes
O3 As2 O5 87.1(8) 1_555 1_555 4_554 yes
O4 As2 O5 90.8(5) 1_555 1_555 4_554 yes
As1 O3 As2 137.6(6) 1_555 1_555 1_555 yes
As1 O4 As2 120.6(5) 4_555 1_555 1_555 yes
As1 O5 As2 122.6(6) 1_555 1_555 4_455 yes
loop_
_geom_bond_atom_site_label_1
_geom_bond_atom_site_label_2
_geom_bond_distance
_geom_bond_site_symmetry_1
_geom_bond_site_symmetry_2
_geom_bond_publ_flag
As1 O3 1.770(4) 1_555 1_555 yes
As1 O4 1.797(4) 1_555 4_454 yes
As1 O5 1.771(4) 1_555 1_555 yes
As2 O3 1.760(4) 1_555 1_555 yes
As2 O4 1.774(4) 1_555 1_555 yes
As2 O5 1.772(4) 1_555 4_554 yes
loop_
_pd_meas_2theta_scan
_pd_meas_intensity_total
_pd_calc_intensity_total
_pd_proc_intensity_bkg_calc
_pd_proc_ls_weight
0.00440 101.78335 0 0 0
0.01320 102.3243 0 0 0
0.02201 103.24665 0 0 0
0.03081 104.60636 0 0 0
0.03961 105.05966 0 0 0
0.04841 105.72053 0 0 0
0.05721 104.62384 0 0 0
0.06602 106.72646 0 0 0
0.07482 109.67107 0 0 0
0.08362 112.11884 0 0 0
0.09242 112.09715 0 0 0
0.10122 111.31848 0 0 0
0.11003 111.13425 0 0 0
0.11883 109.65724 0 0 0
0.12763 109.09651 0 0 0
0.13643 107.7009 0 0 0
0.14523 106.58202 0 0 0
0.15404 107.0385 0 0 0
0.16284 107.22581 0 0 0
0.17164 108.28771 0 0 0
0.18044 108.39333 0 0 0
0.18925 107.55262 0 0 0
0.19805 106.53901 0 0 0
0.20685 106.24509 0 0 0
0.21565 106.90681 0 0 0
0.22445 108.25337 0 0 0
0.23326 108.24582 0 0 0
0.24206 107.32819 0 0 0
0.25086 107.43606 0 0 0
0.25966 108.60125 0 0 0
0.26846 110.17792 0 0 0
0.27727 109.69807 0 0 0
0.28607 109.92343 0 0 0
0.29487 109.93593 0 0 0
0.30367 111.45898 0 0 0
0.31248 111.02677 0 0 0
0.32128 110.15611 0 0 0
0.33008 108.41803 0 0 0
0.33888 107.54334 0 0 0
0.34768 108.17498 0 0 0
0.35649 109.22713 0 0 0
0.36529 110.05588 0 0 0
0.37409 109.62875 0 0 0
0.38289 109.39959 0 0 0
0.39169 110.05015 0 0 0
0.40050 110.45498 0 0 0
0.40930 109.70219 0 0 0
0.41810 108.76964 0 0 0
0.42690 108.82188 0 0 0
0.43570 109.11565 0 0 0
0.44451 109.36022 0 0 0
0.45331 109.75388 0 0 0
0.46211 109.17326 0 0 0
0.47091 108.30596 0 0 0
0.47972 108.67769 0 0 0
0.48852 109.36772 0 0 0
0.49732 110.20985 0 0 0
0.50612 110.48186 0 0 0
0.51492 110.67545 0 0 0
0.52373 109.96757 0 0 0
0.53253 109.4267 0 0 0
0.54133 109.62968 0 0 0
0.55013 110.43462 0 0 0
0.55893 110.86137 0 0 0
0.56774 110.68843 0 0 0
0.57654 110.53437 0 0 0
0.58534 110.42455 0 0 0
0.59414 109.71349 0 0 0
0.60295 109.30515 0 0 0
0.61175 109.51443 0 0 0
0.62055 109.22332 0 0 0
0.62935 109.10814 0 0 0
0.63815 109.8306 0 0 0
0.64696 109.71882 0 0 0
0.65576 109.81966 0 0 0
0.66456 110.47285 0 0 0
0.67336 111.07656 0 0 0
0.68216 111.35526 0 0 0
0.69097 110.96883 0 0 0
0.69977 110.95029 0 0 0
0.70857 110.50186 0 0 0
0.71737 110.31323 0 0 0
0.72617 110.37862 0 0 0
0.73498 110.45741 0 0 0
0.74378 109.99741 0 0 0
0.75258 110.06744 0 0 0
0.76138 110.71551 0 0 0
0.77019 111.67641 0 0 0
0.77899 111.40101 0 0 0
0.78779 111.08402 0 0 0
0.79659 110.52685 0 0 0
0.80539 111.16224 0 0 0
0.81420 112.61707 0 0 0
0.82300 114.1996 0 0 0
0.83180 114.55509 0 0 0
0.84060 114.50665 0 0 0
0.84940 115.67676 0 0 0
0.85821 116.58521 0 0 0
0.86701 117.74602 0 0 0
0.87581 116.95079 0 0 0
0.88461 117.54494 0 0 0
0.89342 118.40592 0 0 0
0.90222 119.52611 0 0 0
0.91102 120.15002 0 0 0
0.91982 121.08029 0 0 0
0.92862 123.87296 0 0 0
0.93743 126.83018 0 0 0
0.94623 129.65625 0 0 0
0.95503 131.00758 0 0 0
0.96383 131.94444 0 0 0
0.97263 131.75914 0 0 0
0.98144 134.09525 0 0 0
0.99024 135.08531 0 0 0
0.99904 137.01309 0 0 0
1.00784 141.25298 0 0 0
1.01664 146.56699 0 0 0
1.02545 150.71777 0 0 0
1.03425 157.68387 0 0 0
1.04305 163.40335 0 0 0
1.05185 171.7803 0 0 0
1.06066 176.9436 0 0 0
1.06946 188.38153 0 0 0
1.07826 195.50006 0 0 0
1.08706 200.97632 0 0 0
1.09586 202.72655 0 0 0
1.10467 207.51176 0 0 0
1.11347 213.54019 0 0 0
1.12227 220.10397 0 0 0
1.13107 225.39577 0 0 0
1.13987 230.10472 0 0 0
1.14868 233.8358 0 0 0
1.15748 236.3447 0 0 0
1.16628 237.49571 0 0 0
1.17508 240.28899 0 0 0
1.18389 242.76814 0 0 0
1.19269 246.39388 0 0 0
1.20149 248.3203 0 0 0
1.21029 250.52132 0 0 0
1.21909 251.91422 0 0 0
1.22790 255.19704 0 0 0
1.23670 257.97113 0 0 0
1.24550 260.37997 0 0 0
1.25430 262.25763 0 0 0
1.26310 264.26025 0 0 0
1.27191 266.31781 0 0 0
1.28071 267.39984 0 0 0
1.28951 269.49231 0 0 0
1.29831 271.517 0 0 0
1.30711 272.63135 0 0 0
1.31592 272.8609 0 0 0
1.32472 274.46222 0 0 0
1.33352 277.63611 0 0 0
1.34232 278.98917 0 0 0
1.35113 279.9808 0 0 0
1.35993 280.72394 0 0 0
1.36873 282.56378 0 0 0
1.37753 284.66461 0 0 0
1.38633 286.35202 0 0 0
1.39514 287.1857 0 0 0
1.40394 287.64032 0 0 0
1.41274 289.52432 0 0 0
1.42154 291.11432 0 0 0
1.43034 292.08026 0 0 0
1.43915 293.25806 0 0 0
1.44795 295.55698 0 0 0
1.45675 297.02792 0 0 0
1.46555 297.64816 0 0 0
1.47436 298.31668 0 0 0
1.48316 299.11795 0 0 0
1.49196 300.51471 0 0 0
1.50076 302.49002 0 0 0
1.50956 303.89716 0 0 0
1.51837 304.55011 0 0 0
1.52717 305.69 0 0 0
1.53597 306.5582 0 0 0
1.54477 306.995 0 0 0
1.55357 307.45462 0 0 0
1.56238 308.29257 0 0 0
1.57118 309.84967 0 0 0
1.57998 310.36823 0 0 0
1.58878 312.05072 0 0 0
1.59758 312.69293 0 0 0
1.60639 314.22729 0 0 0
1.61519 315.49847 0 0 0
1.62399 316.5441 0 0 0
1.63279 316.62265 0 0 0
1.64160 317.13431 0 0 0
1.65040 317.78387 0 0 0
1.65920 318.85516 0 0 0
1.66800 319.69321 0 0 0
1.67680 320.83563 0 0 0
1.68561 322.53674 0 0 0
1.69441 322.7692 0 0 0
1.70321 322.69638 0 0 0
1.71201 322.94232 0 0 0
1.72081 323.58133 0 0 0
1.72962 324.08456 0 0 0
1.73842 325.39117 0 0 0
1.74722 326.80347 0 0 0
1.75602 327.58182 0 0 0
1.76483 328.69058 0 0 0
1.77363 329.48633 0 0 0
1.78243 329.74539 0 0 0
1.79123 329.82083 0 0 0
1.80003 331.38638 0 0 0
1.80884 331.97736 0 0 0
1.81764 332.93835 0 0 0
1.82644 333.73459 0 0 0
1.83524 335.37476 0 0 0
1.84404 337.11227 0 0 0
1.85285 337.46725 0 0 0
1.86165 337.84521 0 0 0
1.87045 338.04871 0 0 0
1.87925 339.91415 0 0 0
1.88805 340.30347 0 0 0
1.89686 340.46649 0 0 0
1.90566 340.51236 0 0 0
1.91446 342.08066 0 0 0
1.92326 343.52631 0 0 0
1.93207 343.42526 0 0 0
1.94087 342.68124 0 0 0
1.94967 343.11276 0 0 0
1.95847 344.58215 0 0 0
1.96727 345.85202 0 0 0
1.97608 346.17331 0 0 0
1.98488 345.8418 0 0 0
1.99368 346.10345 0 0 0
2.00248 347.46442 0 0 0
2.01128 347.99683 0 0 0
2.02009 348.61203 0 0 0
2.02889 348.51529 0 0 0
2.03769 349.65649 0 0 0
2.04649 350.18857 0 0 0
2.05530 350.72211 0 0 0
2.06410 351.61166 0 0 0
2.07290 352.08017 0 0 0
2.08170 352.64621 0 0 0
2.09050 352.78769 0 0 0
2.09931 353.95242 0 0 0
2.10811 354.65393 0 0 0
2.11691 355.86194 0 0 0
2.12571 356.78366 0 0 0
2.13451 356.4873 0 0 0
2.14332 356.75864 0 0 0
2.15212 357.50452 0 0 0
2.16092 358.33694 0 0 0
2.16972 358.99323 0 0 0
2.17852 358.35657 0 0 0
2.18733 358.23865 0 0 0
2.19613 358.80029 0 0 0
2.20493 360.82556 0 0 0
2.21373 361.55008 0 0 0
2.22254 361.51889 0 0 0
2.23134 361.91861 0 0 0
2.24014 363.3602 0 0 0
2.24894 364.00168 0 0 0
2.25774 364.4068 0 0 0
2.26655 365.11469 0 0 0
2.27535 365.67865 0 0 0
2.28415 366.15717 0 0 0
2.29295 366.79361 0 0 0
2.30175 366.21021 0 0 0
2.31056 366.57935 0 0 0
2.31936 366.36774 0 0 0
2.32816 366.86841 0 0 0
2.33696 367.64651 0 0 0
2.34576 369.17212 0 0 0
2.35457 370.9082 0 0 0
2.36337 371.63818 0 0 0
2.37217 371.45285 0 0 0
2.38097 370.98608 0 0 0
2.38978 371.69601 0 0 0
2.39858 373.43295 0 0 0
2.40738 374.36267 0 0 0
2.41618 373.39514 0 0 0
2.42498 373.07693 0 0 0
2.43379 373.06821 0 0 0
2.44259 374.33914 0 0 0
2.45139 374.65851 0 0 0
2.46019 374.65872 0 0 0
2.46899 374.80386 0 0 0
2.47780 375.56604 0 0 0
2.48660 376.32797 0 0 0
2.49540 376.4761 0 0 0
2.50420 377.24521 0 0 0
2.51301 378.15909 0 0 0
2.52181 378.72104 0 0 0
2.53061 378.38486 0 0 0
2.53941 377.70407 0 0 0
2.54821 378.24863 0 0 0
2.55702 378.95541 0 0 0
2.56582 379.40744 0 0 0
2.57462 379.96933 0 0 0
2.58342 380.95059 0 0 0
2.59222 381.18454 0 0 0
2.60103 380.86664 0 0 0
2.60983 381.69437 0 0 0
2.61863 382.5213 0 0 0
2.62743 382.48328 0 0 0
2.63624 382.79321 0 0 0
2.64504 383.87592 0 0 0
2.65384 384.27673 0 0 0
2.66264 383.62067 390.717389 390.684358 0.002606742
2.67144 383.98764 390.348994 390.315611 0.00260425
2.68025 384.27972 390.020135 389.986395 0.002602271
2.68905 384.95541 389.729496 389.695391 0.002597703
2.69785 385.86786 389.475811 389.441335 0.002591561
2.70665 386.06195 389.257827 389.222972 0.002590258
2.71545 386.06815 389.0743 389.039059 0.002590216
2.72426 386.72287 388.92402 388.888386 0.002585831
2.73306 387.25235 388.80578 388.769746 0.002582295
2.74186 387.56104 388.718409 388.681966 0.002580239
2.75066 387.62646 388.66075 388.62389 0.002579803
2.75946 387.73523 388.631669 388.594384 0.00257908
2.76827 388.32645 388.630049 388.592331 0.002575153
2.77707 388.91507 388.654801 388.616641 0.002571255
2.78587 389.26828 388.704851 388.666239 0.002568922
2.79467 389.8862 388.77915 388.740077 0.002564851
2.80348 389.9061 388.876672 388.837128 0.00256472
2.81228 389.84543 388.99641 388.956386 0.002565119
2.82108 390.50073 389.13738 389.096865 0.002560815
2.82988 390.97702 389.298613 389.257596 0.002557695
2.83868 391.50363 389.47918 389.43765 0.002554255
2.84749 392.18365 389.678156 389.636103 0.002549826
2.85629 393.01099 389.894645 389.852055 0.002544458
2.86509 393.26514 390.127768 390.08463 0.002542814
2.87389 392.97809 390.37667 390.332972 0.002544671
2.88269 393.60818 390.640525 390.596254 0.002540598
2.89150 394.03586 390.918523 390.873664 0.00253784
2.90030 395.0303 391.209872 391.164412 0.002531451
2.90910 395.67953 391.513791 391.467716 0.002527298
2.91790 395.78513 391.829555 391.782849 0.002526623
2.92670 395.74185 392.156428 392.109075 0.0025269
2.93551 396.38623 392.493702 392.445687 0.002522792
2.94431 396.42944 392.840682 392.791988 0.002522517
2.95311 396.54672 393.196725 393.147335 0.002521771
2.96191 397.33112 393.561171 393.511066 0.002516793
2.97072 398.1778 393.933405 393.882566 0.002511441
2.97952 397.74857 394.312815 394.261224 0.002514151
2.98832 397.58514 394.698804 394.646439 0.002515185
2.99712 398.19955 395.090831 395.037672 0.002511304
3.00592 398.58206 395.488336 395.434361 0.002508894
3.01473 398.67935 395.890789 395.835975 0.002508281
3.02353 399.09259 396.297668 396.24199 0.002505684
3.03233 399.46375 396.708507 396.651941 0.002503356
3.04113 399.60944 397.122818 397.065338 0.002502443
3.04993 399.55237 397.540141 397.481719 0.002502801
3.05874 399.68045 397.960036 397.900644 0.002501999
3.06754 400.09262 398.38209 398.321699 0.002499421
3.07634 400.31033 398.8059 398.744478 0.002498062
3.08514 400.07541 399.231071 399.168585 0.002499529
3.09395 400.40442 399.657216 399.593633 0.002497475
3.10275 401.51462 400.084009 400.019293 0.002490569
3.11155 402.367 400.511094 400.445207 0.002485293
3.12035 402.67056 400.938146 400.871048 0.00248342
3.12915 403.202 401.364849 401.2965 0.002480146
3.13796 403.55185 401.790909 401.721265 0.002477996
3.14676 403.34961 402.216055 402.145069 0.002479239
3.15556 403.43002 402.640019 402.567644 0.002478745
3.16436 403.77988 403.062543 402.988728 0.002476597
3.17316 404.46432 403.494491 403.408066 0.002472406
3.18197 404.94351 403.913511 403.825458 0.00246948
3.19077 405.60233 404.330416 404.240672 0.002465469
3.19957 405.89816 404.745004 404.653506 0.002463672
3.20837 406.871 405.157074 405.063755 0.002457781
3.21717 407.60147 405.566479 405.471266 0.002453377
3.22598 407.76749 405.973036 405.875853 0.002452378
3.23478 407.50018 406.376604 406.277369 0.002453987
3.24358 407.1326 406.777036 406.675664 0.002456202
3.25238 407.07782 407.17419 407.07059 0.002456533
3.26119 407.05551 407.567974 407.462048 0.002456667
3.26999 407.26608 407.958267 407.849911 0.002455397
3.27879 408.32077 408.344972 408.234075 0.002449055
3.28759 408.80099 408.727987 408.614431 0.002446178
3.29639 408.40515 409.107262 408.99092 0.002448549
3.30520 408.19604 409.482712 409.363447 0.002449803
3.31400 408.67838 409.854286 409.731953 0.002446912
3.32280 409.1109 410.221923 410.096365 0.002444325
3.33160 409.49872 410.585596 410.456645 0.00244201
3.34040 409.7338 410.945274 410.812747 0.002440609
3.34921 408.98788 411.300932 411.164633 0.00244506
3.35801 409.39737 411.652556 411.512272 0.002442615
3.36681 409.93619 412.00013 411.855632 0.002439404
3.37561 410.73196 412.343683 412.19472 0.002434678
3.38442 410.74518 412.683212 412.529512 0.002434599
3.39322 411.02139 413.018747 412.860015 0.002432963
3.40202 411.74829 413.350307 413.186219 0.002428668
3.41082 411.97314 413.677943 413.508146 0.002427343
3.41962 412.56256 414.001705 413.825811 0.002423875
3.42843 412.74448 414.321648 414.13923 0.002422806
3.43723 413.99054 414.637829 414.448419 0.002415514
3.44603 414.4523 414.950351 414.753428 0.002412823
3.45483 413.99933 415.259291 415.054282 0.002415463
3.46363 413.88831 415.564755 415.351021 0.002416111
3.47244 413.75677 415.866847 415.643678 0.002416879
3.48124 413.99805 416.16572 415.93232 0.00241547
3.49004 414.62979 416.461506 416.216986 0.00241179
3.49884 414.67145 416.754379 416.497736 0.002411548
3.50764 414.02133 417.044525 416.774627 0.002415334
3.51645 414.67172 417.338113 417.047709 0.002411546
3.52525 415.34979 417.623511 417.317066 0.002407609
3.53405 416.23013 417.906912 417.582756 0.002402517
3.54285 416.10809 418.188634 417.844849 0.002403222
3.55166 415.8815 418.469037 418.103408 0.002404531
3.56046 415.93741 418.74857 418.358525 0.002404208
3.56926 416.1749 419.027727 418.610266 0.002402836
3.57806 417.05927 419.30712 418.858714 0.002397741
3.58686 417.29471 419.58746 419.103942 0.002396388
3.59567 417.34503 419.869641 419.346039 0.002396099
3.60447 417.75 420.154741 419.58509 0.002393776
3.61327 418.46112 420.444102 419.821176 0.002389708
3.62207 418.6608 420.739421 420.054383 0.002388569
3.63087 418.40594 421.042852 420.28479 0.002390023
3.63968 418.7413 421.357229 420.512501 0.002388109
3.64848 419.75043 421.686245 420.737594 0.002382368
3.65728 420.53415 422.034886 420.960162 0.002377928
3.66608 420.37366 422.409951 421.18029 0.002378836
3.67489 420.33878 422.82102 421.398073 0.002379033
3.68369 420.85168 423.282062 421.613603 0.002376134
3.69249 421.7099 423.815489 421.826966 0.002371298
3.70129 421.41492 424.464526 422.038248 0.002372958
3.71009 422.36963 425.332133 422.247552 0.002367594
3.71890 422.59003 426.681749 422.454963 0.00236636
3.72770 423.05203 429.123189 422.660566 0.002363775
3.73650 424.00128 433.781948 422.864453 0.002358483
3.74530 427.14386 442.115598 423.06672 0.002341132
3.75410 435.61749 454.995562 423.267448 0.002295592
3.76291 449.03967 471.15257 423.46673 0.002226975
3.77171 486.65701 485.50738 423.664651 0.002054835
3.78051 497.32498 489.579781 423.861291 0.002010758
3.78931 478.44431 480.22309 424.05675 0.002090107
3.79811 446.07526 464.521994 424.251105 0.002241774
3.80692 435.64725 449.88185 424.444441 0.002295435
3.81572 429.58676 439.470513 424.636834 0.002327818
3.82452 426.82932 433.373716 424.828378 0.002342857
3.83332 425.72815 430.290361 425.019145 0.002348917
3.84213 425.97336 428.849538 425.20922 0.002347565
3.85093 426.53983 428.168458 425.398673 0.002344447
3.85973 426.19638 427.821404 425.587589 0.002346336
3.86853 426.11624 427.63592 425.776041 0.002346777
3.87733 426.83411 427.544103 425.964102 0.002342831
3.88614 427.03262 427.514904 426.151845 0.002341741
3.89494 426.81732 427.53069 426.339334 0.002342923
3.90374 426.66125 427.579955 426.526652 0.00234378
3.91254 426.98251 427.654684 426.713857 0.002342016
3.92134 427.45123 427.749133 426.90102 0.002339448
3.93015 428.02362 427.859112 427.0882 0.00233632
3.93895 428.51822 427.981517 427.275466 0.002333623
3.94775 429.13647 428.114001 427.462879 0.002330261
3.95655 429.11142 428.254776 427.650497 0.002330397
3.96535 429.51596 428.402461 427.838371 0.002328202
3.97416 429.82968 428.555992 428.026571 0.002326503
3.98296 431.11652 428.714519 428.215144 0.002319559
3.99176 431.13229 428.877373 428.404142 0.002319474
4.00056 430.71429 429.044021 428.593619 0.002321725
4.00937 429.8483 429.214033 428.783619 0.002326402
4.01817 430.35388 429.387074 428.974201 0.002323669
4.02697 430.33243 429.562847 429.165392 0.002323785
4.03577 430.11749 429.741136 429.357247 0.002324946
4.04457 430.06665 429.921767 429.54982 0.002325221
4.05338 430.83453 430.104565 429.743127 0.002321077
4.06218 431.87744 430.289419 429.937218 0.002315472
4.07098 432.3024 430.476238 430.132142 0.002313196
4.07978 432.25488 430.66492 430.327913 0.00231345
4.08858 432.33746 430.855414 430.524583 0.002313008
4.09739 432.52524 431.047647 430.722164 0.002312004
4.10619 432.78635 431.241584 430.920698 0.002310609
4.11499 432.71716 431.437197 431.12022 0.002310978
4.12379 432.9451 431.634436 431.320737 0.002309762
4.13260 433.94604 431.833289 431.522287 0.002304434
4.14140 434.20917 432.033744 431.724899 0.002303037
4.15020 434.46457 432.235766 431.928574 0.002301684
4.15900 434.46921 432.439365 432.133356 0.002301659
4.16780 435.66583 432.651154 432.339241 0.002295337
4.17661 436.62552 432.857895 432.546253 0.002290292
4.18541 436.07413 433.066191 432.754421 0.002293188
4.19421 435.66473 433.276016 432.963737 0.002295343
4.20301 435.39227 433.487386 433.174231 0.002296779
4.21181 435.61307 433.700277 433.385894 0.002295615
4.22062 435.98892 433.914699 433.598744 0.002293636
4.22942 436.24072 434.130666 433.812806 0.002292312
4.23822 436.51639 434.348147 434.028054 0.002290865
4.24702 437.31274 434.567157 434.244509 0.002286693
4.25582 438.09433 434.787706 434.462186 0.002282613
4.26463 438.27478 435.009773 434.681064 0.002281674
4.27343 437.97275 435.233378 434.901164 0.002283247
4.28223 437.85712 435.458496 435.122463 0.00228385
4.29103 437.86539 435.685144 435.344974 0.002283807
4.29984 437.68201 435.913329 435.568701 0.002284764
4.30864 437.89615 436.143027 435.793616 0.002283646
4.31744 438.71603 436.374265 436.01974 0.002279379
4.32624 439.9447 436.607018 436.247043 0.002273013
4.33504 440.65857 436.841295 436.475525 0.002269331
4.34385 440.51031 437.077112 436.705192 0.002270094
4.35265 439.95486 437.314447 436.936011 0.00227296
4.36145 440.70251 437.553307 437.16798 0.002269104
4.37025 441.58704 437.79371 437.401101 0.002264559
4.37905 441.28729 438.035632 437.635335 0.002266097
4.38786 440.78409 438.279105 437.870699 0.002268684
4.39666 441.16428 438.5241 438.107146 0.002266729
4.40546 442.12881 438.770637 438.344675 0.002261784
4.41426 442.31696 439.018736 438.583285 0.002260822
4.42307 442.42081 439.268379 438.822934 0.002260292
4.43187 442.68658 439.519595 439.063627 0.002258935
4.44067 442.68185 439.773743 439.30532 0.002258959
4.44947 442.51169 440.028115 439.54801 0.002259827
4.45827 442.9469 440.284097 439.791686 0.002257607
4.46708 443.82117 440.54168 440.036304 0.00225316
4.47588 444.28812 440.800898 440.281859 0.002250792
4.48468 444.24445 441.061784 440.528337 0.002251013
4.49348 445.50012 441.324337 440.775693 0.002244668
4.50228 445.87659 441.588616 441.023931 0.002242773
4.51109 446.64273 441.854627 441.273004 0.002238926
4.51989 446.05832 442.12242 441.522897 0.002241859
4.52869 445.776 442.392056 441.773604 0.002243279
4.53749 445.36661 442.663558 442.025075 0.002245341
4.54630 445.612 442.937011 442.277309 0.002244105
4.55510 446.05646 443.21245 442.530256 0.002241869
4.56390 446.70322 443.489968 442.783906 0.002238623
4.57270 447.37704 443.769668 443.038251 0.002235251
4.58150 446.67044 444.051608 443.293231 0.002238787
4.59031 447.36212 444.335917 443.548839 0.002235326
4.59911 447.81879 444.622736 443.805065 0.002233046
4.60791 449.01089 444.912175 444.061856 0.002227117
4.61671 449.56808 445.204423 444.319212 0.002224357
4.62551 449.62857 445.499631 444.577079 0.002224058
4.63432 450.0708 445.798026 444.835451 0.002221873
4.64312 450.44183 446.099853 445.094311 0.002220042
4.65192 451.13852 446.405352 445.353607 0.002216614
4.66072 450.92255 446.71485 445.613332 0.002217676
4.66952 450.73447 447.028709 445.87347 0.002218601
4.67833 450.96841 447.3473 446.133968 0.00221745
4.68713 450.91742 447.67112 446.394833 0.002217701
4.69593 451.38199 448.000677 446.656013 0.002215418
4.70473 451.72543 448.336593 446.917493 0.002213734
4.71354 451.43243 448.679607 447.179266 0.002215171
4.72234 451.3338 449.040155 447.441279 0.002215655
4.73114 451.43259 449.400052 447.703541 0.00221517
4.73994 452.18848 449.76996 447.965993 0.002211467
4.74874 452.66547 450.151241 448.22863 0.002209137
4.75755 452.95197 450.545513 448.491445 0.00220774
4.76635 453.03076 450.954641 448.754388 0.002207356
4.77515 453.46417 451.380901 449.017448 0.002205246
4.78395 453.97958 451.827056 449.28062 0.002202742
4.79275 453.95386 452.296391 449.543857 0.002202867
4.80156 454.17325 452.792992 449.807162 0.002201803
4.81036 454.95816 453.321792 450.070489 0.002198004
4.81916 455.67532 453.889016 450.333836 0.002194545
4.82796 455.76489 454.50246 450.597192 0.002194114
4.83676 456.77194 455.171874 450.860514 0.002189276
4.84557 458.14395 455.909911 451.123812 0.00218272
4.85437 459.41092 456.732838 451.387042 0.002176701
4.86317 459.58136 457.662071 451.650197 0.002175893
4.87197 460.29587 458.726289 451.913278 0.002172516
4.88078 460.7916 459.964119 452.176243 0.002170178
4.88958 462.04697 461.429192 452.439086 0.002164282
4.89838 462.80167 463.197251 452.70181 0.002160753
4.90718 464.42395 465.377588 452.964372 0.002153205
4.91598 466.34134 468.136215 453.226792 0.002144352
4.92479 470.17905 471.750644 453.48902 0.002126849
4.93359 476.95575 476.800511 453.751064 0.002096631
4.94239 490.15833 484.812312 454.012927 0.002040157
4.95119 516.73682 499.96705 454.274572 0.001935221
4.95999 572.5614 531.917116 454.536012 0.001746538
4.96880 667.89349 596.680394 454.797213 0.001497245
4.97760 806.68817 708.978763 455.058183 0.001239636
4.98640 955.18329 862.928625 455.318924 0.001046919
4.99520 1036.7546 1007.05214 455.579401 0.000964548
5.00401 1023.1708 1042.160831 455.839628 0.000977354
5.01281 891.71863 935.140295 456.099606 0.00112143
5.02161 729.26459 776.191264 456.359304 0.001371244
5.03041 611.23859 642.772026 456.618749 0.001636022
5.03921 541.73499 558.25928 456.877909 0.001845921
5.04802 506.44702 514.273052 457.136792 0.00197454
5.05682 489.71573 493.692818 457.395413 0.002042001
5.06562 480.15787 483.76713 457.653741 0.002082648
5.07442 474.83444 478.20405 457.911808 0.002105997
5.08322 471.43863 474.577534 458.16958 0.002121167
5.09203 470.31519 472.008834 458.427076 0.002126234
5.10083 470.7374 470.123443 458.68431 0.002124327
5.10963 470.18237 468.716382 458.941261 0.002126834
5.11843 468.83005 467.656489 459.197939 0.002132969
5.12723 467.7283 466.854705 459.454367 0.002137993
5.13604 466.94574 466.24877 459.710523 0.002141576
5.14484 466.57242 465.793853 459.966435 0.00214329
5.15364 466.42178 465.457326 460.222084 0.002143982
5.16244 466.72305 465.214824 460.477493 0.002142598
5.17125 466.89093 465.047938 460.73268 0.002141828
5.18005 467.41107 464.942609 460.987626 0.002139444
5.18885 467.24252 464.887882 461.242356 0.002140216
5.19765 467.19443 464.875169 461.496895 0.002140436
5.20645 467.45609 464.897662 461.75122 0.002139238
5.21526 467.62097 464.949909 462.005374 0.002138484
5.22406 467.47052 465.027513 462.259342 0.002139172
5.23286 467.24887 465.12689 462.513145 0.002140187
5.24166 467.48782 465.245126 462.766814 0.002139093
5.25046 467.69595 465.379805 463.020334 0.002138141
5.25927 467.47659 465.674539 463.273751 0.002139145
5.26807 467.77237 465.837616 463.527046 0.002137792
5.27687 468.6662 466.012157 463.780251 0.002133715
5.28567 469.67188 466.197042 464.033396 0.002129146
5.29448 470.25412 466.418016 464.286474 0.00212651
5.30328 470.01172 466.621121 464.53951 0.002127607
5.31208 469.86731 466.832239 464.792539 0.00212826
5.32088 470.11856 467.050841 465.045555 0.002127123
5.32968 470.91934 467.276564 465.298599 0.002123506
5.33849 470.9425 467.509079 465.551665 0.002123401
5.34729 471.42688 467.748199 465.804792 0.00212122
5.35609 471.92801 467.993825 466.058007 0.002118967
5.36489 472.34277 468.245887 466.311308 0.002117107
5.37369 471.74643 468.504476 466.564745 0.002119783
5.38250 471.56223 468.769691 466.818313 0.002120611
5.39130 472.68112 469.041773 467.072045 0.002115591
5.40010 473.72372 469.321064 467.325981 0.002110935
5.40890 473.87354 469.607956 467.580117 0.002110268
5.41770 473.96399 469.903018 467.834493 0.002109865
5.42651 474.12109 470.206953 468.089143 0.002109166
5.43531 474.36984 470.520579 468.344066 0.00210806
5.44411 474.62411 470.844974 468.599317 0.00210693
5.45291 475.3226 471.181378 468.854895 0.002103834
5.46172 475.58267 471.531367 469.110835 0.002102684
5.47052 475.87384 471.89688 469.367182 0.002101397
5.47932 476.367 472.280222 469.623936 0.002099222
5.48812 477.33704 472.685122 469.881147 0.002094956
5.49692 477.86493 473.113598 470.138817 0.002092642
5.50573 477.17981 473.571004 470.396992 0.002095646
5.51453 476.40067 474.078899 470.655708 0.002099073
5.52333 477.13565 474.613067 470.914967 0.00209584
5.53213 477.96198 475.198752 471.174814 0.002092217
5.54093 478.58371 475.848472 471.435293 0.002089499
5.54974 478.79007 476.578739 471.6964 0.002088598
5.55854 479.38419 477.412114 471.958196 0.00208601
5.56734 480.06735 478.379501 472.220684 0.002083041
5.57614 480.58728 479.524396 472.483902 0.002080787
5.58495 480.51343 480.909617 472.747899 0.002081107
5.59375 480.03574 482.628398 473.012674 0.002083178
5.60255 480.81003 484.82784 473.278292 0.002079824
5.61135 482.20828 487.775767 473.544745 0.002073793
5.62015 483.11502 492.111627 473.812082 0.0020699
5.62896 484.07513 499.674043 474.08035 0.002065795
5.63776 486.81039 515.416972 474.349551 0.002054188
5.64656 492.70377 549.476993 474.619725 0.002029617
5.65536 514.59412 614.77148 474.890921 0.001943279
5.66416 578.87006 714.748971 475.163141 0.001727503
5.67297 686.95532 823.289997 475.436443 0.001455699
5.68177 750.09015 871.066245 475.710827 0.001333173
5.69057 698.3606 811.316101 475.986344 0.001431925
5.69937 593.99829 701.40239 476.263034 0.001683507
5.70817 527.43384 605.939873 476.540898 0.001895972
5.71698 502.90747 545.915548 476.819983 0.001988437
5.72578 493.81595 515.604666 477.100339 0.002025046
5.73458 489.68655 501.994242 477.381957 0.002042123
5.74338 487.29959 495.650416 477.664903 0.002052126
5.75219 487.16144 492.173027 477.949174 0.002052708
5.76099 487.57269 489.964012 478.234821 0.002050976
5.76979 487.24771 488.462925 478.521882 0.002052344
5.77859 486.75449 487.42689 478.810357 0.002054424
5.78739 486.77209 486.719784 479.10031 0.00205435
5.79620 486.67709 486.255451 479.391738 0.002054751
5.80500 487.16794 485.97666 479.684682 0.00205268
5.81380 487.68442 485.845048 479.97919 0.002050506
5.82260 487.7774 485.835111 480.27526 0.002050115
5.83140 488.3533 485.93057 480.572931 0.002047698
5.84021 489.00076 486.122432 480.87225 0.002044987
5.84901 489.98383 486.40794 481.173216 0.002040884
5.85781 489.72629 486.790534 481.475881 0.002041957
5.86661 490.242 487.280502 481.780244 0.002039809
5.87541 490.31427 487.896976 482.086347 0.002039508
5.88422 491.0498 488.671414 482.394238 0.002036453
5.89302 492.05167 489.653856 482.703901 0.002032307
5.90182 493.70926 490.927261 483.0154 0.002025484
5.91062 494.98227 492.649695 483.328729 0.002020274
5.91943 497.73166 495.217164 483.643923 0.002009115
5.92823 503.87582 499.800675 483.961029 0.001984616
5.93703 516.79211 509.531671 484.280034 0.001935014
5.94583 539.70508 530.568639 484.600983 0.001852864
5.95463 582.46991 569.964825 484.923912 0.001716827
5.96344 644.00092 627.499492 485.248809 0.001552793
5.97224 704.48224 683.552021 485.575735 0.001419482
5.98104 717.24164 696.030057 485.904677 0.00139423
5.98984 671.09015 652.187976 486.235668 0.001490113
5.99864 602.29224 591.999211 486.568751 0.001660324
6.00745 547.07141 545.331283 486.903913 0.001827915
6.01625 519.66974 518.420385 487.241204 0.001924299
6.02505 507.70758 505.756035 487.58061 0.001969638
6.03385 502.5506 500.267397 487.922171 0.001989849
6.04266 500.57581 497.688058 488.265919 0.001997699
6.05146 499.19183 496.257813 488.611835 0.002003238
6.06026 498.5076 495.374529 488.959957 0.002005987
6.06906 498.44629 494.817458 489.310325 0.002006234
6.07786 498.8378 494.480218 489.662908 0.00200466
6.08667 498.96631 494.299021 490.017764 0.002004143
6.09547 498.76541 494.232149 490.374869 0.002004951
6.10427 498.89084 494.251128 490.734261 0.002004447
6.11307 499.2569 494.336035 491.095966 0.002002977
6.12187 499.81653 494.472613 491.459961 0.002000734
6.13068 499.84775 494.650462 491.8263 0.002000609
6.13948 500.08093 494.861834 492.194956 0.001999676
6.14828 500.00323 495.100894 492.565954 0.001999987
6.15708 499.91968 495.363198 492.93933 0.002000321
6.16589 500.44147 495.645272 493.315055 0.001998236
6.17469 501.46753 495.944423 493.693152 0.001994147
6.18349 502.28024 496.258548 494.073655 0.00199092
6.19229 502.38437 496.585932 494.456535 0.001990508
6.20109 502.43747 496.925262 494.841832 0.001990297
6.20990 502.42648 497.275436 495.229514 0.001990341
6.21870 503.36005 497.635623 495.61961 0.00198665
6.22750 503.75827 498.005179 496.012151 0.001985079
6.23630 503.97101 498.383532 496.40709 0.001984241
6.24510 504.22595 498.770314 496.804456 0.001983238
6.25391 505.02832 499.16527 497.20428 0.001980087
6.26271 505.57599 499.568165 497.606512 0.001977942
6.27151 506.42804 499.97896 498.011203 0.001974614
6.28031 507.46896 500.397609 498.418308 0.001970564
6.28911 507.60672 500.824228 498.827856 0.001970029
6.29792 507.05267 501.259019 499.239862 0.001972182
6.30672 507.17334 501.702217 499.654282 0.001971712
6.31552 507.86206 502.154268 500.071163 0.001969039
6.32432 507.91364 502.615646 500.490459 0.001968839
6.33313 508.77997 503.087035 500.912183 0.001965486
6.34193 509.64417 503.569317 501.336359 0.001962153
6.35073 510.57449 504.063506 501.76294 0.001958578
6.35953 511.20755 504.570958 502.191936 0.001956153
6.36833 510.7699 505.093383 502.623372 0.001957829
6.37714 510.10892 505.632837 503.057196 0.001960366
6.38594 510.66891 506.192057 503.493441 0.001958216
6.39474 512.3139 506.774401 503.932056 0.001951928
6.40354 513.2691 507.384321 504.373056 0.001948296
6.41234 512.89777 508.027631 504.816464 0.001949706
6.42115 512.92249 508.711873 505.262209 0.001949612
6.42995 513.76031 509.447382 505.710337 0.001946433
6.43875 515.38348 510.248065 506.160785 0.001940303
6.44755 515.77991 511.133464 506.613574 0.001938811
6.45636 516.73724 512.131392 507.068706 0.00193522
6.46516 517.08881 513.282247 507.526122 0.001933904
6.47396 518.12054 514.64719 507.985839 0.001930053
6.48276 519.21503 516.323995 508.44786 0.001925984
6.49156 520.79785 518.494453 508.912121 0.001920131
6.50037 522.85516 521.6122 509.378661 0.001912576
6.50917 525.76886 527.053992 509.847414 0.001901976
6.51797 531.69879 538.630453 510.318381 0.001880764
6.52677 546.12756 563.963349 510.791577 0.001831074
6.53557 581.72168 611.531098 511.266934 0.001719035
6.54438 652.59308 679.686775 511.744477 0.001532348
6.55318 725.74237 740.77811 512.224138 0.001377899
6.56198 740.15375 743.12681 512.705924 0.001351071
6.57078 680.35345 684.71333 513.189848 0.001469824
6.57958 605.94788 617.036205 513.675822 0.001650307
6.58839 562.42065 569.311774 514.163858 0.001778029
6.59719 543.61279 544.136506 514.653962 0.001839545
6.60599 535.96039 533.130501 515.146059 0.00186581
6.61479 532.79773 528.541722 515.640171 0.001876885
6.62360 531.36597 526.393915 516.136225 0.001881942
6.63240 529.76294 525.233723 516.634228 0.001887637
6.64120 529.22162 524.58494 517.134172 0.001889568
6.65000 529.26208 524.259628 517.635981 0.001889423
6.65880 529.24377 524.159062 518.139686 0.001889488
6.66761 529.34644 524.22278 518.645207 0.001889122
6.67641 529.28949 524.411974 519.152535 0.001889325
6.68521 529.90796 524.70188 519.661676 0.00188712
6.69401 529.83112 525.077501 520.172551 0.001887394
6.70281 530.19757 525.531584 520.685147 0.001886089
6.71162 530.80988 526.064024 521.199469 0.001883914
6.72042 531.64337 526.682758 521.715436 0.00188096
6.72922 532.40002 527.408551 522.233064 0.001878287
6.73802 533.29004 528.292649 522.752269 0.001875152
6.74682 534.68475 529.490104 523.273048 0.001870261
6.75563 536.72504 531.481577 523.795407 0.001863151
6.76443 538.28033 535.452456 524.319241 0.001857768
6.77323 540.29071 543.293964 524.844554 0.001850855
6.78203 543.56348 556.13595 525.371341 0.001839712
6.79084 549.03387 571.250174 525.899517 0.001821381
6.79964 553.83832 579.243243 526.429094 0.001805581
6.80844 555.43585 572.342963 526.959984 0.001800388
6.81724 553.20239 558.39636 527.49219 0.001807657
6.82604 550.30927 546.759172 528.025693 0.00181716
6.83485 546.88385 540.124025 528.560404 0.001828542
6.84365 544.56842 537.347787 529.096348 0.001836317
6.85245 542.81219 536.541645 529.633433 0.001842258
6.86125 542.56995 536.525113 530.171642 0.00184308
6.87005 542.63391 536.820864 530.710975 0.001842863
6.87886 542.79236 537.274885 531.251339 0.001842325
6.88766 543.28656 537.83577 531.792715 0.001840649
6.89646 544.27679 538.482411 532.335102 0.0018373
6.90526 545.19037 539.205731 532.878401 0.001834222
6.91407 545.42682 540.004323 533.422641 0.001833427
6.92287 545.56091 540.882652 533.96771 0.001832976
6.93167 547.11578 541.85136 534.513605 0.001827767
6.94047 548.82843 542.928125 535.060319 0.001822063
6.94927 549.82788 544.139655 535.607757 0.001818751
6.95808 550.46436 545.526114 536.155929 0.001816648
6.96688 552.04034 547.147312 536.704739 0.001811462
6.97568 554.84351 549.095305 537.254184 0.00180231
6.98448 557.76556 551.523469 537.804244 0.001792868
6.99328 562.44293 554.706778 538.354821 0.001777958
7.00209 568.97443 559.379596 538.905914 0.001757548
7.01089 580.28253 567.850768 539.457499 0.001723298
7.01969 599.27386 586.409229 540.00948 0.001668686
7.02849 633.63068 627.435414 540.561879 0.001578206
7.03729 688.68408 703.311457 541.114599 0.001452045
7.04610 765.05823 807.25691 541.667616 0.00130709
7.05490 838.08832 888.232575 542.220928 0.001193192
7.06370 867.26978 869.985419 542.774437 0.001153044
7.07250 845.42682 773.778259 543.328152 0.001182834
7.08131 780.8761 677.826397 543.881974 0.001280613
7.09011 712.0271 615.962889 544.435895 0.001404441
7.09891 653.74554 585.735798 544.989909 0.001529647
7.10771 616.43634 573.272173 545.543901 0.001622228
7.11651 594.8324 568.167385 546.097866 0.001681146
7.12532 582.46844 565.794277 546.651794 0.001716831
7.13412 576.65137 564.607106 547.205587 0.00173415
7.14292 573.80359 564.100096 547.759254 0.001742757
7.15172 571.40198 564.060523 548.312698 0.001750081
7.16052 570.80798 564.373981 548.865913 0.001751903
7.16933 570.46411 564.982956 549.418878 0.001752959
7.17813 571.11914 565.836879 549.971495 0.001750948
7.18693 571.90314 566.931287 550.523785 0.001748548
7.19573 573.15167 568.272483 551.07565 0.001744739
7.20453 574.60406 569.884954 551.627069 0.001740329
7.21334 576.22339 571.814565 552.178039 0.001735438
7.22214 578.35547 574.134313 552.728461 0.00172904
7.23094 580.46527 576.956834 553.278314 0.001722756
7.23974 584.37341 580.45562 553.827594 0.001711235
7.24855 588.63409 584.906284 554.3762 0.001698848
7.25735 594.8429 590.806282 554.924159 0.001681116
7.26615 604.85864 599.337294 555.471356 0.001653279
7.27495 622.87085 614.116654 556.017789 0.001605469
7.28375 656.42102 645.665924 556.563449 0.001523413
7.29256 721.77283 716.294353 557.108241 0.001385477
7.30136 856.65253 852.553646 557.652144 0.001167334
7.31016 1053.6812 1052.18898 558.195156 0.000949054
7.31896 1237.6952 1236.192237 558.737182 0.000807953
7.32777 1296.8918 1260.820779 559.278233 0.000771074
7.33657 1216.3472 1142.090271 559.818216 0.000822134
7.34537 1101.2432 1028.725198 560.357129 0.000908065
7.35417 1018.4175 961.408512 560.894952 0.000981916
7.36297 925.79718 884.699762 561.431593 0.00108015
7.37178 817.74207 788.095525 561.967076 0.001222879
7.38058 724.13568 708.047986 562.501308 0.001380957
7.38938 664.90656 659.362851 563.034272 0.001503971
7.39818 636.61072 636.537427 563.565967 0.001570819
7.40698 623.61609 628.196165 564.096303 0.001603551
7.41579 619.30591 626.442386 564.625262 0.001614711
7.42459 616.85083 627.907622 565.152845 0.001621137
7.43339 618.1496 631.573713 565.678957 0.001617731
7.44219 620.99268 637.275506 566.203628 0.001610325
7.45099 625.7757 645.191533 566.726753 0.001598017
7.45980 634.90405 655.758419 567.248334 0.001575041
7.46860 645.26434 669.719476 567.768367 0.001549752
7.47740 664.35712 688.257623 568.286765 0.001505215
7.48620 685.96179 713.281252 568.803543 0.001457807
7.49501 730.90057 748.151222 569.318615 0.001368175
7.50381 794.92444 800.534148 569.831985 0.001257981
7.51261 905.22205 893.73082 570.343638 0.001104701
7.52141 1115.478 1098.953475 570.853492 0.000896477
7.53021 1544.5673 1580.828004 571.361549 0.000647431
7.53902 2444.749 2564.757229 571.867798 0.00040904
7.54782 3962.9851 4097.212296 572.372157 0.000252335
7.55662 5871.4868 5644.917129 572.874653 0.000170315
7.56542 6221.0479 5991.96291 573.375206 0.000160745
7.57422 4830.8799 4894.424072 573.873805 0.000207002
7.58303 3444.9851 3577.706849 574.370457 0.000290277
7.59183 2678.8735 2702.915909 574.865076 0.000373291
7.60063 2071.6921 2118.144784 575.357698 0.000482697
7.60943 1621.1632 1606.237354 575.84823 0.000616841
7.61823 1220.1759 1207.148146 576.336679 0.000819554
7.62704 965.59943 953.403957 576.823046 0.001035626
7.63584 825.5993 817.75622 577.307258 0.001211241
7.64464 742.69635 750.13999 577.789307 0.001346445
7.65344 701.45129 713.328278 578.269201 0.001425616
7.66225 672.40906 689.825188 578.746867 0.00148719
7.67105 656.41125 673.15718 579.222327 0.001523435
7.67985 642.9928 660.824958 579.695509 0.001555227
7.68865 636.01465 651.587503 580.166425 0.001572291
7.69745 630.08527 644.699884 580.635067 0.001587087
7.70626 626.05109 639.7092 581.101369 0.001597314
7.71506 623.10522 636.363698 581.565363 0.001604865
7.72386 621.81439 634.600664 582.026981 0.001608197
7.73266 623.90936 634.62974 582.486221 0.001602797
7.74146 628.45911 637.259625 582.943095 0.001591193
7.75027 639.77124 644.803795 583.397538 0.001563059
7.75907 661.32007 663.176999 583.84955 0.001512127
7.76787 702.39069 705.407832 584.299143 0.001423709
7.77667 781.26105 791.671187 584.74625 0.001279982
7.78548 918.83527 933.753415 585.190912 0.001088334
7.79428 1098.6824 1105.148778 585.633054 0.000910181
7.80308 1200.7213 1201.232693 586.072689 0.000832833
7.81188 1134.0565 1114.722008 586.509831 0.00088179
7.82068 953.98444 933.136368 586.94442 0.001048235
7.82949 791.15631 779.084613 587.37646 0.001263973
7.83829 702.7605 688.944897 587.805966 0.00142296
7.84709 657.73053 647.515159 588.232884 0.001520379
7.85589 635.89899 630.061483 588.657242 0.001572577
7.86469 622.83142 621.712831 589.078986 0.001605571
7.87350 614.39392 616.72796 589.498134 0.00162762
7.88230 609.40747 613.308558 589.914693 0.001640938
7.89110 606.23865 610.825608 590.32861 0.001649515
7.89990 603.83069 608.97316 590.739925 0.001656093
7.90870 602.00922 607.567498 591.148589 0.001661104
7.91751 600.75372 606.48834 591.554608 0.001664576
7.92631 600.58344 605.654093 591.958005 0.001665048
7.93511 599.59766 605.007873 592.358727 0.001667785
7.94391 598.69147 604.508732 592.756798 0.001670309
7.95272 598.34064 604.12578 593.152226 0.001671289
7.96152 598.44281 603.838359 593.544967 0.001671003
7.97032 598.11365 603.628444 593.935063 0.001671923
7.97912 597.46118 603.482824 594.322471 0.001673749
7.98792 597.29126 603.391051 594.707203 0.001674225
7.99673 597.18219 603.344839 595.089283 0.001674531
8.00553 597.0152 603.337525 595.468693 0.001674999
8.01433 597.12616 603.363667 595.845381 0.001674688
8.02313 596.89941 603.418834 596.219438 0.001675324
8.03193 596.86823 603.499325 596.590822 0.001675412
8.04074 597.09082 603.602079 596.959496 0.001674787
8.04954 596.45752 603.724574 597.325539 0.001676565
8.05834 595.9621 603.864657 597.688916 0.001677959
8.06714 596.79242 604.020548 598.049592 0.001675624
8.07594 597.65662 604.190812 598.407645 0.001673202
8.08475 598.22522 604.374247 598.763044 0.001671611
8.09355 597.43213 604.569887 599.115757 0.00167383
8.10235 597.27472 604.777078 599.465862 0.001674271
8.11115 596.64252 604.995355 599.813329 0.001676045
8.11996 596.63757 605.224527 600.158165 0.001676059
8.12876 596.55847 605.464689 600.500342 0.001676282
8.13756 597.26691 605.716375 600.839938 0.001674293
8.14636 597.9306 605.980728 601.176927 0.001672435
8.15516 598.0155 606.258895 601.511283 0.001672197
8.16397 597.91211 606.555043 601.843084 0.001672487
8.17277 597.77179 606.870154 602.172307 0.001672879
8.18157 598.45331 607.211415 602.498928 0.001670974
8.19037 599.0473 607.591813 602.823025 0.001669317
8.19917 599.58667 608.018285 603.144577 0.001667816
8.20798 598.98236 608.521609 603.46356 0.001669498
8.21678 599.57275 609.169186 603.780063 0.001667854
8.22558 601.23602 610.178249 604.094055 0.00166324
8.23438 604.43597 612.206711 604.405554 0.001654435
8.24319 609.78143 616.679386 604.714539 0.001639932
8.25199 618.52521 625.275656 605.021098 0.001616749
8.26079 630.47693 637.654372 605.325205 0.001586101
8.26959 641.10864 648.267741 605.626845 0.001559798
8.27839 643.04138 647.577018 605.926103 0.00155511
8.28720 636.25861 636.662844 606.222964 0.001571688
8.29600 624.39423 625.154544 606.517406 0.001601552
8.30480 614.0705 617.715892 606.809517 0.001628478
8.31360 608.36188 614.217656 607.099281 0.001643758
8.32240 604.64417 612.921612 607.386688 0.001653865
8.33121 602.38538 612.510882 607.671815 0.001660067
8.34001 601.59082 612.519206 607.954653 0.001662259
8.34881 601.56018 612.550731 608.235222 0.001662344
8.35761 601.54395 612.652797 608.513513 0.001662389
8.36641 601.24274 612.800761 608.789606 0.001663222
8.37522 601.65631 612.980769 609.063491 0.001662078
8.38402 602.4317 613.184066 609.335164 0.001659939
8.39282 603.23273 613.404962 609.604702 0.001657735
8.40162 603.11426 613.639555 609.8721 0.001658061
8.41043 602.52496 613.885174 610.137354 0.001659682
8.41923 601.99261 614.140045 610.400541 0.00166115
8.42803 601.73535 614.402878 610.661658 0.00166186
8.43683 602.46857 614.67279 610.920703 0.001659838
8.44563 602.98065 614.949291 611.177752 0.001658428
8.45444 603.93427 615.232029 611.432805 0.001655809
8.46324 603.51306 615.520862 611.685887 0.001656965
8.47204 603.56769 615.823218 611.936997 0.001656815
8.48084 604.17316 616.124467 612.186212 0.001655155
8.48964 604.9234 616.449317 612.433534 0.001653102
8.49845 604.45911 616.764056 612.678964 0.001654372
8.50725 604.17084 617.086208 612.922579 0.001655161
8.51605 604.31866 617.416335 613.16438 0.001654756
8.52485 604.89185 617.755125 613.404372 0.001653188
8.53366 605.66016 618.103485 613.642631 0.001651091
8.54246 605.47925 618.462396 613.879159 0.001651584
8.55126 606.41595 618.832967 614.11396 0.001649033
8.56006 607.64679 619.216645 614.347118 0.001645693
8.56886 608.46735 619.614935 614.57863 0.001643474
8.57767 608.31012 620.029673 614.808527 0.001643898
8.58647 608.06598 620.46292 615.036814 0.001644558
8.59527 608.38037 620.9182 615.263574 0.001643709
8.60407 608.49023 621.396496 615.488806 0.001643412
8.61287 609.13745 621.902094 615.712517 0.001641666
8.62168 609.25061 622.439142 615.934789 0.001641361
8.63048 609.9472 623.0124 616.15563 0.001639486
8.63928 610.4989 623.627543 616.37504 0.001638005
8.64808 611.64276 624.291548 616.593103 0.001634941
8.65689 612.78857 625.012789 616.809825 0.001631884
8.66569 612.98273 625.80138 617.025215 0.001631367
8.67449 612.58722 626.669971 617.239349 0.001632421
8.68329 613.75885 627.634137 617.452237 0.001629304
8.69209 615.45013 628.713429 617.66391 0.001624827
8.70090 616.60034 629.932501 617.874379 0.001621796
8.70970 617.86731 631.323188 618.08372 0.00161847
8.71850 619.46881 632.926776 618.291943 0.001614286
8.72730 621.49719 634.79732 618.499059 0.001609018
8.73610 624.09241 637.007607 618.705143 0.001602327
8.74491 627.1369 639.65649 618.910207 0.001594548
8.75371 630.23517 642.881097 619.114263 0.001586709
8.76251 633.83734 646.876899 619.317385 0.001577692
8.77131 639.07178 651.92769 619.519586 0.001564769
8.78011 647.19293 658.46225 619.720877 0.001545134
8.78892 659.54004 667.170528 619.921334 0.001516208
8.79772 679.20032 679.357806 620.120968 0.00147232
8.80652 713.20544 698.414216 620.319813 0.001402121
8.81532 771.97168 734.616884 620.517882 0.001295384
8.82413 884.27393 816.072302 620.715248 0.001130871
8.83293 1090.6473 999.423191 620.911925 0.000916887
8.84173 1429.3677 1354.143786 621.107927 0.00069961
8.85053 1886.0823 1886.568761 621.303326 0.0005302
8.85933 2311.6794 2420.85067 621.498135 0.000432586
8.86814 2494.9426 2649.145239 621.692369 0.000400811
8.87694 2291.3674 2365.791178 621.886101 0.000436421
8.88574 1821.3298 1774.941246 622.079343 0.000549049
8.89454 1356.1429 1252.77303 622.272108 0.000737385
8.90334 1042.3436 935.720544 622.464474 0.000959377
8.91215 862.33862 785.976964 622.656449 0.001159637
8.92095 768.86755 723.542376 622.848067 0.001300614
8.92975 715.91846 695.382029 623.039341 0.001396807
8.93855 684.58521 679.524792 623.230349 0.001460739
8.94736 666.39136 668.954449 623.421098 0.00150062
8.95616 655.10754 661.36815 623.611601 0.001526467
8.96496 647.11853 655.737622 623.801935 0.001545312
8.97376 641.34351 651.469622 623.992112 0.001559227
8.98256 637.6142 648.18231 624.18214 0.001568347
8.99137 634.67706 645.618355 624.372095 0.001575604
9.00017 632.1134 643.601378 624.56199 0.001581995
9.00897 629.91748 642.006705 624.751837 0.00158751
9.01777 629.18225 640.744009 624.941707 0.001589365
9.02657 628.99335 639.747826 625.131613 0.001589842
9.03538 628.02777 638.971184 625.321585 0.001592286
9.04418 627.38843 638.374632 625.511638 0.001593909
9.05298 627.67963 637.932561 625.70184 0.001593169
9.06178 627.6651 637.625017 625.892205 0.001593206
9.07058 627.19171 637.437492 626.082743 0.001594409
9.07939 626.48608 637.359878 626.273525 0.001596205
9.08819 626.58936 637.386055 626.464562 0.001595942
9.09699 627.25323 637.513385 626.655865 0.001594252
9.10579 628.58295 637.74267 626.847504 0.00159088
9.11460 630.27631 638.078296 627.039489 0.001586606
9.12340 632.18835 638.528603 627.231831 0.001581807
9.13220 634.05609 639.106902 627.4246 0.001577148
9.14100 637.77948 639.832388 627.617804 0.00156794
9.14980 643.67639 640.732113 627.811453 0.001553576
9.15861 651.36853 641.844327 628.005617 0.001535229
9.16741 663.21082 643.223909 628.200303 0.001507816
9.17621 681.7572 644.94309 628.395542 0.001466798
9.18501 705.44165 647.112241 628.591341 0.001417552
9.19381 727.94037 649.893851 628.787768 0.001373739
9.20262 754.21613 653.544165 628.984832 0.00132588
9.21142 766.90698 658.542106 629.182539 0.001303939
9.22022 765.25562 666.047765 629.380957 0.001306753
9.22902 762.6051 679.206896 629.580093 0.001311295
9.23782 783.94202 705.57878 629.779952 0.001275605
9.24663 823.50116 759.542964 629.980606 0.001214327
9.25543 908.94366 862.765241 630.182056 0.001100178
9.26423 1043.1263 1038.436445 630.384306 0.000958657
9.27303 1261.1238 1288.845179 630.587427 0.000792944
9.28184 1500.2693 1577.291777 630.791425 0.000666547
9.29064 1678.9385 1771.306188 630.996319 0.000595614
9.29944 1659.4927 1667.595298 631.202113 0.000602594
9.30824 1456.2712 1342.311102 631.408878 0.000686685
9.31704 1182.3948 1028.834367 631.616616 0.000845741
9.32585 967.5625 829.655718 631.825324 0.001033525
9.33465 826.32349 733.858067 632.035074 0.00121018
9.34345 752.18958 694.626615 632.245864 0.001329452
9.35225 712.36743 677.976899 632.457697 0.00140377
9.36105 691.30109 669.330538 632.670637 0.001446548
9.36986 683.00885 664.06307 632.884685 0.00146411
9.37866 680.23651 660.783911 633.099839 0.001470077
9.38746 682.81915 658.996014 633.316166 0.001464517
9.39626 690.16187 658.584189 633.533664 0.001448935
9.40507 701.16821 659.966267 633.752353 0.001426191
9.41387 717.25116 665.12563 633.972231 0.001394212
9.42267 736.26898 680.112167 634.193362 0.001358199
9.43147 762.90527 717.043709 634.415743 0.001310779
9.44027 794.47577 788.032942 634.63937 0.001258692
9.44908 843.12811 885.910959 634.864307 0.001186059
9.45788 888.4209 962.439082 635.090549 0.001125593
9.46668 922.75818 947.910655 635.318091 0.001083708
9.47548 907.39191 857.505553 635.546996 0.00110206
9.48428 859.10419 763.361969 635.777258 0.001164003
9.49309 792.0506 701.24459 636.00887 0.001262546
9.50189 741.177 670.65469 636.241896 0.001349205
9.51069 703.5816 658.023666 636.476326 0.001421299
9.51949 681.48077 652.706283 636.712177 0.001467393
9.52829 667.09271 649.940907 636.949439 0.001499042
9.53710 658.45441 648.185959 637.188175 0.001518708
9.54590 652.64166 646.965663 637.428375 0.001532234
9.55470 648.22009 646.090721 637.670027 0.001542686
9.56350 645.77521 645.45668 637.913194 0.001548526
9.57231 644.03766 644.997383 638.157864 0.001552704
9.58111 642.82684 644.668406 638.404021 0.001555629
9.58991 642.08234 644.445388 638.651737 0.001557433
9.59871 641.15399 644.293504 638.900989 0.001559688
9.60751 640.67212 644.203345 639.151762 0.001560861
9.61632 640.95105 644.164104 639.404124 0.001560182
9.62512 640.80548 644.164849 639.658059 0.001560536
9.63392 640.3631 644.199754 639.913573 0.001561614
9.64272 640.79541 644.263496 640.170647 0.00156056
9.65152 640.87891 644.351885 640.429348 0.001560357
9.66033 641.1535 644.461575 640.68966 0.001559689
9.66913 640.98792 644.589855 640.951555 0.001560092
9.67793 641.66876 644.734567 641.215102 0.001558436
9.68673 642.435 644.893912 641.48028 0.001556578
9.69553 642.98297 645.066644 641.747067 0.001555251
9.70434 643.40106 645.251105 642.015524 0.001554241
9.71314 643.37457 645.446509 642.285631 0.001554305
9.72194 643.8111 645.65201 642.557364 0.001553251
9.73074 644.06458 645.866969 642.830785 0.001552639
9.73955 643.763 646.090813 643.105871 0.001553367
9.74835 643.80945 646.323092 643.382625 0.001553255
9.75715 644.17853 646.563438 643.661023 0.001552365
9.76595 644.36981 646.811649 643.941125 0.001551904
9.77475 644.07715 647.067532 644.222905 0.001552609
9.78356 643.51825 647.330982 644.506338 0.001553957
9.79236 643.52338 647.602065 644.791483 0.001553945
9.80116 643.67767 647.880864 645.078313 0.001553573
9.80996 644.21375 648.16756 645.366799 0.00155228
9.81876 645.0116 648.462552 645.657002 0.00155036
9.82757 645.49463 648.766301 645.948892 0.0015492
9.83637 645.8009 649.079442 646.24244 0.001548465
9.84517 645.93036 649.402939 646.537704 0.001548155
9.85397 646.36346 649.738103 646.834655 0.001547117
9.86278 646.48071 650.086244 647.133291 0.001546837
9.87158 647.15015 650.449582 647.433579 0.001545236
9.88038 647.79578 650.831051 647.735578 0.001543696
9.88918 648.8902 651.234497 648.039257 0.001541093
9.89798 649.65735 651.665235 648.34458 0.001539273
9.90679 650.23303 652.130905 648.651606 0.00153791
9.91559 651.1239 652.642324 648.960302 0.001535806
9.92439 652.38251 653.215456 649.270627 0.001532843
9.93319 654.90656 653.87516 649.582652 0.001526935
9.94199 657.32172 654.663785 649.896328 0.001521325
9.95080 660.36444 655.677166 650.211619 0.001514315
9.95960 663.73859 657.214165 650.52859 0.001506617
9.96840 668.12836 660.245007 650.847204 0.001496718
9.97720 672.01898 667.245772 651.167447 0.001488053
9.98600 676.41583 682.289118 651.489278 0.001478381
9.99481 681.76569 707.981197 651.812765 0.00146678
10.00361 689.01849 739.096364 652.137877 0.00145134
10.01241 696.04236 757.898135 652.464526 0.001436694
10.02121 698.92938 747.09317 652.792844 0.00143076
10.03002 695.43353 717.834095 653.122712 0.001437952
10.03882 686.51288 690.429479 653.454119 0.001456637
10.04762 676.76874 673.316742 653.78717 0.00147761
10.05642 668.71393 665.345643 654.121741 0.001495408
10.06522 664.25995 662.360227 654.457861 0.001505435
10.07403 661.45074 661.37879 654.79552 0.001511828
10.08283 660.39893 661.116744 655.134744 0.001514236
10.09163 660.02069 661.17063 655.475447 0.001515104
10.10043 660.55011 661.432731 655.817617 0.00151389
10.10923 659.94659 661.890716 656.161358 0.001515274
10.11804 660.29761 662.622247 656.506542 0.001514469
10.12684 661.89679 663.961309 656.853196 0.00151081
10.13564 664.31744 666.922809 657.201307 0.001505304
10.14444 668.4707 673.629113 657.550902 0.001495952
10.15325 675.13806 686.522182 657.901849 0.001481179
10.16205 685.09314 705.271063 658.254253 0.001459656
10.17085 694.39832 722.847636 658.608101 0.001440096
10.17965 697.89801 726.185359 658.963258 0.001432874
10.18845 691.3869 712.304616 659.319872 0.001446368
10.19726 681.19458 693.535707 659.677807 0.001468009
10.20606 673.0993 679.322656 660.037128 0.001485665
10.21486 668.36456 671.677021 660.397699 0.001496189
10.22366 665.35333 668.563241 660.759626 0.001502961
10.23246 664.35413 667.572586 661.122894 0.001505221
10.24127 664.01221 667.365201 661.487364 0.001505996
10.25007 663.88092 667.441254 661.853184 0.001506294
10.25887 664.18622 667.649295 662.220215 0.001505602
10.26767 665.24939 667.939298 662.58848 0.001503196
10.27647 665.51361 668.288404 662.957963 0.001502599
10.28528 665.65051 668.683338 663.328647 0.00150229
10.29408 665.74298 669.115675 663.700514 0.001502081
10.30288 666.04755 669.58011 664.073548 0.001501394
10.31168 666.28979 670.073439 664.447772 0.001500848
10.32048 666.85645 670.593612 664.823042 0.001499573
10.32929 667.87695 671.140136 665.199509 0.001497282
10.33809 669.04596 671.712861 665.577027 0.001494666
10.34689 669.44861 672.312635 665.95562 0.001493767
10.35569 669.37 672.940991 666.33527 0.001493942
10.36450 670.12323 673.600086 666.715957 0.001492263
10.37330 671.27802 674.293008 667.097706 0.001489696
10.38210 672.28125 675.023315 667.480368 0.001487473
10.39090 672.38312 675.796386 667.864097 0.001487247
10.39971 672.66809 676.61823 668.248742 0.001486617
10.40851 673.19128 677.497144 668.634284 0.001485462
10.41731 674.46155 678.444154 669.020834 0.001482664
10.42611 675.76978 679.468643 669.408242 0.001479794
10.43491 676.8667 680.61726 669.79653 0.001477396
10.44371 678.49646 681.880897 670.185678 0.001473847
10.45252 680.46777 683.332363 670.575711 0.001469577
10.46132 683.14331 685.09566 670.966518 0.001463822
10.47012 686.58679 687.457301 671.35808 0.00145648
10.47892 690.49835 690.98478 671.750509 0.001448229
10.48773 696.10065 696.599164 672.143651 0.001436574
10.49653 705.04724 705.643262 672.537529 0.001418345
10.50533 720.66876 719.902235 672.932123 0.0013876
10.51413 741.84821 741.557859 673.327411 0.001347985
10.52293 768.48419 773.363936 673.723372 0.001301263
10.53174 795.92999 814.50202 674.119984 0.001256392
10.54054 819.99194 857.037147 674.517273 0.001219524
10.54934 839.38232 892.202075 674.915081 0.001191352
10.55814 843.9505 901.258341 675.313566 0.001184904
10.56695 827.06964 867.687198 675.712573 0.001209088
10.57575 797.36749 813.676296 676.112125 0.001254127
10.58455 762.9566 768.295376 676.5122 0.001310691
10.59335 738.84265 742.294469 676.912777 0.001353468
10.60215 724.06549 732.76839 677.31388 0.001381091
10.61096 716.31628 732.846004 677.71535 0.001396031
10.61976 714.86536 737.82985 678.117349 0.001398865
10.62856 716.75165 745.97154 678.519717 0.001395183
10.63736 720.29437 757.249271 678.922479 0.001388321
10.64616 727.0155 772.563927 679.325613 0.001375486
10.65497 737.44501 793.86448 679.729098 0.001356033
10.66377 756.73102 826.19388 680.132912 0.001321474
10.67257 796.03857 886.008835 680.537033 0.001256221
10.68137 885.83954 1024.399785 680.941486 0.001128873
10.69017 1114.2738 1362.718079 681.346157 0.000897445
10.69898 1928.7866 2085.581673 681.751071 0.000518461
10.70778 3648.7769 3294.885074 682.156206 0.000274064
10.71658 5289.9766 4740.164351 682.561542 0.000189037
10.72538 5891.8506 5650.973294 682.967056 0.000169726
10.73419 5114.667 5246.897009 683.372728 0.000195516
10.74299 3893.0032 3906.748694 683.778582 0.000256871
10.75179 2553.5471 2541.075954 684.184459 0.000391612
10.76059 1678.1155 1615.151478 684.590522 0.000595907
10.76939 1195.9543 1141.076464 684.996613 0.000836152
10.77820 953.31451 941.17239 685.402709 0.001048972
10.78700 843.19434 860.749273 685.808929 0.001185966
10.79580 795.35504 823.465974 686.215114 0.0012573
10.80460 774.35754 802.601577 686.621335 0.001291393
10.81340 767.87671 790.635251 687.027434 0.001302292
10.82221 773.32556 786.652366 687.433528 0.001293116
10.83101 791.94366 794.866392 687.839597 0.001262716
10.83981 835.33582 827.646828 688.245483 0.001197123
10.84861 927.68646 907.239373 688.65135 0.00107795
10.85741 1091.8417 1058.195995 689.05704 0.000915884
10.86622 1311.5718 1284.610239 689.46258 0.000762444
10.87502 1518.9167 1536.615141 689.867949 0.000658364
10.88382 1670.1295 1719.156742 690.273129 0.000598756
10.89262 1688.1771 1740.59702 690.6781 0.000592355
10.90142 1552.4779 1553.610939 691.082843 0.000644132
10.91023 1301.9934 1267.523593 691.487384 0.000768053
10.91903 1067.7941 1020.305731 691.891615 0.00093651
10.92783 915.22711 864.354065 692.29556 0.001092625
10.93663 831.39362 786.604787 692.699203 0.0012028
10.94544 782.61469 753.281334 693.102525 0.001277768
10.95424 756.14777 739.099818 693.505508 0.001322493
10.96304 740.30334 732.563297 693.908133 0.001350798
10.97184 731.61487 730.57 694.31043 0.001366839
10.98064 725.9856 733.410723 694.712243 0.001377438
10.98945 723.80261 741.431198 695.113737 0.001381592
10.99825 724.00934 752.152331 695.514759 0.001381198
11.00705 725.88031 758.800258 695.915338 0.001377638
11.01585 725.67279 754.404402 696.315457 0.001378032
11.02465 723.13977 741.658599 696.715099 0.001382859
11.03346 719.35651 728.396925 697.114293 0.001390131
11.04226 715.82416 719.002704 697.512888 0.001396991
11.05106 712.44928 713.839315 697.911048 0.001403609
11.05986 710.11603 711.408468 698.308624 0.001408221
11.06867 707.70288 710.26319 698.705643 0.001413022
11.07747 705.76196 709.634 699.102092 0.001416908
11.08627 704.85663 709.229333 699.497956 0.001418728
11.09507 704.90912 708.952485 699.89322 0.001418623
11.10387 704.90826 708.758772 700.287869 0.001418624
11.11268 704.76202 708.643474 700.681935 0.001418919
11.12148 704.48688 708.585183 701.075269 0.001419473
11.13028 704.05371 708.573637 701.467992 0.001420346
11.13908 703.35876 708.600794 701.86009 0.00142175
11.14789 703.04474 708.659851 702.251462 0.001422385
11.15669 702.89423 708.744752 702.642139 0.001422689
11.16549 703.38629 708.848591 703.032109 0.001421694
11.17429 704.3399 708.961407 703.421403 0.001419769
11.18309 705.27728 709.046531 703.809877 0.001417882
11.19190 705.30957 709.020943 704.197652 0.001417817
11.20070 704.61932 708.69255 704.584717 0.001419206
11.20950 705.34863 707.823095 704.970928 0.001417739
11.21830 705.75623 706.3419 705.35645 0.00141692
11.22710 706.04224 704.681058 705.741142 0.001416346
11.23591 706.61359 703.899656 706.125036 0.001415201
11.24471 706.65186 704.895553 706.508123 0.001415124
11.25351 707.10571 707.090356 706.890393 0.001414216
11.26231 707.90588 709.338988 707.271881 0.001412617
11.27111 708.72034 711.050468 707.652446 0.001410994
11.27992 709.36694 712.21408 708.032254 0.001409708
11.28872 710.74664 713.100591 708.411167 0.001406971
11.29752 712.16956 714.059136 708.789218 0.00140416
11.30632 714.30011 715.615398 709.166402 0.001399972
11.31513 717.86597 718.773997 709.542709 0.001393018
11.32393 724.36725 725.056889 709.918134 0.001380515
11.33273 735.46472 735.614088 710.292668 0.001359685
11.34153 749.15314 749.40457 710.666348 0.001334841
11.35033 763.61981 761.780386 711.039041 0.001309552
11.35914 766.2168 766.353931 711.410909 0.001305114
11.36794 756.18707 762.495476 711.78182 0.001322424
11.37674 745.37836 753.954745 712.151811 0.001341601
11.38554 736.64355 743.251425 712.520878 0.001357509
11.39434 729.20721 733.351776 712.889014 0.001371352
11.40315 724.14984 726.327237 713.256258 0.00138093
11.41195 722.38501 722.387368 713.622481 0.001384303
11.42075 721.09808 720.713107 713.987845 0.001386774
11.42955 720.59766 720.368771 714.352222 0.001387737
11.43835 721.84186 720.769527 714.71561 0.001385345
11.44716 724.94598 721.908318 715.078128 0.001379413
11.45596 729.64264 724.594583 715.439652 0.001370534
11.46476 741.46765 730.812308 715.80022 0.001348677
11.47356 757.62738 743.358121 716.15983 0.00131991
11.48237 782.44434 763.512985 716.518521 0.001278046
11.49117 811.71136 787.29273 716.87617 0.001231965
11.49997 826.31702 803.486656 717.232899 0.001210189
11.50877 834.00488 800.076808 717.588707 0.001199034
11.51757 819.24933 780.281138 717.943511 0.00122063
11.52638 793.61902 757.537536 718.297354 0.00126005
11.53518 772.34729 740.614815 718.650235 0.001294754
11.54398 754.31934 731.254618 719.002195 0.001325698
11.55278 741.12689 727.241439 719.353115 0.001349297
11.56158 734.95135 725.904323 719.703117 0.001360634
11.57039 730.39386 725.647407 720.052201 0.001369124
11.57919 727.51001 725.834209 720.400251 0.001374552
11.58799 726.19385 726.312139 720.747427 0.001377043
11.59679 726.77954 727.212723 721.093613 0.001375933
11.60559 728.96582 729.12305 721.438853 0.001371806
11.61440 733.67712 733.549342 721.783148 0.001362997
11.62320 741.40509 743.120033 722.126503 0.00134879
11.63200 755.63184 760.278821 722.46896 0.001323396
11.64080 776.37354 783.948311 722.810407 0.00128804
11.64961 795.44427 806.278086 723.151004 0.001257159
11.65841 801.15649 813.830667 723.490638 0.001248196
11.66721 790.20868 800.798785 723.829355 0.001265489
11.67601 771.24927 777.878113 724.167158 0.001296598
11.68481 757.46552 757.453493 724.504054 0.001320192
11.69362 750.91992 744.742488 724.840049 0.0013317
11.70242 747.04376 738.714526 725.175148 0.00133861
11.71122 744.36584 735.980363 725.509397 0.001343425
11.72002 741.41504 734.231167 725.842688 0.001348772
11.72883 738.5423 732.903501 726.175181 0.001354019
11.73763 735.73541 732.0489 726.506768 0.001359184
11.74643 733.31244 731.690973 726.837495 0.001363675
11.75523 732.21899 731.736312 727.167371 0.001365712
11.76403 731.36005 732.07864 727.496403 0.001367316
11.77284 730.88928 732.653561 727.824638 0.001368196
11.78164 730.84747 733.387237 728.151972 0.001368275
11.79044 731.86414 734.131636 728.478563 0.001366374
11.79924 732.94989 734.676188 728.804309 0.00136435
11.80804 733.51965 734.955446 729.129219 0.00136329
11.81685 733.81909 735.144571 729.453415 0.001362734
11.82565 734.27704 735.433342 729.776796 0.001361884
11.83445 734.83838 735.907363 730.099408 0.001360843
11.84325 735.86804 736.568928 730.421263 0.001358939
11.85206 737.04218 737.394166 730.742408 0.001356774
11.86086 738.48145 738.374475 731.06278 0.00135413
11.86966 740.57703 739.530905 731.382393 0.001350298
11.87846 743.86505 740.907583 731.701364 0.00134433
11.88726 747.17242 742.582735 732.019599 0.001338379
11.89607 752.66107 744.693114 732.337145 0.001328619
11.90487 761.70258 747.551525 732.654014 0.001312848
11.91367 774.55627 752.043866 732.970255 0.001291062
11.92247 795.56952 760.718238 733.285773 0.001256961
11.93127 825.46344 779.742892 733.600688 0.001211441
11.94008 875.20892 820.461155 733.915014 0.001142584
11.94888 944.63287 897.058295 734.228656 0.001058612
11.95768 1035.7815 1017.396526 734.541771 0.000965455
11.96648 1143.7489 1167.902652 734.854265 0.000874318
11.97528 1246.3221 1303.878699 735.166225 0.000802361
11.98409 1291.9084 1372.577536 735.477556 0.000774049
11.99289 1255.2839 1342.123235 735.788381 0.000796633
12.00169 1148.9116 1216.152326 736.098714 0.000870389
12.01049 1025.2981 1055.86185 736.408463 0.000975326
12.01929 929.66162 921.094292 736.717784 0.00107566
12.02810 861.91736 834.377323 737.026587 0.001160204
12.03690 819.97913 789.475759 737.334922 0.001219543
12.04570 794.88873 769.960593 737.642805 0.001258038
12.05450 779.75568 762.355188 737.950251 0.001282453
12.06330 771.26666 759.616476 738.257276 0.001296568
12.07211 767.5589 759.234078 738.563895 0.001302832
12.08091 768.06104 761.260627 738.870161 0.00130198
12.08971 772.96967 768.255634 739.176018 0.001293712
12.09851 785.61761 786.674022 739.481518 0.001272884
12.10732 814.51324 826.985879 739.786678 0.001227727
12.11612 871.10162 898.009801 740.091515 0.001147972
12.12492 962.72833 994.536485 740.396044 0.001038715
12.13372 1065.1038 1086.753986 740.700283 0.000938876
12.14252 1122.673 1125.81993 741.004284 0.000890731
12.15133 1094.0723 1088.740785 741.307959 0.000914016
12.16013 1022.0486 1009.747629 741.611464 0.000978427
12.16893 938.15234 930.118863 741.914712 0.001065925
12.17773 878.11847 866.622031 742.217722 0.001138799
12.18653 837.47729 820.863071 742.520614 0.001194062
12.19534 810.93542 790.510054 742.823301 0.001233144
12.20414 789.18677 771.957129 743.125872 0.001267127
12.21294 775.03992 761.801723 743.428239 0.001290256
12.22174 764.46454 757.108591 743.730558 0.001308105
12.23055 758.69843 755.795404 744.032745 0.001318047
12.23935 755.92303 756.779277 744.334817 0.001322886
12.24815 756.51367 759.396203 744.636895 0.001321853
12.25695 757.5423 762.56836 744.938893 0.001320058
12.26575 757.95605 764.459607 745.240866 0.001319338
12.27456 757.17346 763.475392 745.542829 0.001320701
12.28336 755.84583 760.185505 745.844837 0.001323021
12.29216 753.86572 756.463508 746.146804 0.001326496
12.30096 752.28381 753.605331 746.448851 0.001329286
12.30977 750.18091 751.948634 746.750997 0.001333012
12.31857 748.7652 751.213679 747.053191 0.001335532
12.32737 748.38293 750.98883 747.355487 0.001336214
12.33617 748.47943 750.99304 747.657901 0.001336042
12.34497 748.43835 751.094759 747.960487 0.001336115
12.35378 748.53339 751.245958 748.26316 0.001335946
12.36258 748.93164 751.431046 748.566041 0.001335235
12.37138 749.78168 751.645556 748.869149 0.001333722
12.38018 750.90021 751.892122 749.172399 0.001331735
12.38898 751.52045 752.188995 749.475947 0.001330636
12.39779 751.74854 752.593995 749.779707 0.001330232
12.40659 752.97931 753.242581 750.083732 0.001328058
12.41539 755.32733 754.355736 750.38804 0.001323929
12.42419 758.81653 756.132149 750.69265 0.001317842
12.43299 762.06421 758.494751 750.997579 0.001312225
12.44180 764.75079 760.851817 751.302846 0.001307616
12.45060 767.88751 762.153915 751.608502 0.001302274
12.45940 767.66754 761.698239 751.914498 0.001302647
12.46820 765.16284 760.056423 752.220884 0.001306911
12.47701 762.72107 758.30291 752.527679 0.001311095
12.48581 760.50153 757.106506 752.834901 0.001314922
12.49461 758.92468 756.612659 753.142567 0.001317654
12.50341 758.271 756.67556 753.450695 0.00131879
12.51221 757.80945 757.149552 753.759336 0.001319593
12.52102 757.9057 758.048199 754.068404 0.001319425
12.52982 757.83594 759.53174 754.378056 0.001319547
12.53862 758.7475 761.766496 754.688203 0.001317962
12.54742 760.00427 764.802494 754.998862 0.001315782
12.55622 761.36633 768.728201 755.310157 0.001313428
12.56503 763.12683 774.267188 755.621998 0.001310398
12.57383 766.19354 783.561286 755.934472 0.001305153
12.58263 771.48108 799.002516 756.24749 0.001296208
12.59143 777.11438 819.667576 756.56121 0.001286812
12.60023 781.99872 838.872053 756.875542 0.001278774
12.60904 782.52936 845.81705 757.1905 0.001277907
12.61784 779.78522 835.234386 757.50621 0.001282404
12.62664 774.88373 814.434708 757.822579 0.001290516
12.63544 772.29407 794.006551 758.139659 0.001294844
12.64424 772.53821 780.281625 758.457465 0.001294434
12.65305 778.07581 774.875371 758.776049 0.001285222
12.66185 787.66339 776.739515 759.095316 0.001269578
12.67065 801.76544 783.749643 759.415392 0.001247248
12.67945 817.4126 792.695677 759.736291 0.001223372
12.68826 825.61432 798.986658 760.057954 0.001211219
12.69706 824.84589 798.388513 760.380433 0.001212348
12.70586 815.92755 791.321914 760.703741 0.001225599
12.71466 803.20996 782.087823 761.02793 0.001245004
12.72346 791.3313 774.324745 761.352903 0.001263693
12.73227 781.34534 769.427972 761.678784 0.001279844
12.74107 774.88837 767.045264 762.005587 0.001290508
12.74987 771.18414 766.206912 762.333214 0.001296707
12.75867 769.33307 766.149006 762.661826 0.001299827
12.76747 768.81274 766.554699 762.991325 0.001300707
12.77628 770.0249 767.497555 763.32176 0.001298659
12.78508 772.06818 769.256018 763.653143 0.001295222
12.79388 773.52307 772.043847 763.985487 0.001292786
12.80268 776.68024 775.604918 764.318842 0.001287531
12.81148 780.35516 778.92549 764.653105 0.001281468
12.82029 784.10919 780.459749 764.98844 0.001275333
12.82909 784.91266 779.391142 765.324743 0.001274027
12.83789 783.66345 776.685124 765.662065 0.001276058
12.84669 780.27728 773.867871 766.000414 0.001281596
12.85550 777.32855 771.869644 766.339803 0.001286457
12.86430 774.78271 770.873785 766.68024 0.001290684
12.87310 773.74115 770.621785 767.021736 0.001292422
12.88190 772.78302 770.77952 767.364339 0.001294024
12.89070 773.05164 771.123646 767.707942 0.001293575
12.89951 772.52417 771.550228 768.052709 0.001294458
12.90831 772.24915 772.022271 768.398534 0.001294919
12.91711 771.71832 772.529834 768.745462 0.00129581
12.92591 772.23773 773.07178 769.093502 0.001294938
12.93472 773.1557 773.650221 769.442663 0.001293401
12.94352 774.42188 774.269004 769.792991 0.001291286
12.95232 775.46796 774.933437 770.144375 0.001289544
12.96112 776.24542 775.651021 770.496981 0.001288252
12.96992 776.41309 776.431124 770.850696 0.001287974
12.97873 777.39478 777.286042 771.205527 0.001286348
12.98753 778.44495 778.232043 771.561599 0.001284612
12.99633 779.97083 779.290033 771.9188 0.001282099
13.00513 781.54816 780.487875 772.277173 0.001279512
13.01393 782.68115 781.863369 772.636725 0.001277659
13.02274 785.39673 783.467871 772.997501 0.001273242
13.03154 788.79315 785.373455 773.359425 0.001267759
13.04034 792.9129 787.686986 773.722499 0.001261173
13.04914 797.77185 790.594774 774.086853 0.001253491
13.05795 805.69263 794.525764 774.452366 0.001241168
13.06675 817.04059 800.74293 774.819082 0.001223929
13.07555 834.2149 813.037831 775.187005 0.001198732
13.08435 863.34344 841.178882 775.556179 0.001158288
13.09315 917.88141 904.784398 775.926481 0.001089465
13.10196 1022.735 1031.511177 776.298039 0.00097777
13.11076 1214.5032 1240.728994 776.670855 0.000823382
13.11956 1517.9777 1514.19935 777.044803 0.000658771
13.12836 1828.4263 1774.321374 777.420055 0.000546918
13.13716 1997.7209 1898.067761 777.796484 0.00050057
13.14597 1867.7262 1806.697248 778.174174 0.00053541
13.15477 1562.8312 1560.584659 778.552999 0.000639864
13.16357 1264.9728 1283.994337 778.933086 0.000790531
13.17237 1070.1879 1063.984102 779.314435 0.000934415
13.18117 959.31335 927.265455 779.696915 0.001042412
13.18998 902.66815 858.761007 780.080699 0.001107827
13.19878 877.21906 832.15505 780.465655 0.001139966
13.20758 870.90894 829.410414 780.851824 0.001148226
13.21638 880.19049 844.524358 781.239204 0.001136118
13.22518 903.97736 877.974701 781.627792 0.001106222
13.23399 942.70612 928.214368 782.017586 0.001060776
13.24279 987.64069 984.539135 782.408583 0.001012514
13.25159 1026.8865 1026.34726 782.800822 0.000973817
13.26039 1042.4172 1033.43234 783.194212 0.000959309
13.26920 1030.0707 1006.055617 783.588793 0.000970807
13.27800 1001.2372 966.256125 783.984559 0.000998764
13.28680 975.97388 933.976495 784.381507 0.001024618
13.29560 957.26447 913.756997 784.779629 0.001044643
13.30440 937.01343 897.243051 785.178922 0.001067221
13.31321 909.35175 876.199024 785.579425 0.001099684
13.32201 879.05682 851.86424 785.980994 0.001137583
13.33081 853.91547 829.751649 786.383805 0.001171076
13.33961 834.9317 813.69601 786.787715 0.001197703
13.34841 823.05737 804.254445 787.192715 0.001214982
13.35722 816.22131 799.857857 787.598937 0.001225158
13.36602 813.09009 798.778523 788.006233 0.001229876
13.37482 813.23657 800.401443 788.414689 0.001229654
13.38362 817.44714 805.413266 788.824155 0.001223321
13.39243 825.00458 815.067536 789.23481 0.001212114
13.40123 837.81006 829.578304 789.646503 0.001193588
13.41003 853.33392 846.394493 790.059226 0.001171874
13.41883 868.09845 859.644421 790.473109 0.001151943
13.42763 874.20367 862.417646 790.888 0.001143898
13.43644 870.6131 853.041124 791.303936 0.001148616
13.44524 858.23395 837.12317 791.720905 0.001165183
13.45404 842.20898 821.44716 792.138945 0.001187354
13.46284 827.46338 809.934232 792.557901 0.001208513
13.47164 815.98505 803.2334 792.977903 0.001225513
13.48045 808.29401 800.092342 793.39894 0.001237174
13.48925 803.8844 798.940726 793.820855 0.00124396
13.49805 800.64996 798.700299 794.243827 0.001248985
13.50685 799.26965 798.846756 794.667699 0.001251142
13.51566 798.83008 799.178589 795.092554 0.001251831
13.52446 798.06909 799.619848 795.518232 0.001253024
13.53326 797.92694 800.122337 795.944865 0.001253248
13.54206 798.20691 800.642432 796.372439 0.001252808
13.55086 799.27905 801.171623 796.800792 0.001251128
13.55967 800.8042 801.793179 797.230105 0.001248745
13.56847 802.56982 802.709808 797.660215 0.001245998
13.57727 804.32813 804.323826 798.091157 0.001243274
13.58607 806.87231 807.394779 798.522913 0.001239353
13.59487 811.48212 813.221512 798.955468 0.001232313
13.60368 819.06555 823.650998 799.388805 0.001220904
13.61248 830.62506 840.519815 799.822907 0.001203913
13.62128 847.46515 864.099451 800.257806 0.00117999
13.63008 869.77661 891.249517 800.693387 0.001149721
13.63889 890.66528 914.814649 801.129681 0.001122756
13.64769 898.37122 924.814476 801.566671 0.001113126
13.65649 891.14587 914.902878 802.004336 0.001122151
13.66529 873.18658 890.182554 802.442661 0.001145231
13.67409 853.21704 861.869477 802.881624 0.001172035
13.68290 837.25787 838.518906 803.321259 0.001194375
13.69170 824.46301 823.405219 803.761394 0.001212911
13.70050 816.08221 815.704958 804.202212 0.001225367
13.70930 811.51886 813.099529 804.643541 0.001232257
13.71810 809.737 813.691842 805.085362 0.001234969
13.72691 808.78784 816.403984 805.527805 0.001236418
13.73571 809.24854 820.395384 805.970699 0.001235714
13.74451 810.15485 824.445234 806.414124 0.001234332
13.75331 811.18134 826.876522 806.857908 0.00123277
13.76211 812.10974 826.443485 807.30223 0.001231361
13.77092 812.09027 823.583136 807.746919 0.00123139
13.77972 810.88446 819.881248 808.191953 0.001233221
13.78852 809.25067 816.704279 808.637461 0.001235711
13.79732 808.02496 814.664937 809.083269 0.001237586
13.80612 807.55627 813.720517 809.529406 0.001238304
13.81493 807.39606 813.519425 809.97585 0.00123855
13.82373 807.16602 813.716326 810.422628 0.001238902
13.83253 807.38495 814.095979 810.869566 0.001238567
13.84133 806.54425 814.557637 811.316792 0.001239858
13.85014 805.60962 815.064487 811.764283 0.001241296
13.85894 806.37042 815.605661 812.211914 0.001240125
13.86774 807.30725 816.179266 812.659713 0.001238686
13.87654 808.02222 816.787361 813.107655 0.00123759
13.88534 808.63068 817.433944 813.555768 0.001236658
13.89415 809.4671 818.124986 814.003875 0.001235381
13.90295 809.68512 818.870076 814.452103 0.001235048
13.91175 811.38 819.679932 814.90043 0.001232468
13.92055 813.55688 820.572085 815.348676 0.00122917
13.92935 815.65717 821.573229 815.797022 0.001226005
13.93816 818.7677 822.73101 816.24529 0.001221348
13.94696 823.43243 824.157903 816.693505 0.001214429
13.95576 828.64954 826.164926 817.141643 0.001206783
13.96456 835.54596 829.578336 817.589678 0.001196822
13.97337 845.81042 836.325892 818.037635 0.001182298
13.98217 860.85132 850.11848 818.485337 0.001161641
13.99097 883.38464 876.539575 818.932962 0.00113201
13.99977 916.63507 921.518168 819.38033 0.001090947
14.00857 964.97595 987.668607 819.827468 0.001036295
14.01738 1028.7086 1069.387302 820.274348 0.000972093
14.02618 1102.424 1149.640493 820.720947 0.000907092
14.03498 1161.7677 1204.793827 821.167236 0.000860757
14.04378 1177.7418 1215.943628 821.61319 0.000849083
14.05259 1138.348 1176.031845 822.058834 0.000878466
14.06139 1071.6378 1099.040958 822.503989 0.000933151
14.07019 1003.3079 1012.902633 822.948832 0.000996703
14.07899 952.25824 940.132074 823.393183 0.001050135
14.08779 915.31287 890.183478 823.837068 0.001092523
14.09660 890.28394 861.641378 824.28046 0.001123237
14.10540 873.94012 847.952368 824.723331 0.001144243
14.11420 864.29828 842.552781 825.165707 0.001157008
14.12300 857.64819 841.094008 825.60741 0.001165979
14.13180 855.46423 841.40378 826.048613 0.001168956
14.14061 856.99933 842.76233 826.489139 0.001166862
14.14941 864.7085 845.601629 826.928963 0.001156459
14.15821 879.15161 851.945166 827.368207 0.00113746
14.16701 902.90442 866.132304 827.806695 0.001107537
14.17581 939.26874 895.096474 828.24445 0.001064658
14.18462 997.93201 945.730976 828.681445 0.001002072
14.19342 1085.717 1019.37762 829.117704 0.00092105
14.20222 1199.604 1105.240418 829.5531 0.000833608
14.21102 1299.5345 1178.405262 829.987607 0.000769506
14.21983 1330.0444 1207.997818 830.421347 0.000751855
14.22863 1285.1472 1180.171937 830.854145 0.000778121
14.23743 1197.6506 1115.038032 831.286024 0.000834968
14.24623 1121.3365 1050.322063 831.716958 0.000891793
14.25503 1081.8384 1022.015351 832.146919 0.000924352
14.26384 1093.6276 1056.838018 832.575883 0.000914388
14.27264 1174.7106 1167.115801 833.003822 0.000851273
14.28144 1350.1302 1342.422738 833.430759 0.000740669
14.29024 1579.5372 1540.927362 833.856522 0.000633097
14.29904 1737.405 1691.742164 834.281279 0.000575571
14.30785 1711.9629 1721.872191 834.704859 0.000584125
14.31665 1529.8992 1613.552791 835.127284 0.000653638
14.32545 1324.995 1421.954726 835.54853 0.00075472
14.33425 1167.9174 1221.12584 835.968569 0.000856225
14.34305 1069.554 1060.993657 836.387425 0.000934969
14.35186 1007.1992 957.409388 836.804928 0.000992852
14.36066 966.3208 901.666125 837.221244 0.001034853
14.36946 937.76068 877.053591 837.636206 0.00106637
14.37826 919.42291 870.384196 838.049835 0.001087639
14.38706 907.74036 875.451913 838.462107 0.001101637
14.39587 901.0896 890.946234 838.872998 0.001109768
14.40467 899.50793 916.272376 839.282481 0.001111719
14.41347 902.48639 947.640385 839.690534 0.00110805
14.42227 909.47858 976.286385 840.097178 0.001099531
14.43108 916.37207 990.422212 840.502296 0.00109126
14.43988 922.01434 982.457779 840.905911 0.001084582
14.44868 921.58655 956.398735 841.307998 0.001085085
14.45748 914.19977 923.529868 841.708536 0.001093853
14.46628 901.16949 893.727559 842.107499 0.001109669
14.47509 887.41901 871.70537 842.504865 0.001126863
14.48389 876.16766 857.310887 842.900655 0.001141334
14.49269 868.61737 847.976577 843.294713 0.001151255
14.50149 863.51245 841.353901 843.687195 0.001158061
14.51029 862.00568 836.740891 844.077944 0.001160085
14.51910 863.94031 835.196026 844.46694 0.001157487
14.52790 867.51233 838.712296 844.854291 0.001152721
14.53670 871.70831 848.873694 845.239844 0.001147173
14.54550 875.87048 866.285558 845.623622 0.001141721
14.55430 881.88098 890.324189 846.005604 0.00113394
14.56311 891.0838 918.048442 846.385769 0.001122229
14.57191 901.15863 943.337664 846.764138 0.001109683
14.58071 908.40637 957.90344 847.140563 0.001100829
14.58951 911.24066 955.736259 847.515194 0.001097405
14.59832 905.15656 938.861246 847.887884 0.001104781
14.60712 894.62506 915.684827 848.258656 0.001117787
14.61592 884.3855 894.90477 848.627489 0.001130729
14.62472 876.56573 882.487133 848.994366 0.001140816
14.63352 874.45782 881.392889 849.359267 0.001143566
14.64233 878.89056 892.169042 849.722173 0.001137798
14.65113 889.90295 912.903816 850.083108 0.001123718
14.65993 905.19067 938.406862 850.44193 0.00110474
14.66873 920.33124 960.218565 850.798785 0.001086565
14.67754 928.45685 969.171827 851.153534 0.001077056
14.68634 924.38605 961.49815 851.5062 0.001081799
14.69514 910.32819 942.66891 851.856766 0.001098505
14.70394 893.12244 922.440854 852.205216 0.001119667
14.71274 880.86987 908.645888 852.551574 0.001135241
14.72155 873.3999 904.353104 852.895705 0.001144951
14.73035 870.21521 907.890709 853.23775 0.001149141
14.73915 870.047 914.846284 853.577579 0.001149363
14.74795 871.66211 921.000592 853.915214 0.001147234
14.75675 875.55225 925.1435 854.250641 0.001142136
14.76556 882.88562 928.87606 854.583846 0.00113265
14.77436 892.36218 933.119222 854.914816 0.001120621
14.78316 900.55389 935.994354 855.243536 0.001110428
14.79196 902.44287 933.918021 855.570032 0.001108103
14.80077 897.07831 925.597514 855.894216 0.00111473
14.80957 889.17963 914.497166 856.216076 0.001124632
14.81837 884.19897 906.532102 856.53571 0.001130967
14.82717 884.67371 907.059246 856.852997 0.00113036
14.83597 891.91241 918.775458 857.167962 0.001121186
14.84478 906.27686 940.53544 857.480594 0.001103416
14.85358 925.83838 967.51307 857.790918 0.001080102
14.86238 946.83496 992.915088 858.098819 0.00105615
14.87118 965.49048 1011.595012 858.404392 0.001035743
14.87998 979.2561 1024.185155 858.707627 0.001021183
14.88879 991.18237 1034.968211 859.008412 0.001008896
14.89759 1001.2384 1044.565316 859.306876 0.000998763
14.90639 999.4967 1047.033326 859.602908 0.001000504
14.91519 980.37665 1034.315392 859.896567 0.001020016
14.92399 949.30914 1005.419844 860.187747 0.001053398
14.93280 918.81445 968.15127 860.47654 0.001088359
14.94160 895.68042 932.23691 860.76294 0.00111647
14.95040 881.85419 904.222204 861.046842 0.001133974
14.95920 872.72327 885.998837 861.32837 0.001145839
14.96800 867.57147 876.045971 861.607422 0.001152643
14.97681 865.03998 871.687712 861.884026 0.001156016
14.98561 864.79462 870.840325 862.158177 0.001156344
14.99441 864.1413 872.623362 862.429872 0.001157218
15.00321 864.35284 877.078997 862.699105 0.001156935
15.01201 867.08118 884.40649 862.965875 0.001153295
15.02082 871.65387 894.053878 863.230209 0.001147244
15.02962 876.11005 904.123926 863.492043 0.001141409
15.03842 882.26422 911.525649 863.751406 0.001133447
15.04722 888.7666 913.236686 864.008297 0.001125155
15.05603 893.13257 908.55595 864.262714 0.001119655
15.06483 894.07739 899.794807 864.514657 0.001118471
15.07363 891.45581 890.285255 864.764126 0.001121761
15.08243 886.9267 882.641877 865.011149 0.001127489
15.09123 883.23328 878.278513 865.255642 0.001132204
15.10004 882.49182 877.863992 865.497718 0.001133155
15.10884 886.23181 882.183347 865.737296 0.001128373
15.11764 894.67902 892.674148 865.974377 0.001117719
15.12644 911.37982 911.083277 866.209046 0.001097237
15.13524 940.91998 938.10932 866.441224 0.00106279
15.14405 979.41144 971.62629 866.670967 0.001021021
15.15285 1021.7951 1005.495136 866.898201 0.00097867
15.16165 1046.2919 1030.701123 867.123034 0.000955756
15.17045 1047.7026 1039.312369 867.345393 0.000954469
15.17925 1026.4758 1028.469535 867.565284 0.000974207
15.18806 994.53571 1002.532523 867.782786 0.001005494
15.19686 957.25299 971.057404 867.997832 0.001044656
15.20566 929.91559 942.770554 868.210452 0.001075366
15.21446 910.95868 921.97262 868.420653 0.001097745
15.22327 898.55353 908.473765 868.628465 0.0011129
15.23207 891.35931 899.685454 868.833826 0.001121882
15.24087 885.98132 893.326558 869.036815 0.001128692
15.24967 883.04462 888.727936 869.237438 0.001132446
15.25848 884.43298 886.57913 869.43566 0.001130668
15.26728 889.32043 888.398462 869.631511 0.001124454
15.27608 897.93268 895.977355 869.825003 0.001113669
15.28488 912.80908 910.584046 870.016167 0.001095519
15.29368 935.10687 931.75359 870.204949 0.001069396
15.30249 966.68304 956.217488 870.391424 0.001034465
15.31129 997.71118 977.870453 870.575603 0.001002294
15.32009 1013.9096 989.728027 870.757436 0.000986281
15.32889 1003.5402 988.253369 870.937018 0.000996472
15.33769 978.29468 976.734651 871.114299 0.001022187
15.34650 953.23181 962.516531 871.289314 0.001049063
15.35530 939.02997 951.545488 871.462076 0.001064929
15.36410 931.62054 945.388896 871.632599 0.001073398
15.37290 930.61169 941.361663 871.800916 0.001074562
15.38170 925.3042 935.286058 871.966985 0.001080726
15.39051 916.92438 925.260559 872.130897 0.001090602
15.39931 902.7959 912.713643 872.292611 0.00110767
15.40811 891.33441 900.368917 872.452162 0.001121913
15.41691 880.56976 890.374101 872.609566 0.001135628
15.42572 874.70685 883.559024 872.764841 0.00114324
15.43452 869.87628 879.588869 872.918002 0.001149589
15.44332 867.34161 877.590913 873.069069 0.001152948
15.45212 865.75708 876.718811 873.218075 0.001155058
15.46092 865.39575 876.397942 873.364989 0.001155541
15.46973 865.13385 876.321785 873.509896 0.001155891
15.47853 864.69849 876.355632 873.652765 0.001156472
15.48733 865.0448 876.450225 873.793634 0.001156009
15.49613 866.02069 876.59094 873.93252 0.001154707
15.50493 867.4267 876.787485 874.069446 0.001152835
15.51374 868.75903 877.083008 874.204446 0.001151067
15.52254 870.79553 877.599381 874.337495 0.001148375
15.53134 874.38477 878.624011 874.468677 0.001143661
15.54014 879.47107 880.71968 874.597967 0.001137047
15.54894 885.40448 884.769702 874.725388 0.001129427
15.55775 894.18768 891.794397 874.851006 0.001118333
15.56655 904.99158 902.398881 874.974799 0.001104983
15.57535 918.45831 915.99086 875.096807 0.001088781
15.58415 933.56403 930.243265 875.217051 0.001071164
15.59296 949.87292 941.340699 875.33557 0.001052772
15.60176 962.30481 945.390426 875.452347 0.001039172
15.61056 969.6449 940.956001 875.567447 0.001031305
15.61936 964.98669 930.278427 875.680893 0.001036284
15.62816 954.09241 917.336732 875.792686 0.001048117
15.63697 939.33777 905.466372 875.902863 0.00106458
15.64577 926.03497 896.344379 876.01145 0.001079873
15.65457 912.95453 890.130886 876.118486 0.001095345
15.66337 903.89398 886.238609 876.223959 0.001106324
15.67217 896.36163 883.932151 876.327934 0.001115621
15.68098 891.5589 882.652235 876.430435 0.001121631
15.68978 888.28241 882.048895 876.531456 0.001125768
15.69858 886.93713 881.910527 876.631071 0.001127476
15.70738 886.25836 882.103956 876.729271 0.001128339
15.71618 887.02753 882.561359 876.826098 0.001127361
15.72499 889.64868 883.305123 876.921578 0.001124039
15.73379 894.03101 884.50583 877.015741 0.001118529
15.74259 901.61316 886.582135 877.108625 0.001109123
15.75139 911.9549 890.308755 877.200228 0.001096545
15.76020 926.07416 896.862858 877.290621 0.001079827
15.76900 944.16583 907.693909 877.379802 0.001059136
15.77780 970.37463 924.352122 877.467811 0.00103053
15.78660 999.54938 948.636353 877.554679 0.001000451
15.79540 1041.5876 983.485348 877.640434 0.000960073
15.80421 1087.186 1034.251182 877.725107 0.000919806
15.81301 1149.3936 1108.900988 877.80873 0.000870024
15.82181 1233.0348 1215.154746 877.891341 0.000811007
15.83061 1373.4097 1352.458477 877.972944 0.000728115
15.83942 1549.8264 1503.025085 878.053606 0.000645234
15.84822 1724.7458 1630.414056 878.133332 0.000579796
15.85702 1781.5029 1690.939899 878.212162 0.000561324
15.86582 1705.9962 1658.850866 878.290128 0.000586168
15.87462 1522.9276 1546.684515 878.36726 0.00065663
15.88343 1354.4243 1393.222568 878.443601 0.000738321
15.89223 1222.9136 1238.376477 878.519155 0.000817719
15.90103 1134.3186 1109.17133 878.59399 0.000881587
15.90983 1069.5793 1016.230596 878.668112 0.000934947
15.91863 1020.2753 957.019649 878.741553 0.000980128
15.92744 984.34229 922.798396 878.814372 0.001015907
15.93624 956.51385 904.44716 878.886575 0.001045463
15.94504 937.88464 895.072668 878.958205 0.001066229
15.95384 923.26373 890.350778 879.029294 0.001083114
15.96265 911.99146 887.889228 879.099882 0.001096501
15.97145 903.61121 886.488825 879.169987 0.001106671
15.98025 898.87854 885.597537 879.239642 0.001112497
15.98905 894.61627 884.986217 879.308904 0.001117798
15.99785 891.63068 884.586069 879.377783 0.001121541
16.00665 889.6629 884.427025 879.44632 0.001124021
16.01546 889.44165 884.629399 879.514548 0.001124301
16.02426 888.64832 885.399215 879.582508 0.001125305
16.03306 889.52679 886.974387 879.650218 0.001124193
16.04186 892.36658 889.494869 879.71772 0.001120616
16.05066 897.83002 892.816225 879.785039 0.001113797
16.05947 905.7074 896.381005 879.852225 0.001104109
16.06827 914.02478 899.263381 879.919311 0.001094062
16.07707 918.40057 900.464597 879.986314 0.001088849
16.08588 915.79309 899.475896 880.053285 0.00109195
16.09468 908.61151 896.673808 880.120241 0.00110058
16.10348 900.0481 893.014448 880.187208 0.001111052
16.11228 893.34021 889.456374 880.254257 0.001119394
16.12108 888.12909 886.625667 880.321393 0.001125962
16.12989 885.09839 884.727667 880.388662 0.001129818
16.13869 882.56207 883.665728 880.456084 0.001133065
16.14749 880.55603 883.220899 880.523708 0.001135646
16.15629 879.4588 883.193302 880.59155 0.001137063
16.16509 878.31885 883.450655 880.659637 0.001138539
16.17390 877.62042 883.915302 880.72804 0.001139445
16.18270 877.23718 884.52887 880.796761 0.001139943
16.19150 877.18707 885.225022 880.86585 0.001140008
16.20030 877.19287 885.920915 880.935322 0.00114
16.20911 877.57373 886.531312 881.005227 0.001139505
16.21790 877.784 886.97324 881.075565 0.001139232
16.22671 877.45227 887.151579 881.146409 0.001139663
16.23551 876.9455 886.988796 881.217783 0.001140322
16.24431 877.13019 886.507914 881.289703 0.001140082
16.25312 877.62616 885.85568 881.362218 0.001139437
16.26192 878.07886 885.231271 881.435344 0.00113885
16.27072 878.70435 884.829223 881.509128 0.001138039
16.27952 879.95221 884.838134 881.583569 0.001136425
16.28832 881.93018 885.479077 881.65874 0.001133877
16.29713 883.07147 887.040702 881.734665 0.001132411
16.30593 883.96484 889.84079 881.811357 0.001131267
16.31473 885.69446 894.082853 881.888864 0.001129058
16.32353 888.38831 899.637669 881.967201 0.001125634
16.33233 891.30646 905.912925 882.046396 0.001121949
16.34114 894.87012 911.918885 882.126499 0.001117481
16.34994 899.02222 916.591944 882.20753 0.00111232
16.35874 902.28235 919.358643 882.28953 0.001108301
16.36754 905.17621 920.443927 882.372508 0.001104757
16.37635 907.75757 920.379008 882.456513 0.001101616
16.38515 911.23303 919.336487 882.541555 0.001097414
16.39395 914.57849 917.04646 882.627663 0.0010934
16.40275 916.88409 913.313681 882.714885 0.00109065
16.41155 915.83453 908.505044 882.80324 0.0010919
16.42036 912.55725 903.380378 882.892766 0.001095822
16.42916 908.86487 898.749682 882.98347 0.001100274
16.43796 905.95331 895.284769 883.075401 0.00110381
16.44676 902.4491 893.528532 883.168544 0.001108096
16.45556 901.62952 894.117736 883.262989 0.001109103
16.46437 903.90686 898.182197 883.35872 0.001106309
16.47317 908.54724 907.642822 883.455775 0.001100658
16.48197 915.38019 925.059107 883.554191 0.001092442
16.49077 927.35272 952.775977 883.653971 0.001078338
16.49958 945.57874 991.467398 883.755163 0.001057553
16.50838 970.83496 1038.737003 883.857746 0.001030041
16.51718 1001.9035 1088.770774 883.961815 0.0009981
16.52598 1042.05 1133.374837 884.067346 0.000959647
16.53478 1086.0253 1165.234325 884.174377 0.000920789
16.54359 1137.6659 1181.708892 884.282943 0.000878993
16.55239 1195.903 1184.728247 884.393042 0.000836188
16.56119 1221.103 1177.096705 884.504697 0.000818932
16.56999 1198.9404 1160.993817 884.617956 0.00083407
16.57879 1164.2527 1138.8084 884.732842 0.00085892
16.58760 1115.4691 1112.643766 884.84935 0.000896484
16.59640 1083.0072 1083.526681 884.967515 0.000923355
16.60520 1052.2947 1052.360278 885.087371 0.000950304
16.61400 1026.9381 1020.490364 885.208912 0.000973769
16.62280 1001.7092 989.688585 885.332158 0.000998294
16.63161 978.9342 961.920359 885.457155 0.001021519
16.64041 957.20117 938.739786 885.583926 0.001044712
16.64921 939.27197 920.914509 885.712458 0.001064654
16.65801 925.50854 908.307128 885.842786 0.001080487
16.66681 915.36267 900.107793 885.974942 0.001092463
16.67562 908.40106 895.194009 886.108883 0.001100835
16.68442 904.12854 892.467974 886.244719 0.001106037
16.69322 901.68512 891.063299 886.382404 0.001109035
16.70202 900.24182 890.388699 886.521986 0.001110813
16.71082 899.39465 890.093396 886.66345 0.001111859
16.71963 898.5838 889.992219 886.806826 0.001112862
16.72843 897.37366 890.001029 886.952146 0.001114363
16.73723 897.25757 890.095218 887.099359 0.001114507
16.74603 897.60175 890.298267 887.248577 0.00111408
16.75483 897.76917 890.699737 887.399749 0.001113872
16.76364 898.44489 891.501547 887.55292 0.001113034
16.77244 900.56213 893.078517 887.70807 0.001110418
16.78124 903.10315 896.012321 887.865227 0.001107293
16.79004 907.54999 901.029042 888.024384 0.001101868
16.79885 913.63171 908.785431 888.18559 0.001094533
16.80765 922.22693 919.494039 888.348855 0.001084332
16.81645 933.86157 932.537277 888.514153 0.001070823
16.82525 949.17206 946.263171 888.68153 0.00105355
16.83405 961.26031 958.173606 888.850958 0.001040301
16.84286 967.90247 965.70143 889.022465 0.001033162
16.85166 965.43121 967.255393 889.196037 0.001035807
16.86046 956.58362 962.667945 889.371724 0.001045387
16.86926 944.28094 953.097091 889.549532 0.001059007
16.87806 932.99719 940.679959 889.729428 0.001071815
16.88687 923.93292 927.844406 889.911458 0.00108233
16.89567 917.57318 916.539382 890.095587 0.001089831
16.90447 912.72858 907.816055 890.281798 0.001095616
16.91327 909.67804 901.854647 890.470201 0.00109929
16.92207 908.0343 898.260252 890.660716 0.00110128
16.93088 907.25946 896.392158 890.853389 0.001102221
16.93968 906.35522 895.641845 891.04818 0.00110332
16.94848 905.79541 895.57214 891.245134 0.001104002
16.95728 906.63538 895.946246 891.444211 0.001102979
16.96608 908.17804 896.687114 891.645385 0.001101106
16.97489 909.69055 897.812437 891.848775 0.001099275
16.98369 911.38452 899.363345 892.054287 0.001097232
16.99249 914.42938 901.361099 892.261968 0.001093578
17.00129 918.75806 903.821648 892.471771 0.001088426
17.01010 923.97174 906.88486 892.683742 0.001082284
17.01890 930.84021 911.068887 892.897781 0.001074298
17.02770 941.77393 917.638849 893.114008 0.001061826
17.03650 957.82471 928.896303 893.332396 0.001044032
17.04530 982.06836 948.108736 893.552892 0.001018259
17.05411 1018.1671 978.917289 893.775543 0.000982157
17.06291 1070.6659 1024.345212 894.000292 0.000933998
17.07171 1143.4757 1085.480916 894.22716 0.000874527
17.08051 1229.6473 1160.439328 894.456116 0.000813241
17.08931 1326.3314 1243.847128 894.687205 0.000753959
17.09812 1401.2606 1326.97556 894.920421 0.000713643
17.10692 1439.0453 1398.682319 895.155704 0.000694905
17.11572 1436.1062 1447.794956 895.393099 0.000696327
17.12452 1410.5408 1464.857195 895.632545 0.000708948
17.13333 1366.6198 1443.430444 895.874032 0.000731732
17.14213 1309.2644 1384.185314 896.117605 0.000763788
17.15093 1230.2834 1298.644761 896.363227 0.000812821
17.15973 1155.0422 1205.61312 896.610916 0.000865769
17.16853 1095.9749 1124.294609 896.860605 0.00091243
17.17734 1060.835 1069.791605 897.112339 0.000942654
17.18614 1039.8057 1051.345035 897.366048 0.000961718
17.19494 1063.6569 1071.926127 897.62172 0.000940153
17.20374 1084.9617 1127.843758 897.8794 0.000921692
17.21254 1206.2096 1208.06462 898.139044 0.000829043
17.22135 1297.4856 1294.326298 898.40067 0.000770721
17.23015 1524.5551 1363.617825 898.664202 0.000655929
17.23895 1630.4801 1394.59705 898.929685 0.000613316
17.24775 1595.0504 1376.880686 899.196983 0.000626939
17.25656 1266.428 1317.230846 899.466262 0.000789622
17.26536 1208.6105 1234.733688 899.737384 0.000827396
17.27416 1056.8872 1150.481437 900.010361 0.000946175
17.28296 1027.7067 1079.836726 900.285207 0.00097304
17.29177 994.36163 1029.436465 900.561843 0.00100567
17.30057 983.40588 998.120248 900.840248 0.001016874
17.30937 972.26697 980.746043 901.120466 0.001028524
17.31817 964.80603 972.134346 901.40248 0.001036478
17.32697 958.01813 969.167477 901.686204 0.001043822
17.33578 955.00848 970.733315 901.971651 0.001047111
17.34458 954.86713 976.664975 902.258831 0.001047266
17.35338 958.47736 986.503354 902.547658 0.001043321
17.36218 966.151 998.492698 902.838109 0.001035035
17.37098 975.85223 1009.352773 903.130228 0.001024745
17.37979 981.21985 1015.032866 903.423993 0.00101914
17.38859 979.5517 1012.418138 903.719314 0.001020875
17.39739 970.20435 1001.172367 904.0162 0.001030711
17.40619 957.5224 983.977046 904.31466 0.001044362
17.41499 944.71655 964.931533 904.614535 0.001058519
17.42380 934.96216 947.785596 904.916002 0.001069562
17.43260 928.51001 934.924709 905.218901 0.001076994
17.44140 924.68677 927.066975 905.523274 0.001081447
17.45020 922.07849 923.594816 905.829025 0.001084506
17.45901 920.89691 923.180334 906.136162 0.001085898
17.46781 921.1662 924.383078 906.444694 0.00108558
17.47661 922.32062 926.093189 906.754451 0.001084222
17.48541 923.07062 927.821103 907.065616 0.001083341
17.49421 923.7785 929.782847 907.378021 0.001082511
17.50302 925.21985 932.623472 907.691707 0.001080824
17.51182 929.21252 936.846905 908.006573 0.00107618
17.52062 935.14148 942.315868 908.322626 0.001069357
17.52942 942.59302 948.048734 908.6398 0.001060903
17.53822 948.99084 952.440253 908.958136 0.001053751
17.54703 952.30261 953.882187 909.277603 0.001050086
17.55583 952.19275 951.60236 909.598098 0.001050208
17.56463 948.02325 946.117332 909.919662 0.001054826
17.57343 942.36835 938.865797 910.24219 0.001061156
17.58224 935.41315 931.464682 910.565686 0.001069046
17.59104 929.35486 925.158151 910.890081 0.001076015
17.59984 925.17499 920.574103 911.215415 0.001080877
17.60864 922.24579 917.795048 911.541656 0.00108431
17.61744 919.95636 916.610509 911.868695 0.001087008
17.62625 918.10706 916.779103 912.196536 0.001089198
17.63505 917.80023 918.182835 912.525182 0.001089562
17.64385 918.77179 920.816797 912.854448 0.00108841
17.65265 919.55396 924.652107 913.184524 0.001087484
17.66145 921.59473 929.435615 913.515225 0.001085076
17.67026 924.7937 934.567033 913.846591 0.001081322
17.67906 930.15784 939.116846 914.178511 0.001075086
17.68786 933.95294 942.064648 914.510985 0.001070718
17.69666 935.41229 942.704732 914.844016 0.001069047
17.70546 932.99231 941.056977 915.177414 0.00107182
17.71427 930.63794 937.888281 915.511372 0.001074532
17.72307 928.09369 934.312889 915.845698 0.001077477
17.73187 928.065 931.333092 916.180433 0.001077511
17.74067 929.04254 929.561009 916.515462 0.001076377
17.74948 931.33972 929.130442 916.850785 0.001073722
17.75828 933.67981 929.813685 917.186326 0.001071031
17.76708 937.03296 931.238793 917.522122 0.001067198
17.77588 941.73175 933.116289 917.858135 0.001061874
17.78468 948.17352 935.377365 918.194249 0.001054659
17.79349 957.77173 938.142294 918.530501 0.00104409
17.80229 972.14197 941.605719 918.866775 0.001028656
17.81109 991.41455 945.975027 919.20307 0.00100866
17.81989 1011.2719 951.512288 919.539308 0.000988854
17.82869 1023.6749 958.709565 919.875525 0.000976873
17.83750 1023.5118 968.555222 920.21168 0.000977028
17.84630 1019.5536 982.622084 920.547657 0.000980821
17.85510 1025.4133 1002.72964 920.883491 0.000975217
17.86390 1047.8007 1030.248057 921.219065 0.00095438
17.87270 1090.5829 1065.209051 921.554337 0.000916941
17.88151 1154.1517 1105.512414 921.889343 0.000866437
17.89031 1214.8429 1146.695066 922.224002 0.000823152
17.89911 1249.2883 1182.692527 922.558312 0.000800456
17.90791 1255.3821 1207.613645 922.892153 0.00079657
17.91672 1249.1119 1217.530816 923.225561 0.000800569
17.92552 1238.324 1210.736009 923.558416 0.000807543
17.93432 1217.115 1187.877286 923.890676 0.000821615
17.94312 1175.8978 1152.700446 924.222376 0.000850414
17.95192 1125.0328 1111.840613 924.553433 0.000888863
17.96073 1083.3036 1072.654908 924.883842 0.000923102
17.96953 1051.9484 1041.056582 925.213486 0.000950617
17.97833 1031.3707 1020.434364 925.542396 0.000969583
17.98713 1023.1795 1011.876537 925.870379 0.000977346
17.99593 1021.1101 1015.141402 926.197615 0.000979326
18.00474 1022.9638 1029.89945 926.523913 0.000977552
18.01354 1028.0869 1056.27839 926.849264 0.00097268
18.02234 1036.4561 1093.973294 927.173662 0.000964826
18.03114 1050.1415 1140.32341 927.49699 0.000952253
18.03995 1069.676 1188.849956 927.819276 0.000934863
18.04875 1092.285 1229.590507 928.14033 0.000915512
18.05755 1109.3162 1251.665545 928.460327 0.000901456
18.06635 1112.2374 1247.527852 928.779075 0.000899089
18.07515 1095.217 1217.130917 929.096567 0.000913061
18.08396 1064.6448 1167.9737 929.412793 0.00093928
18.09276 1031.0325 1111.155554 929.727637 0.000969902
18.10156 1001.0445 1057.046632 930.041054 0.000998957
18.11036 978.79175 1012.522613 930.35307 0.001021668
18.11916 963.01526 980.184471 930.663639 0.001038405
18.12797 951.56091 959.223024 930.972644 0.001050905
18.13677 943.45215 946.987381 931.280077 0.001059937
18.14557 938.72675 940.519955 931.585925 0.001065273
18.15437 935.45502 937.410954 931.890073 0.001068998
18.16317 932.49646 936.0542 932.192475 0.00107239
18.17198 930.18787 935.5342 932.493155 0.001075052
18.18078 928.51123 935.38848 932.792065 0.001076993
18.18958 927.58679 935.406477 933.089091 0.001078066
18.19838 926.92108 935.503825 933.384221 0.00107884
18.20719 926.10944 935.643861 933.677441 0.001079786
18.21599 925.89502 935.811719 933.968572 0.001080036
18.22479 925.92261 936.000748 934.257766 0.001080004
18.23359 925.86798 936.207436 934.544843 0.001080068
18.24239 926.18121 936.430459 934.829789 0.001079702
18.25120 926.85785 936.671406 935.112589 0.001078914
18.26000 927.61151 936.937862 935.393131 0.001078038
18.26880 928.20087 937.25138 935.671432 0.001077353
18.27760 929.76605 937.662657 935.947318 0.001075539
18.28640 932.45508 938.278329 936.220929 0.001072438
18.29521 936.19385 939.294922 936.492093 0.001068155
18.30401 940.72772 941.03056 936.760792 0.001063007
18.31281 947.27362 943.922652 937.027009 0.001055661
18.32161 955.62756 948.454442 937.290634 0.001046433
18.33041 966.21832 954.982149 937.55162 0.001034963
18.33922 978.10425 963.491518 937.809978 0.001022386
18.34802 992.49115 973.362291 938.065658 0.001007566
18.35682 1008.2079 983.286391 938.318553 0.000991859
18.36562 1025.0442 991.474764 938.568643 0.000975568
18.37443 1037.9785 996.144064 938.815907 0.000963411
18.38323 1041.7147 996.194773 939.060239 0.000959956
18.39203 1034.778 991.736272 939.301591 0.000966391
18.40083 1019.5001 984.074172 939.539967 0.000980873
18.40963 1003.2993 975.146427 939.775317 0.000996712
18.41844 988.24048 966.837703 940.007538 0.001011899
18.42724 977.41998 960.44907 940.236606 0.001023102
18.43604 969.1521 956.501354 940.462496 0.00103183
18.44484 963.02747 954.781752 940.685056 0.001038392
18.45364 958.04456 954.585221 940.904387 0.001043793
18.46245 953.75305 955.022612 941.120338 0.001048489
18.47125 951.37109 955.301256 941.332906 0.001051115
18.48005 949.77893 954.948632 941.541993 0.001052877
18.48885 947.98853 953.907562 941.747571 0.001054865
18.49766 945.15723 952.452243 941.949611 0.001058025
18.50646 942.30078 951.009634 942.14797 0.001061232
18.51526 940.4754 949.998785 942.342733 0.001063292
18.52406 939.97083 949.782849 942.533758 0.001063863
18.53286 940.97461 950.643176 942.721035 0.001062728
18.54167 941.87164 952.849687 942.90447 0.001061716
18.55047 942.50055 956.68425 943.084031 0.001061007
18.55927 945.74335 962.380284 943.259646 0.001057369
18.56807 951.85846 969.96951 943.431302 0.001050576
18.57687 960.37891 979.084483 943.598945 0.001041256
18.58568 970.37317 988.839155 943.762483 0.001030531
18.59448 979.65137 997.93071 943.9219 0.001020771
18.60328 984.36383 1004.920692 944.077106 0.001015885
18.61208 983.80499 1008.719425 944.228065 0.001016462
18.62088 980.42462 1008.981666 944.374708 0.001019966
18.62969 977.56653 1006.119195 944.517013 0.001022948
18.63849 976.88696 1001.003996 944.654926 0.00102366
18.64729 977.65747 994.782989 944.78836 0.001022853
18.65609 979.81842 988.904637 944.917291 0.001020597
18.66490 982.00555 985.195534 945.041635 0.001018324
18.67370 987.42584 985.658328 945.16134 0.001012734
18.68250 997.65863 992.043549 945.276378 0.001002347
18.69130 1013.4073 1005.391791 945.38668 0.00098677
18.70010 1037.8553 1025.65472 945.492204 0.000963525
18.70891 1070.5345 1051.430191 945.592869 0.000934113
18.71771 1104.9041 1079.980795 945.688644 0.000905056
18.72651 1134.8176 1107.584523 945.779453 0.000881199
18.73531 1158.666 1130.415259 945.865241 0.000863061
18.74411 1175.4133 1145.442888 945.945974 0.000850765
18.75292 1181.573 1151.324971 946.021587 0.000846329
18.76172 1178.634 1149.144207 946.092031 0.00084844
18.77052 1164.567 1142.195547 946.157237 0.000858688
18.77932 1149.547 1134.2415 946.217164 0.000869908
18.78812 1138.8928 1127.583985 946.271732 0.000878046
18.79693 1136.3914 1121.995041 946.320919 0.000879979
18.80573 1131.6169 1115.098579 946.364662 0.000883691
18.81453 1123.4135 1103.878625 946.402897 0.000890144
18.82333 1104.2823 1086.645339 946.435578 0.000905566
18.83214 1074.5828 1064.137096 946.462645 0.000930594
18.84094 1044.2292 1038.991015 946.48405 0.000957644
18.84974 1019.0497 1014.492328 946.499732 0.000981306
18.85854 999.04224 993.389103 946.509649 0.001000959
18.86734 985.15979 977.29926 946.513745 0.001015064
18.87615 976.20819 966.686256 946.511966 0.001024372
18.88495 971.77179 961.358182 946.50426 0.001029048
18.89375 970.68225 961.130096 946.49058 0.001030203
18.90255 973.54602 966.328443 946.470876 0.001027173
18.91135 980.68988 977.904435 946.445096 0.00101969
18.92016 994.44714 997.055163 946.413191 0.001005584
18.92896 1020.0788 1024.420479 946.37511 0.000980316
18.93776 1067.3782 1059.029051 946.330813 0.000936875
18.94656 1138.2513 1097.592025 946.280246 0.000878541
18.95537 1223.6019 1134.416312 946.223373 0.000817259
18.96417 1290.8328 1162.490877 946.160152 0.000774694
18.97297 1304.9384 1175.415888 946.090527 0.00076632
18.98177 1262.2119 1169.830048 946.014462 0.00079226
18.99057 1191.4149 1146.961159 945.931907 0.000839338
18.99938 1120.8726 1112.025979 945.842841 0.000892162
19.00818 1067.8008 1071.999578 945.747206 0.000936504
19.01698 1033.2551 1033.450005 945.645012 0.000967815
19.02578 1011.523 1000.935893 945.536155 0.000988608
19.03458 998.06476 976.586335 945.420648 0.001001939
19.04339 989.53278 960.39145 945.298449 0.001010578
19.05219 983.88879 950.998743 945.169513 0.001016375
19.06099 979.55273 946.538137 945.033844 0.001020874
19.06979 975.04559 945.197011 944.891385 0.001025593
19.07859 970.10669 945.536609 944.742181 0.001030814
19.08740 964.03381 946.551907 944.58611 0.001037308
19.09620 958.86682 947.605069 944.423224 0.001042898
19.10500 955.0437 948.339375 944.25349 0.001047073
19.11380 951.32385 948.600742 944.076877 0.001051167
19.12261 948.04718 948.386474 943.893416 0.0010548
19.13141 946.46594 947.800317 943.703104 0.001056562
19.14021 945.48608 946.999499 943.505895 0.001057657
19.14901 944.02216 946.142569 943.301788 0.001059297
19.15781 942.77972 945.359398 943.090836 0.001060693
19.16662 941.66602 944.739213 942.873024 0.001061948
19.17542 940.88837 944.343132 942.648339 0.001062825
19.18422 940.39197 944.230355 942.416851 0.001063386
19.19302 940.26892 944.485558 942.178583 0.001063526
19.20182 941.00488 945.231436 941.933508 0.001062694
19.21063 941.78168 946.608943 941.681655 0.001061817
19.21943 942.72894 948.721897 941.423119 0.00106075
19.22823 945.40076 951.554149 941.157913 0.001057752
19.23703 948.44067 954.896959 940.886054 0.001054362
19.24583 952.6651 958.321231 940.607722 0.001049687
19.25464 958.15558 961.248996 940.322787 0.001043672
19.26344 964.14124 963.108291 940.031442 0.001037192
19.27224 968.26501 963.569679 939.733695 0.001032775
19.28104 970.13086 962.772781 939.429695 0.001030789
19.28985 968.89288 961.414386 939.119494 0.001032106
19.29865 965.82196 960.664733 938.803152 0.001035388
19.30745 963.31897 961.997287 938.480918 0.001038078
19.31625 963.21576 967.019858 938.152685 0.001038189
19.32505 966.51105 977.271793 937.81872 0.001034649
19.33386 973.50006 993.939783 937.479076 0.001027221
19.34266 983.65857 1017.443583 937.13397 0.001016613
19.35146 997.70807 1046.942103 936.783511 0.001002297
19.36026 1015.7805 1079.959718 936.4279 0.000984465
19.36906 1042.1519 1112.462667 936.067226 0.000959553
19.37787 1067.3046 1139.405304 935.701666 0.00093694
19.38667 1087.7926 1155.947669 935.331497 0.000919293
19.39547 1094.8164 1159.034474 934.956838 0.000913395
19.40427 1082.7866 1148.735658 934.577991 0.000923543
19.41307 1060.6218 1128.274674 934.19523 0.000942843
19.42188 1042.3889 1102.517672 933.80858 0.000959335
19.43068 1029.1265 1076.136669 933.418472 0.000971698
19.43948 1021.247 1052.247323 933.025088 0.000979195
19.44828 1017.3367 1031.969091 932.628805 0.000982959
19.45709 1010.4147 1014.897237 932.229832 0.000989693
19.46589 1000.1554 1000.081823 931.82858 0.000999845
19.47469 988.71179 986.884347 931.425428 0.001011417
19.48349 977.50317 975.264686 931.0205 0.001023015
19.49229 967.9129 965.642294 930.614348 0.001033151
19.50110 961.68011 958.533218 930.207269 0.001039847
19.50990 958.2641 954.240525 929.799763 0.001043554
19.51870 957.34735 952.718327 929.392165 0.001044553
19.52750 958.67322 953.65796 928.985109 0.001043108
19.53630 962.24835 956.689001 928.578833 0.001039233
19.54511 965.21259 961.579828 928.173876 0.001036041
19.55391 966.81598 968.296357 927.770844 0.001034323
19.56271 968.05115 976.881824 927.370186 0.001033003
19.57151 972.77423 987.129581 926.972556 0.001027988
19.58032 980.08264 998.288527 926.578453 0.001020322
19.58912 988.60248 1008.945237 926.188669 0.001011529
19.59792 995.68811 1017.266255 925.803625 0.001004331
19.60672 999.00909 1021.490678 925.424038 0.001000992
19.61552 999.03241 1020.578282 925.050693 0.001000969
19.62433 994.88281 1014.596885 924.684237 0.001005144
19.63313 988.55579 1004.645445 924.325514 0.001011577
19.64193 981.59454 992.46311 923.975314 0.001018751
19.65073 975.77356 979.998247 923.634383 0.001024828
19.65953 970.57306 968.958853 923.303623 0.001030319
19.66834 967.07953 960.447368 922.983894 0.001034041
19.67714 966.49591 954.817763 922.676202 0.001034666
19.68594 967.20245 951.72726 922.381447 0.00103391
19.69474 970.67297 950.352932 922.100706 0.001030213
19.70354 974.78625 949.687476 921.835023 0.001025866
19.71235 979.05963 948.848512 921.58543 0.001021388
19.72115 979.88367 947.323874 921.35309 0.001020529
19.72995 978.65619 945.04984 921.13916 0.001021809
19.73875 973.76349 942.29965 920.944912 0.001026943
19.74756 968.84656 939.478655 920.771573 0.001032155
19.75636 962.73309 936.954096 920.620533 0.001038709
19.76516 959.05157 934.954003 920.493059 0.001042697
19.77396 955.65759 933.574439 920.390638 0.0010464
19.78276 953.17358 932.843387 920.314727 0.001049127
19.79157 951.71863 932.808231 920.266852 0.001050731
19.80037 952.12732 933.609869 920.248609 0.00105028
19.80917 953.05609 935.498798 920.261637 0.001049256
19.81797 953.73309 938.763783 920.307624 0.001048511
19.82678 954.62091 943.57719 920.388364 0.001047536
19.83558 956.48523 949.7958 920.505662 0.001045494
19.84438 959.19592 956.833722 920.661419 0.00104254
19.85318 962.28662 963.673781 920.857622 0.001039191
19.86198 965.78851 969.052142 921.096255 0.001035423
19.87079 967.59973 971.813062 921.379408 0.001033485
19.87959 966.66888 971.306177 921.70932 0.00103448
19.88839 963.96179 967.665622 922.088259 0.001037386
19.89719 960.79175 961.780224 922.518468 0.001040808
19.90599 957.42383 954.999312 923.002398 0.00104447
19.91480 954.26727 948.771772 923.542605 0.001047924
19.92360 951.63373 944.365773 924.141544 0.001050824
19.93240 949.64368 942.693803 924.801858 0.001053027
19.94120 949.31561 944.259395 925.526453 0.00105339
19.95001 951.54333 949.141086 926.318197 0.001050924
19.95881 956.77301 956.974101 927.179851 0.00104518
19.96761 966.50256 966.920207 928.114542 0.001034658
19.97641 980.43939 977.686391 929.125528 0.001019951
19.98521 996.24567 987.650435 930.215566 0.001003768
19.99402 1004.7927 995.16448 931.388749 0.00099523
20.00282 1005.6925 998.932968 932.648029 0.00099434
20.01162 997.64978 998.396671 933.997265 0.001002356
20.02042 984.58191 993.906974 935.439836 0.00101566
20.02922 970.71924 986.601639 936.979693 0.001030164
20.03803 959.04602 978.017641 938.620955 0.001042703
20.04683 951.29413 969.654862 940.366891 0.0010512
20.05563 944.89758 962.632156 942.222871 0.001058316
20.06443 940.04187 957.555214 944.192399 0
20.07324 937.56024 0 0 0
20.08204 935.73145 0 0 0
20.09084 934.15253 0 0 0
20.09964 933.4538 0 0 0
20.10844 932.58771 0 0 0
20.11725 932.48077 0 0 0
20.12605 932.50946 0 0 0
20.13485 933.26001 0 0 0
20.14365 934.86963 0 0 0
20.15245 937.47351 0 0 0
20.16126 940.79962 0 0 0
20.17006 945.43317 0 0 0
20.17886 950.00372 0 0 0
20.18766 952.83801 0 0 0
20.19646 952.86188 0 0 0
20.20527 949.58807 0 0 0
20.21407 945.66797 0 0 0
20.22287 942.29626 0 0 0
20.23167 939.74438 0 0 0
20.24047 937.86383 0 0 0
20.24928 936.91309 0 0 0
20.25808 937.06995 0 0 0
20.26688 938.70233 0 0 0
20.27568 940.63147 0 0 0
20.28449 942.25568 0 0 0
20.29329 945.11395 0 0 0
20.30209 948.83258 0 0 0
20.31089 951.40936 0 0 0
20.31969 954.26904 0 0 0
20.32850 956.35693 0 0 0
20.33730 957.93365 0 0 0
20.34610 958.63593 0 0 0
20.35490 958.72479 0 0 0
20.36370 958.59753 0 0 0
20.37251 959.45313 0 0 0
20.38131 959.46735 0 0 0
20.39011 958.88269 0 0 0
20.39891 957.75446 0 0 0
20.40771 956.763 0 0 0
20.41652 955.3808 0 0 0
20.42532 954.2301 0 0 0
20.43412 952.43677 0 0 0
20.44292 950.14581 0 0 0
20.45172 947.19373 0 0 0
20.46053 944.89636 0 0 0
20.46933 943.25317 0 0 0
20.47813 941.76288 0 0 0
20.48693 940.11591 0 0 0
20.49574 939.84735 0 0 0
20.50454 938.96167 0 0 0
20.51334 938.72406 0 0 0
20.52214 939.50739 0 0 0
20.53094 940.53479 0 0 0
20.53975 940.849 0 0 0
20.54855 941.93719 0 0 0
20.55735 943.99084 0 0 0
20.56615 946.75165 0 0 0
20.57495 950.45947 0 0 0
20.58376 954.06177 0 0 0
20.59256 957.23065 0 0 0
20.60136 961.77344 0 0 0
20.61016 965.72357 0 0 0
20.61896 969.15991 0 0 0
20.62777 970.54877 0 0 0
20.63657 971.19263 0 0 0
20.64537 971.54352 0 0 0
20.65417 970.63135 0 0 0
20.66298 969.68506 0 0 0
20.67178 970.98218 0 0 0
20.68058 973.93152 0 0 0
20.68938 978.79541 0 0 0
20.69818 984.50452 0 0 0
20.70699 991.58466 0 0 0
20.71579 998.78473 0 0 0
20.72459 1003.0859 0 0 0
20.73339 1000.9313 0 0 0
20.74219 994.83984 0 0 0
20.75100 986.67804 0 0 0
20.75980 977.52112 0 0 0
20.76860 969.65472 0 0 0
20.77741 963.06274 0 0 0
20.78620 957.19147 0 0 0
20.79501 952.59943 0 0 0
20.80381 949.7627 0 0 0
20.81261 947.97919 0 0 0
20.82141 947.23376 0 0 0
20.83022 948.04108 0 0 0
20.83902 951.19592 0 0 0
20.84782 955.74536 0 0 0
20.85662 963.15063 0 0 0
20.86542 974.14349 0 0 0
20.87423 990.61847 0 0 0
20.88303 1014.9239 0 0 0
20.89183 1048.4447 0 0 0
20.90063 1094.3271 0 0 0
20.90943 1150.2351 0 0 0
20.91824 1192.9572 0 0 0
20.92704 1198.4805 0 0 0
20.93584 1166.598 0 0 0
20.94465 1115.1451 0 0 0
20.95345 1066.328 0 0 0
20.96225 1029.1902 0 0 0
20.97105 1002.8357 0 0 0
20.97985 984.25903 0 0 0
20.98866 971.94287 0 0 0
20.99746 963.55029 0 0 0
21.00626 956.92462 0 0 0
21.01506 952.25494 0 0 0
21.02386 949.26654 0 0 0
21.03267 947.755 0 0 0
21.04147 947.13531 0 0 0
21.05027 947.34894 0 0 0
21.05907 947.15741 0 0 0
21.06788 946.85229 0 0 0
21.07668 946.52533 0 0 0
21.08548 946.54437 0 0 0
21.09428 946.92175 0 0 0
21.10308 949.02252 0 0 0
21.11189 952.89075 0 0 0
21.12069 959.48779 0 0 0
21.12949 968.28027 0 0 0
21.13829 978.87793 0 0 0
21.14709 987.62457 0 0 0
21.15590 993.31787 0 0 0
21.16470 992.35071 0 0 0
21.17350 987.53247 0 0 0
21.18230 981.21179 0 0 0
21.19110 975.44403 0 0 0
21.19991 970.65448 0 0 0
21.20871 967.42151 0 0 0
21.21751 965.79089 0 0 0
21.22631 964.65356 0 0 0
21.23512 963.61115 0 0 0
21.24392 962.72571 0 0 0
21.25272 960.9895 0 0 0
21.26152 959.70526 0 0 0
21.27032 959.25598 0 0 0
21.27913 959.40582 0 0 0
21.28793 960.24628 0 0 0
21.29673 961.70557 0 0 0
21.30553 961.41241 0 0 0
21.31433 960.00372 0 0 0
21.32314 956.87836 0 0 0
21.33194 952.7193 0 0 0
21.34074 948.20898 0 0 0
21.34954 944.58417 0 0 0
21.35834 942.85529 0 0 0
21.36715 941.35419 0 0 0
21.37595 940.48145 0 0 0
21.38475 941.1521 0 0 0
21.39355 942.08191 0 0 0
21.40236 942.9278 0 0 0
21.41116 944.21692 0 0 0
21.41996 944.89532 0 0 0
21.42876 945.60974 0 0 0
21.43756 946.48798 0 0 0
21.44637 947.62372 0 0 0
21.45517 949.37854 0 0 0
21.46397 952.57831 0 0 0
21.47277 957.26935 0 0 0
21.48157 963.13428 0 0 0
21.49038 969.93756 0 0 0
21.49918 978.20667 0 0 0
21.50798 989.48193 0 0 0
21.51678 1005.0616 0 0 0
21.52558 1026.0048 0 0 0
21.53439 1049.6163 0 0 0
21.54319 1071.4567 0 0 0
21.55199 1095.8359 0 0 0
21.56079 1101.9468 0 0 0
21.56959 1120.0844 0 0 0
21.57840 1126.2478 0 0 0
21.58720 1119.1049 0 0 0
21.59600 1107.4889 0 0 0
21.60480 1088.9631 0 0 0
21.61360 1087.5288 0 0 0
21.62241 1085.4608 0 0 0
21.63121 1083.1498 0 0 0
21.64001 1065.5538 0 0 0
21.64881 1042.7469 0 0 0
21.65762 1021.526 0 0 0
21.66642 1003.2256 0 0 0
21.67522 987.95081 0 0 0
21.68402 976.48694 0 0 0
21.69282 969.30658 0 0 0
21.70163 966.38293 0 0 0
21.71043 964.828 0 0 0
21.71923 964.03278 0 0 0
21.72803 963.96692 0 0 0
21.73683 965.18219 0 0 0
21.74564 966.54382 0 0 0
21.75444 968.04028 0 0 0
21.76324 968.40857 0 0 0
21.77204 966.97974 0 0 0
21.78085 964.07825 0 0 0
21.78965 960.84631 0 0 0
21.79845 958.46704 0 0 0
21.80725 957.36493 0 0 0
21.81605 957.36884 0 0 0
21.82486 958.12769 0 0 0
21.83366 960.83813 0 0 0
21.84246 964.81866 0 0 0
21.85126 968.40997 0 0 0
21.86006 971.94409 0 0 0
21.86887 975.24493 0 0 0
21.87767 978.17139 0 0 0
21.88647 979.81531 0 0 0
21.89527 979.80042 0 0 0
21.90408 976.18628 0 0 0
21.91288 969.03625 0 0 0
21.92168 960.71832 0 0 0
21.93048 954.28143 0 0 0
21.93928 949.27795 0 0 0
21.94809 944.97302 0 0 0
21.95689 941.42236 0 0 0
21.96569 940.53381 0 0 0
21.97449 940.54028 0 0 0
21.98329 941.22205 0 0 0
21.99210 942.29578 0 0 0
22.00090 943.1731 0 0 0
22.00970 943.21503 0 0 0
22.01850 943.30585 0 0 0
22.02731 942.5899 0 0 0
22.03611 940.89087 0 0 0
22.04491 938.7608 0 0 0
22.05371 937.58673 0 0 0
22.06251 936.58435 0 0 0
22.07132 936.44403 0 0 0
22.08012 936.44849 0 0 0
22.08892 936.48474 0 0 0
22.09772 936.51331 0 0 0
22.10652 937.13177 0 0 0
22.11533 938.90381 0 0 0
22.12413 941.52393 0 0 0
22.13293 945.49207 0 0 0
22.14173 950.73779 0 0 0
22.15054 958.87219 0 0 0
22.15934 970.95935 0 0 0
22.16814 986.42517 0 0 0
22.17694 1004.1505 0 0 0
22.18574 1019.5347 0 0 0
22.19455 1026.2112 0 0 0
22.20335 1020.7883 0 0 0
22.21215 1006.2805 0 0 0
22.22095 991.32745 0 0 0
22.22975 978.80365 0 0 0
22.23856 970.6366 0 0 0
22.24736 967.42798 0 0 0
22.25616 969.42084 0 0 0
22.26496 975.15601 0 0 0
22.27376 986.53247 0 0 0
22.28257 1001.4453 0 0 0
22.29137 1013.1505 0 0 0
22.30017 1017.2946 0 0 0
22.30897 1012.0614 0 0 0
22.31778 1002.0625 0 0 0
22.32658 988.60132 0 0 0
22.33538 976.51642 0 0 0
22.34418 966.48737 0 0 0
22.35298 959.49866 0 0 0
22.36179 955.53961 0 0 0
22.37059 954.84766 0 0 0
22.37939 954.86346 0 0 0
22.38819 956.57758 0 0 0
22.39699 958.62671 0 0 0
22.40580 960.74329 0 0 0
22.41460 961.45123 0 0 0
22.42340 961.04669 0 0 0
22.43220 958.21332 0 0 0
22.44100 954.80463 0 0 0
22.44981 952.1886 0 0 0
22.45861 951.00977 0 0 0
22.46741 951.74976 0 0 0
22.47621 953.00293 0 0 0
22.48502 953.5401 0 0 0
22.49382 953.31335 0 0 0
22.50262 951.78931 0 0 0
22.51142 949.34851 0 0 0
22.52022 947.7041 0 0 0
22.52903 946.07263 0 0 0
22.53783 943.55334 0 0 0
22.54663 940.83441 0 0 0
22.55543 938.90607 0 0 0
22.56423 936.76709 0 0 0
22.57304 935.4101 0 0 0
22.58184 934.97461 0 0 0
22.59064 936.08887 0 0 0
22.59944 937.23779 0 0 0
22.60825 939.12927 0 0 0
22.61705 941.60083 0 0 0
22.62585 944.25354 0 0 0
22.63465 947.31268 0 0 0
22.64345 949.00317 0 0 0
22.65226 949.18146 0 0 0
22.66106 949.34003 0 0 0
22.66986 948.55566 0 0 0
22.67866 946.06207 0 0 0
22.68746 944.33844 0 0 0
22.69627 943.37085 0 0 0
22.70507 943.06482 0 0 0
22.71387 944.11481 0 0 0
22.72267 945.54535 0 0 0
22.73147 947.45599 0 0 0
22.74028 948.81787 0 0 0
22.74908 949.98322 0 0 0
22.75788 951.36621 0 0 0
22.76668 952.59692 0 0 0
22.77549 955.44092 0 0 0
22.78429 960.68787 0 0 0
22.79309 966.83679 0 0 0
22.80189 973.48029 0 0 0
22.81069 982.16357 0 0 0
22.81950 992.96619 0 0 0
22.82830 1009.1524 0 0 0
22.83710 1031.7617 0 0 0
22.84590 1058.748 0 0 0
22.85470 1083.7794 0 0 0
22.86351 1096.9409 0 0 0
22.87231 1091.2351 0 0 0
22.88111 1070.226 0 0 0
22.88991 1041.9879 0 0 0
22.89871 1015.8423 0 0 0
22.90752 995.33856 0 0 0
22.91632 980.29956 0 0 0
22.92512 971.12238 0 0 0
22.93392 966.24603 0 0 0
22.94273 964.70392 0 0 0
22.95153 964.87335 0 0 0
22.96033 965.3902 0 0 0
22.96913 966.16583 0 0 0
22.97793 966.96393 0 0 0
22.98674 966.91302 0 0 0
22.99554 965.50879 0 0 0
23.00434 962.24573 0 0 0
23.01314 958.828 0 0 0
23.02194 954.58667 0 0 0
23.03075 949.83923 0 0 0
23.03955 945.61737 0 0 0
23.04835 941.22803 0 0 0
23.05715 936.70557 0 0 0
23.06596 932.73169 0 0 0
23.07476 930.10052 0 0 0
23.08356 928.3988 0 0 0
23.09236 926.76404 0 0 0
23.10116 926.87457 0 0 0
23.10997 927.32745 0 0 0
23.11877 927.72937 0 0 0
23.12757 928.40533 0 0 0
23.13637 928.34955 0 0 0
23.14517 927.77869 0 0 0
23.15398 927.24744 0 0 0
23.16278 927.16827 0 0 0
23.17158 926.29272 0 0 0
23.18038 925.54498 0 0 0
23.18918 924.84631 0 0 0
23.19799 924.92786 0 0 0
23.20679 925.44366 0 0 0
23.21559 926.16809 0 0 0
23.22439 926.34656 0 0 0
23.23320 926.26385 0 0 0
23.24200 927.64771 0 0 0
23.25080 929.41376 0 0 0
23.25960 930.28741 0 0 0
23.26840 931.65613 0 0 0
23.27721 934.43085 0 0 0
23.28601 936.97955 0 0 0
23.29481 939.58801 0 0 0
23.30361 940.90253 0 0 0
23.31241 939.89478 0 0 0
23.32122 938.37225 0 0 0
23.33002 937.74646 0 0 0
23.33882 937.9209 0 0 0
23.34762 938.95935 0 0 0
23.35642 940.53967 0 0 0
23.36523 942.20721 0 0 0
23.37403 942.66187 0 0 0
23.38283 942.28082 0 0 0
23.39163 941.28101 0 0 0
23.40044 941.26672 0 0 0
23.40924 942.62903 0 0 0
23.41804 945.29303 0 0 0
23.42684 948.90271 0 0 0
23.43564 953.50006 0 0 0
23.44445 959.72339 0 0 0
23.45325 967.38452 0 0 0
23.46205 975.13306 0 0 0
23.47085 981.70862 0 0 0
23.47965 988.35089 0 0 0
23.48846 993.08075 0 0 0
23.49726 994.81293 0 0 0
23.50606 994.60901 0 0 0
23.51486 995.01776 0 0 0
23.52367 996.80457 0 0 0
23.53247 1002.4865 0 0 0
23.54127 1008.564 0 0 0
23.55007 1010.9322 0 0 0
23.55887 1005.1454 0 0 0
23.56768 993.90967 0 0 0
23.57648 980.13879 0 0 0
23.58528 967.62335 0 0 0
23.59408 957.64581 0 0 0
23.60288 950.5415 0 0 0
23.61169 945.89807 0 0 0
23.62049 943.25122 0 0 0
23.62929 943.07178 0 0 0
23.63809 943.84625 0 0 0
23.64689 946.30658 0 0 0
23.65570 950.20056 0 0 0
23.66450 955.90826 0 0 0
23.67330 964.22278 0 0 0
23.68210 972.99835 0 0 0
23.69091 979.98541 0 0 0
23.69971 984.73444 0 0 0
23.70851 985.71692 0 0 0
23.71731 981.68567 0 0 0
23.72611 972.64862 0 0 0
23.73492 962.31879 0 0 0
23.74372 953.22919 0 0 0
23.75252 946.12988 0 0 0
23.76132 940.79974 0 0 0
23.77012 937.3515 0 0 0
23.77893 934.62152 0 0 0
23.78773 932.37543 0 0 0
23.79653 930.76123 0 0 0
23.80533 929.12299 0 0 0
23.81414 928.18134 0 0 0
23.82294 927.95728 0 0 0
23.83174 927.43878 0 0 0
23.84054 926.72913 0 0 0
23.84934 926.08099 0 0 0
23.85815 924.73914 0 0 0
23.86695 923.82697 0 0 0
23.87575 924.32831 0 0 0
23.88455 925.12042 0 0 0
23.89335 924.8692 0 0 0
23.90216 923.75348 0 0 0
23.91096 922.58411 0 0 0
23.91976 922.42389 0 0 0
23.92856 922.6792 0 0 0
23.93736 922.30225 0 0 0
23.94617 922.2251 0 0 0
23.95497 923.01404 0 0 0
23.96377 923.91541 0 0 0
23.97257 925.42358 0 0 0
23.98137 926.74957 0 0 0
23.99018 927.84851 0 0 0
23.99898 930.06903 0 0 0
24.00778 932.15588 0 0 0
24.01658 933.62006 0 0 0
24.02539 934.93964 0 0 0
24.03419 936.61682 0 0 0
24.04299 938.6521 0 0 0
24.05179 941.06549 0 0 0
24.06059 943.16412 0 0 0
24.06940 944.16534 0 0 0
24.07820 945.15399 0 0 0
24.08700 945.73328 0 0 0
24.09580 946.36688 0 0 0
24.10460 949.19836 0 0 0
24.11341 953.10394 0 0 0
24.12221 955.97015 0 0 0
24.13101 957.12341 0 0 0
24.13981 958.98785 0 0 0
24.14862 962.68231 0 0 0
24.15742 967.93085 0 0 0
24.16622 973.94067 0 0 0
24.17502 980.9762 0 0 0
24.18382 986.34686 0 0 0
24.19263 990.07959 0 0 0
24.20143 995.03735 0 0 0
24.21023 1001.8141 0 0 0
24.21903 1012.3051 0 0 0
24.22783 1025.2682 0 0 0
24.23664 1043.7806 0 0 0
24.24544 1062.6246 0 0 0
24.25424 1084.3212 0 0 0
24.26304 1100.9966 0 0 0
24.27184 1111.1478 0 0 0
24.28065 1108.7908 0 0 0
24.28945 1093.722 0 0 0
24.29825 1072.3008 0 0 0
24.30705 1048.4366 0 0 0
24.31586 1026.8457 0 0 0
24.32466 1010.0308 0 0 0
24.33346 998.46857 0 0 0
24.34226 989.10876 0 0 0
24.35106 983.25208 0 0 0
24.35987 979.51227 0 0 0
24.36867 978.0108 0 0 0
24.37747 976.56158 0 0 0
24.38627 973.58679 0 0 0
24.39507 969.10065 0 0 0
24.40388 965.5376 0 0 0
24.41268 961.90985 0 0 0
24.42148 957.2616 0 0 0
24.43029 951.16663 0 0 0
24.43908 945.88397 0 0 0
24.44789 942.09448 0 0 0
24.45669 938.99139 0 0 0
24.46549 937.09039 0 0 0
24.47430 936.42157 0 0 0
24.48310 937.26898 0 0 0
24.49190 938.68951 0 0 0
24.50070 942.33466 0 0 0
24.50950 948.28369 0 0 0
24.51831 955.82025 0 0 0
24.52711 964.04834 0 0 0
24.53591 972.85437 0 0 0
24.54471 982.38544 0 0 0
24.55351 992.19177 0 0 0
24.56232 1004.9355 0 0 0
24.57112 1021.5646 0 0 0
24.57992 1043.1433 0 0 0
24.58872 1065.967 0 0 0
24.59753 1082.6388 0 0 0
24.60633 1085.649 0 0 0
24.61513 1073.3322 0 0 0
24.62393 1049.8156 0 0 0
24.63273 1023.3757 0 0 0
24.64154 999.95679 0 0 0
24.65034 980.44592 0 0 0
24.65914 966.24231 0 0 0
24.66794 956.29181 0 0 0
24.67674 949.64069 0 0 0
24.68555 944.383 0 0 0
24.69435 940.00574 0 0 0
24.70315 937.1626 0 0 0
24.71195 934.72839 0 0 0
24.72076 933.44739 0 0 0
24.72956 933.40582 0 0 0
24.73836 933.09344 0 0 0
24.74716 933.10437 0 0 0
24.75596 933.38696 0 0 0
24.76477 934.62396 0 0 0
24.77357 936.99982 0 0 0
24.78237 941.23663 0 0 0
24.79117 948.54236 0 0 0
24.79997 958.0777 0 0 0
24.80878 970.83527 0 0 0
24.81758 988.01221 0 0 0
24.82638 1007.4587 0 0 0
24.83518 1029.6191 0 0 0
24.84398 1053.8822 0 0 0
24.85279 1079.4519 0 0 0
24.86159 1105.9879 0 0 0
24.87039 1122.069 0 0 0
24.87919 1125.312 0 0 0
24.88800 1113.4607 0 0 0
24.89680 1095.0244 0 0 0
24.90560 1073.9349 0 0 0
24.91440 1054.1478 0 0 0
24.92320 1034.7031 0 0 0
24.93201 1015.1118 0 0 0
24.94081 995.26904 0 0 0
24.94961 977.54559 0 0 0
24.95841 962.64697 0 0 0
24.96721 951.07599 0 0 0
24.97602 944.9953 0 0 0
24.98482 941.5661 0 0 0
24.99362 939.22363 0 0 0
25.00242 938.54425 0 0 0
25.01122 939.2226 0 0 0
25.02003 940.06696 0 0 0
25.02883 942.60974 0 0 0
25.03763 944.49609 0 0 0
25.04643 944.98096 0 0 0
25.05523 944.87354 0 0 0
25.06404 944.62311 0 0 0
25.07284 943.82477 0 0 0
25.08164 942.64215 0 0 0
25.09044 940.83698 0 0 0
25.09924 939.84851 0 0 0
25.10805 938.41321 0 0 0
25.11685 936.96484 0 0 0
25.12565 935.24652 0 0 0
25.13445 932.53394 0 0 0
25.14325 931.08545 0 0 0
25.15206 932.5564 0 0 0
25.16086 936.28302 0 0 0
25.16966 941.75934 0 0 0
25.17846 950.15991 0 0 0
25.18727 958.92169 0 0 0
25.19607 962.9599 0 0 0
25.20487 960.46277 0 0 0
25.21367 953.60919 0 0 0
25.22247 944.93567 0 0 0
25.23128 937.39832 0 0 0
25.24008 932.28735 0 0 0
25.24888 928.74103 0 0 0
25.25768 925.09369 0 0 0
25.26648 922.60364 0 0 0
25.27529 922.14484 0 0 0
25.28409 921.38873 0 0 0
25.29289 921.68658 0 0 0
25.30169 922.47778 0 0 0
25.31049 922.87561 0 0 0
25.31930 924.60712 0 0 0
25.32810 928.0387 0 0 0
25.33690 933.05463 0 0 0
25.34570 939.63702 0 0 0
25.35451 947.51764 0 0 0
25.36331 956.25311 0 0 0
25.37211 963.23553 0 0 0
25.38091 965.65466 0 0 0
25.38971 963.70056 0 0 0
25.39852 958.28497 0 0 0
25.40732 952.99841 0 0 0
25.41612 946.84058 0 0 0
25.42492 941.83984 0 0 0
25.43372 938.74573 0 0 0
25.44253 935.26794 0 0 0
25.45133 931.8941 0 0 0
25.46013 928.73688 0 0 0
25.46893 926.35754 0 0 0
25.47774 924.17639 0 0 0
25.48654 921.84259 0 0 0
25.49534 920.15454 0 0 0
25.50414 919.92651 0 0 0
25.51294 919.85748 0 0 0
25.52175 919.70807 0 0 0
25.53055 919.32495 0 0 0
25.53935 919.60828 0 0 0
25.54815 920.19727 0 0 0
25.55695 919.33838 0 0 0
25.56576 917.26086 0 0 0
25.57456 914.98505 0 0 0
25.58336 912.58978 0 0 0
25.59216 910.04004 0 0 0
25.60096 908.52332 0 0 0
25.60977 907.67212 0 0 0
25.61857 906.63422 0 0 0
25.62737 905.58942 0 0 0
25.63618 904.1228 0 0 0
25.64498 902.99377 0 0 0
25.65378 902.82587 0 0 0
25.66258 902.32251 0 0 0
25.67138 902.37988 0 0 0
25.68019 902.08026 0 0 0
25.68899 900.94214 0 0 0
25.69779 901.33801 0 0 0
25.70659 901.87463 0 0 0
25.71539 901.9259 0 0 0
25.72420 901.45648 0 0 0
25.73300 901.17529 0 0 0
25.74180 902.27863 0 0 0
25.75060 903.02582 0 0 0
25.75940 902.70837 0 0 0
25.76821 902.45459 0 0 0
25.77701 902.48907 0 0 0
25.78581 903.06116 0 0 0
25.79461 904.37775 0 0 0
25.80342 904.65222 0 0 0
25.81222 905.50311 0 0 0
25.82102 906.92786 0 0 0
25.82982 909.12177 0 0 0
25.83862 911.57806 0 0 0
25.84743 913.14392 0 0 0
25.85623 914.97839 0 0 0
25.86503 917.55725 0 0 0
25.87383 918.26343 0 0 0
25.88263 916.11261 0 0 0
25.89144 914.08942 0 0 0
25.90024 912.02246 0 0 0
25.90904 909.99536 0 0 0
25.91784 909.04102 0 0 0
25.92664 909.36176 0 0 0
25.93545 910.24878 0 0 0
25.94425 910.72516 0 0 0
25.95305 911.24475 0 0 0
25.96185 912.11041 0 0 0
25.97066 914.12976 0 0 0
25.97946 917.55231 0 0 0
25.98826 922.37823 0 0 0
25.99706 927.25586 0 0 0
26.00586 930.48401 0 0 0
26.01467 932.21625 0 0 0
26.02347 933.65393 0 0 0
26.03227 934.21582 0 0 0
26.04107 933.52417 0 0 0
26.04987 931.67993 0 0 0
26.05868 928.63135 0 0 0
26.06748 926.9491 0 0 0
26.07628 926.49152 0 0 0
26.08508 926.20111 0 0 0
26.09388 927.79175 0 0 0
26.10269 929.89618 0 0 0
26.11149 931.12823 0 0 0
26.12029 932.52179 0 0 0
26.12909 932.49951 0 0 0
26.13790 930.52545 0 0 0
26.14670 926.10608 0 0 0
26.15550 921.07257 0 0 0
26.16430 916.49597 0 0 0
26.17310 912.27588 0 0 0
26.18191 909.68256 0 0 0
26.19071 908.10663 0 0 0
26.19951 906.28693 0 0 0
26.20831 904.44061 0 0 0
26.21711 902.88458 0 0 0
26.22592 901.2959 0 0 0
26.23472 900.17529 0 0 0
26.24352 898.85956 0 0 0
26.25232 897.96515 0 0 0
26.26113 897.59546 0 0 0
26.26993 897.78619 0 0 0
26.27873 898.26965 0 0 0
26.28753 898.26202 0 0 0
26.29633 898.77795 0 0 0
26.30514 899.72058 0 0 0
26.31394 900.34912 0 0 0
26.32274 900.26093 0 0 0
26.33154 901.26147 0 0 0
26.34034 902.61731 0 0 0
26.34915 902.13464 0 0 0
26.35795 901.18707 0 0 0
26.36675 901.87836 0 0 0
26.37555 902.65778 0 0 0
26.38435 903.15381 0 0 0
26.39316 903.41064 0 0 0
26.40196 904.55896 0 0 0
26.41076 907.24591 0 0 0
26.41956 910.44684 0 0 0
26.42837 914.3576 0 0 0
26.43717 918.3158 0 0 0
26.44597 923.34998 0 0 0
26.45477 929.16119 0 0 0
26.46357 935.71533 0 0 0
26.47238 944.09894 0 0 0
26.48118 954.29901 0 0 0
26.48998 964.18713 0 0 0
26.49878 967.31177 0 0 0
26.50758 963.55542 0 0 0
26.51639 960.65588 0 0 0
26.52519 960.47107 0 0 0
26.53399 964.74036 0 0 0
26.54279 973.18835 0 0 0
26.55159 982.23676 0 0 0
26.56040 985.63562 0 0 0
26.56920 979.82666 0 0 0
26.57800 966.87897 0 0 0
26.58680 951.25574 0 0 0
26.59561 936.89233 0 0 0
26.60441 925.48016 0 0 0
26.61321 917.98291 0 0 0
26.62201 913.05835 0 0 0
26.63081 908.94263 0 0 0
26.63962 906.2702 0 0 0
26.64842 904.78271 0 0 0
26.65722 903.93921 0 0 0
26.66602 903.5332 0 0 0
26.67482 903.5282 0 0 0
26.68363 904.13324 0 0 0
26.69243 904.80042 0 0 0
26.70123 905.45093 0 0 0
26.71003 906.37543 0 0 0
26.71884 906.61792 0 0 0
26.72764 905.87793 0 0 0
26.73644 905.07202 0 0 0
26.74524 904.81354 0 0 0
26.75404 905.177 0 0 0
26.76285 905.74811 0 0 0
26.77165 906.5332 0 0 0
26.78045 907.22986 0 0 0
26.78925 907.74402 0 0 0
26.79805 908.89032 0 0 0
26.80686 909.90955 0 0 0
26.81566 910.90015 0 0 0
26.82446 909.40546 0 0 0
26.83326 906.55591 0 0 0
26.84206 905.62927 0 0 0
26.85087 904.64026 0 0 0
26.85967 903.43134 0 0 0
26.86847 902.54761 0 0 0
26.87727 902.18933 0 0 0
26.88608 901.53131 0 0 0
26.89488 901.18958 0 0 0
26.90368 900.90106 0 0 0
26.91248 900.51556 0 0 0
26.92128 900.79242 0 0 0
26.93009 901.57867 0 0 0
26.93889 902.84167 0 0 0
26.94769 905.37537 0 0 0
26.95649 908.2973 0 0 0
26.96529 909.54565 0 0 0
26.97410 910.73029 0 0 0
26.98290 911.63409 0 0 0
26.99170 912.48029 0 0 0
27.00050 913.56104 0 0 0
27.00930 913.35156 0 0 0
27.01811 913.71698 0 0 0
27.02691 916.87756 0 0 0
27.03571 920.99036 0 0 0
27.04451 924.17389 0 0 0
27.05332 926.63348 0 0 0
27.06212 928.22845 0 0 0
27.07092 929.06738 0 0 0
27.07972 931.82617 0 0 0
27.08852 936.59375 0 0 0
27.09733 941.95056 0 0 0
27.10613 947.9303 0 0 0
27.11493 951.14093 0 0 0
27.12373 952.0083 0 0 0
27.13253 951.06372 0 0 0
27.14134 946.62518 0 0 0
27.15014 940.55389 0 0 0
27.15894 935.85968 0 0 0
27.16774 932.39203 0 0 0
27.17655 928.82556 0 0 0
27.18535 924.24207 0 0 0
27.19415 919.1875 0 0 0
27.20295 915.28937 0 0 0
27.21175 911.57648 0 0 0
27.22056 909.23224 0 0 0
27.22936 908.51965 0 0 0
27.23816 907.11987 0 0 0
27.24696 905.48474 0 0 0
27.25576 905.99725 0 0 0
27.26457 907.7478 0 0 0
27.27337 908.74481 0 0 0
27.28217 909.54944 0 0 0
27.29097 911.41644 0 0 0
27.29977 914.24182 0 0 0
27.30858 915.47113 0 0 0
27.31738 915.9621 0 0 0
27.32618 915.5788 0 0 0
27.33498 913.92365 0 0 0
27.34379 911.58398 0 0 0
27.35259 907.27533 0 0 0
27.36139 904.46277 0 0 0
27.37019 902.83301 0 0 0
27.37899 901.52545 0 0 0
27.38780 900.1087 0 0 0
27.39660 898.02856 0 0 0
27.40540 896.6427 0 0 0
27.41420 895.80688 0 0 0
27.42300 895.82715 0 0 0
27.43181 896.45953 0 0 0
27.44061 896.22931 0 0 0
27.44941 895.83893 0 0 0
27.45821 896.54797 0 0 0
27.46701 896.6825 0 0 0
27.47582 896.76581 0 0 0
27.48462 897.38641 0 0 0
27.49342 897.19977 0 0 0
27.50222 897.70905 0 0 0
27.51103 898.87799 0 0 0
27.51983 898.69891 0 0 0
27.52863 898.38525 0 0 0
27.53743 899.03906 0 0 0
27.54623 900.05939 0 0 0
27.55504 901.86963 0 0 0
27.56384 904.52545 0 0 0
27.57264 907.7323 0 0 0
27.58144 912.15186 0 0 0
27.59024 917.32141 0 0 0
27.59905 922.2605 0 0 0
27.60785 927.75745 0 0 0
27.61665 933.59882 0 0 0
27.62545 939.30359 0 0 0
27.63426 944.30646 0 0 0
27.64306 948.3241 0 0 0
27.65186 952.62244 0 0 0
27.66066 956.71259 0 0 0
27.66946 958.57507 0 0 0
27.67827 957.13 0 0 0
27.68707 953.94794 0 0 0
27.69587 951.01715 0 0 0
27.70467 948.31042 0 0 0
27.71347 943.46246 0 0 0
27.72228 937.62817 0 0 0
27.73108 932.78333 0 0 0
27.73988 927.39899 0 0 0
27.74868 920.73407 0 0 0
27.75748 915.82526 0 0 0
27.76629 913.68811 0 0 0
27.77509 911.85944 0 0 0
27.78389 911.64185 0 0 0
27.79269 912.50873 0 0 0
27.80150 912.35638 0 0 0
27.81030 911.92126 0 0 0
27.81910 911.71222 0 0 0
27.82790 911.45587 0 0 0
27.83670 910.4212 0 0 0
27.84551 909.10248 0 0 0
27.85431 908.57715 0 0 0
27.86311 908.83533 0 0 0
27.87191 910.12219 0 0 0
27.88071 910.71655 0 0 0
27.88952 910.61371 0 0 0
27.89832 911.23102 0 0 0
27.90712 910.86292 0 0 0
27.91592 909.57056 0 0 0
27.92472 907.7619 0 0 0
27.93353 905.93054 0 0 0
27.94233 904.99127 0 0 0
27.95113 904.58807 0 0 0
27.95993 904.3725 0 0 0
27.96874 903.0899 0 0 0
27.97754 902.91846 0 0 0
27.98634 905.38202 0 0 0
27.99514 906.4494 0 0 0
28.00394 906.62726 0 0 0
28.01275 907.11963 0 0 0
28.02155 907.87659 0 0 0
28.03035 910.77692 0 0 0
28.03915 914.29956 0 0 0
28.04796 918.83997 0 0 0
28.05676 925.18042 0 0 0
28.06556 931.91901 0 0 0
28.07436 939.26416 0 0 0
28.08316 947.10468 0 0 0
28.09196 956.39984 0 0 0
28.10077 966.74225 0 0 0
28.10957 977.34674 0 0 0
28.11837 988.15808 0 0 0
28.12717 998.80029 0 0 0
28.13598 1007.3724 0 0 0
28.14478 1015.0509 0 0 0
28.15358 1019.2775 0 0 0
28.16238 1017.8642 0 0 0
28.17119 1015.7284 0 0 0
28.17999 1011.9723 0 0 0
28.18879 1004.7244 0 0 0
28.19759 996.71954 0 0 0
28.20639 987.59821 0 0 0
28.21520 977.10925 0 0 0
28.22400 969.29724 0 0 0
28.23280 963.3399 0 0 0
28.24160 956.35797 0 0 0
28.25040 949.58466 0 0 0
28.25921 944.40417 0 0 0
28.26801 940.89063 0 0 0
28.27681 938.56677 0 0 0
28.28561 936.37091 0 0 0
28.29442 934.79779 0 0 0
28.30322 933.41229 0 0 0
28.31202 931.63116 0 0 0
28.32082 929.50763 0 0 0
28.32962 923.0199 0 0 0
28.33843 907.35925 0 0 0
28.34723 904.10956 0 0 0
28.35603 912.2417 0 0 0
28.36483 915.63367 0 0 0
28.37363 918.31177 0 0 0
28.38244 917.67621 0 0 0
28.39124 916.21484 0 0 0
28.40004 915.32855 0 0 0
28.40884 913.00311 0 0 0
28.41765 910.92645 0 0 0
28.42645 909.6629 0 0 0
28.43525 907.76611 0 0 0
28.44405 906.44513 0 0 0
28.45285 906.5686 0 0 0
28.46166 905.47949 0 0 0
28.47046 903.71692 0 0 0
28.47926 904.13342 0 0 0
28.48806 904.3894 0 0 0
28.49686 903.64606 0 0 0
28.50567 903.48126 0 0 0
28.51447 905.08514 0 0 0
28.52327 907.28143 0 0 0
28.53207 908.36835 0 0 0
28.54087 907.93976 0 0 0
28.54968 907.87701 0 0 0
28.55848 909.33881 0 0 0
28.56728 909.71082 0 0 0
28.57608 908.89764 0 0 0
28.58488 908.75098 0 0 0
28.59369 910.71307 0 0 0
28.60249 912.67511 0 0 0
28.61129 914.27563 0 0 0
28.62009 914.9679 0 0 0
28.62889 913.78839 0 0 0
28.63770 912.35834 0 0 0
28.64650 911.26416 0 0 0
28.65530 910.87561 0 0 0
28.66410 910.72632 0 0 0
28.67291 911.19086 0 0 0
28.68171 912.96735 0 0 0
28.69051 916.47687 0 0 0
28.69931 921.4267 0 0 0
28.70811 927.17261 0 0 0
28.71692 932.29926 0 0 0
28.72572 934.08148 0 0 0
28.73452 932.59521 0 0 0
28.74332 929.23285 0 0 0
28.75212 923.5907 0 0 0
28.76093 917.45728 0 0 0
28.76973 912.66058 0 0 0
28.77853 910.58551 0 0 0
28.78733 910.48102 0 0 0
28.79613 910.13904 0 0 0
28.80494 912.052 0 0 0
28.81374 915.65088 0 0 0
28.82254 919.38855 0 0 0
28.83134 924.6413 0 0 0
28.84014 929.85553 0 0 0
28.84895 933.94574 0 0 0
28.85775 935.79602 0 0 0
28.86655 934.77545 0 0 0
28.87535 931.13928 0 0 0
28.88416 926.10547 0 0 0
28.89296 921.61414 0 0 0
28.90176 917.03705 0 0 0
28.91056 913.41309 0 0 0
28.91936 909.82471 0 0 0
28.92817 906.69922 0 0 0
28.93697 904.55078 0 0 0
28.94577 902.79541 0 0 0
28.95457 902.26501 0 0 0
28.96337 902.57404 0 0 0
28.97218 903.43134 0 0 0
28.98098 902.92151 0 0 0
28.98978 902.11066 0 0 0
28.99858 900.70038 0 0 0
29.00738 898.88293 0 0 0
29.01619 898.43854 0 0 0
29.02499 898.7146 0 0 0
29.03379 897.60938 0 0 0
29.04259 896.97638 0 0 0
29.05140 897.5531 0 0 0
29.06020 897.65881 0 0 0
29.06900 897.93268 0 0 0
29.07780 897.70685 0 0 0
29.08660 898.46283 0 0 0
29.09541 898.09027 0 0 0
29.10421 898.14435 0 0 0
29.11301 898.88947 0 0 0
29.12181 899.3974 0 0 0
29.13061 899.89111 0 0 0
29.13942 899.54437 0 0 0
29.14822 900.54266 0 0 0
29.15702 900.66071 0 0 0
29.16583 897.77087 0 0 0
29.17463 895.80377 0 0 0
29.18343 897.41852 0 0 0
29.19223 898.05591 0 0 0
29.20103 897.82996 0 0 0
29.20984 897.21674 0 0 0
29.21864 896.15997 0 0 0
29.22744 897.75555 0 0 0
29.23624 898.97156 0 0 0
29.24504 898.38568 0 0 0
29.25384 897.89325 0 0 0
29.26265 897.11523 0 0 0
29.27145 895.37567 0 0 0
29.28025 894.17615 0 0 0
29.28906 893.45166 0 0 0
29.29785 893.4541 0 0 0
29.30666 893.22217 0 0 0
29.31546 893.34821 0 0 0
29.32426 894.91718 0 0 0
29.33307 896.59497 0 0 0
29.34187 898.41882 0 0 0
29.35067 899.32269 0 0 0
29.35947 901.83234 0 0 0
29.36827 905.31598 0 0 0
29.37708 908.3042 0 0 0
29.38588 914.0415 0 0 0
29.39468 920.20593 0 0 0
29.40348 927.24432 0 0 0
29.41228 934.62946 0 0 0
29.42109 939.36139 0 0 0
29.42989 943.11768 0 0 0
29.43869 943.43732 0 0 0
29.44749 938.39081 0 0 0
29.45630 932.06323 0 0 0
29.46510 924.99139 0 0 0
29.47390 917.75818 0 0 0
29.48270 912.75531 0 0 0
29.49150 908.37732 0 0 0
29.50031 904.64801 0 0 0
29.50911 902.04218 0 0 0
29.51791 900.01508 0 0 0
29.52671 898.95898 0 0 0
29.53551 897.95715 0 0 0
29.54432 897.93445 0 0 0
29.55312 898.96179 0 0 0
29.56192 898.34918 0 0 0
29.57072 897.29224 0 0 0
29.57952 897.10504 0 0 0
29.58833 895.96832 0 0 0
29.59713 896.29901 0 0 0
29.60593 896.35577 0 0 0
29.61473 896.18195 0 0 0
29.62354 897.03131 0 0 0
29.63234 896.74176 0 0 0
29.64114 896.98431 0 0 0
29.64994 898.16052 0 0 0
29.65874 897.89386 0 0 0
29.66755 897.66034 0 0 0
29.67635 897.99548 0 0 0
29.68515 899.82721 0 0 0
29.69395 900.87415 0 0 0
29.70275 898.45056 0 0 0
29.71156 898.51343 0 0 0
29.72036 900.38782 0 0 0
29.72916 901.85461 0 0 0
29.73796 903.83496 0 0 0
29.74676 904.68286 0 0 0
29.75557 904.14996 0 0 0
29.76437 905.3797 0 0 0
29.77317 907.54865 0 0 0
29.78197 907.59094 0 0 0
29.79078 909.80292 0 0 0
29.79958 912.04083 0 0 0
29.80838 911.85168 0 0 0
29.81718 914.38538 0 0 0
29.82598 919.82007 0 0 0
29.83479 924.36353 0 0 0
29.84359 926.28265 0 0 0
29.85239 929.35553 0 0 0
29.86119 933.68243 0 0 0
29.86999 937.64313 0 0 0
29.87880 942.54932 0 0 0
29.88760 948.60718 0 0 0
29.89640 954.11774 0 0 0
29.90520 959.88794 0 0 0
29.91400 964.28156 0 0 0
29.92281 966.60217 0 0 0
29.93161 971.66559 0 0 0
29.94041 973.44397 0 0 0
29.94921 971.35583 0 0 0
29.95801 966.90967 0 0 0
29.96682 962.28839 0 0 0
29.97562 959.15021 0 0 0
29.98442 954.70709 0 0 0
29.99322 950.09943 0 0 0
30.00203 945.41663 0 0 0
30.01083 942.25244 0 0 0
30.01963 941.6377 0 0 0
30.02843 938.54797 0 0 0
30.03723 937.23785 0 0 0
30.04604 936.93939 0 0 0
30.05484 934.04193 0 0 0
30.06364 928.78131 0 0 0
30.07244 922.81195 0 0 0
30.08124 919.94769 0 0 0
30.09005 917.86285 0 0 0
30.09885 914.11804 0 0 0
30.10765 910.4917 0 0 0
30.11645 908.36694 0 0 0
30.12526 907.27472 0 0 0
30.13406 907.21735 0 0 0
30.14286 908.49438 0 0 0
30.15166 910.60852 0 0 0
30.16046 913.5495 0 0 0
30.16927 916.87488 0 0 0
30.17807 923.35944 0 0 0
30.18687 930.19263 0 0 0
30.19567 935.37097 0 0 0
30.20447 941.33783 0 0 0
30.21328 944.82422 0 0 0
30.22208 944.15723 0 0 0
30.23088 940.98126 0 0 0
30.23968 936.90027 0 0 0
30.24849 931.52527 0 0 0
30.25729 926.21252 0 0 0
30.26609 923.39081 0 0 0
30.27489 921.87335 0 0 0
30.28369 919.34235 0 0 0
30.29250 919.05042 0 0 0
30.30130 919.13861 0 0 0
30.31010 921.13098 0 0 0
30.31890 924.13184 0 0 0
30.32770 924.34473 0 0 0
30.33651 922.51318 0 0 0
30.34531 920.47491 0 0 0
30.35411 919.71637 0 0 0
30.36291 917.26465 0 0 0
30.37172 913.45178 0 0 0
30.38052 912.14435 0 0 0
30.38932 910.36859 0 0 0
30.39812 907.38806 0 0 0
30.40692 906.91333 0 0 0
30.41573 905.13867 0 0 0
30.42453 901.76129 0 0 0
30.43333 898.85522 0 0 0
30.44213 899.05365 0 0 0
30.45093 898.95306 0 0 0
30.45974 897.68817 0 0 0
30.46854 895.9549 0 0 0
30.47734 895.88184 0 0 0
30.48614 897.20398 0 0 0
30.49494 896.60791 0 0 0
30.50375 894.66589 0 0 0
30.51255 893.5462 0 0 0
30.52135 892.69733 0 0 0
30.53015 893.63831 0 0 0
30.53896 894.58282 0 0 0
30.54776 894.58679 0 0 0
30.55656 892.81952 0 0 0
30.56536 893.41083 0 0 0
30.57416 894.44324 0 0 0
30.58297 893.49847 0 0 0
30.59177 892.67932 0 0 0
30.60057 892.06329 0 0 0
30.60937 893.16724 0 0 0
30.61817 892.67279 0 0 0
30.62698 891.07642 0 0 0
30.63578 890.57574 0 0 0
30.64458 892.92963 0 0 0
30.65338 895.7702 0 0 0
30.66218 897.87817 0 0 0
30.67099 897.09656 0 0 0
30.67979 895.73279 0 0 0
30.68859 894.37421 0 0 0
30.69739 894.14001 0 0 0
30.70620 896.26129 0 0 0
30.71500 897.12708 0 0 0
30.72380 896.34961 0 0 0
30.73260 895.25757 0 0 0
30.74140 895.27466 0 0 0
30.75021 898.9635 0 0 0
30.75901 899.03497 0 0 0
30.76781 897.05914 0 0 0
30.77661 897.82373 0 0 0
30.78541 897.73077 0 0 0
30.79422 898.73737 0 0 0
30.80302 899.7193 0 0 0
30.81182 901.1626 0 0 0
30.82062 900.60114 0 0 0
30.82943 900.87677 0 0 0
30.83823 901.4361 0 0 0
30.84703 900.52081 0 0 0
30.85583 901.15826 0 0 0
30.86463 899.03156 0 0 0
30.87344 895.75726 0 0 0
30.88224 895.60333 0 0 0
30.89104 892.93634 0 0 0
30.89984 891.44348 0 0 0
30.90864 891.02814 0 0 0
30.91745 890.19623 0 0 0
30.92625 892.08313 0 0 0
30.93505 891.66492 0 0 0
30.94385 890.92859 0 0 0
30.95265 893.64001 0 0 0
30.96146 894.0885 0 0 0
30.97026 895.95068 0 0 0
30.97906 898.06586 0 0 0
30.98786 899.65186 0 0 0
30.99667 902.03723 0 0 0
31.00547 904.86066 0 0 0
31.01427 908.18201 0 0 0
31.02307 906.2619 0 0 0
31.03187 901.54126 0 0 0
31.04068 898.74103 0 0 0
31.04948 898.93115 0 0 0
31.05828 899.09845 0 0 0
31.06708 903.99103 0 0 0
31.07588 908.31268 0 0 0
31.08469 909.09082 0 0 0
31.09349 914.08234 0 0 0
31.10229 921.04718 0 0 0
31.11109 925.20135 0 0 0
31.11989 925.60474 0 0 0
31.12870 925.76581 0 0 0
31.13750 921.92505 0 0 0
31.14630 914.75745 0 0 0
31.15510 908.11176 0 0 0
31.16391 901.55334 0 0 0
31.17271 898.48181 0 0 0
31.18151 894.36255 0 0 0
31.19031 886.74243 0 0 0
31.19911 882.6665 0 0 0
31.20792 883.93591 0 0 0
31.21672 884.01202 0 0 0
31.22552 884.7926 0 0 0
31.23432 882.42523 0 0 0
31.24312 878.20709 0 0 0
31.25193 877.40607 0 0 0
31.26073 877.448 0 0 0
31.26953 875.59589 0 0 0
31.27833 873.70306 0 0 0
31.28714 872.34259 0 0 0
31.29594 876.32037 0 0 0
31.30474 878.22229 0 0 0
31.31354 876.99731 0 0 0
31.32234 876.06891 0 0 0
31.33115 872.95996 0 0 0
31.33995 872.98297 0 0 0
31.34875 874.82465 0 0 0
31.35755 876.13165 0 0 0
31.36635 876.63635 0 0 0
31.37516 876.7085 0 0 0
31.38396 873.62689 0 0 0
31.39276 873.07849 0 0 0
31.40156 873.98145 0 0 0
31.41036 869.95898 0 0 0
31.41917 869.80524 0 0 0
31.42797 870.76978 0 0 0
31.43677 871.73767 0 0 0
31.44557 871.97571 0 0 0
31.45438 872.38025 0 0 0
31.46318 874.01648 0 0 0
31.47198 873.59802 0 0 0
31.48078 874.24109 0 0 0
31.48958 874.46002 0 0 0
31.49839 874.95459 0 0 0
31.50719 876.19031 0 0 0
31.51599 876.98987 0 0 0
31.52479 876.85498 0 0 0
31.53359 877.70734 0 0 0
31.54240 876.99585 0 0 0
31.55120 875.51208 0 0 0
31.56000 875.13232 0 0 0
31.56880 874.91345 0 0 0
31.57760 874.07928 0 0 0
31.58641 873.09869 0 0 0
31.59521 875.63147 0 0 0
31.60401 878.4599 0 0 0
31.61281 880.95251 0 0 0
31.62162 879.09967 0 0 0
31.63042 876.04706 0 0 0
31.63922 878.48932 0 0 0
31.64802 880.38062 0 0 0
31.65682 882.3598 0 0 0
31.66563 889.71698 0 0 0
31.67443 894.37299 0 0 0
31.68323 896.48907 0 0 0
31.69203 897.83588 0 0 0
31.70083 897.73358 0 0 0
31.70964 898.54645 0 0 0
31.71844 902.3833 0 0 0
31.72724 904.38605 0 0 0
31.73604 902.26007 0 0 0
31.74485 899.23816 0 0 0
31.75365 899.72308 0 0 0
31.76245 898.77679 0 0 0
31.77125 894.30109 0 0 0
31.78005 894.23114 0 0 0
31.78886 895.43945 0 0 0
31.79766 893.42041 0 0 0
31.80646 889.26538 0 0 0
31.81526 887.32007 0 0 0
31.82406 888.91541 0 0 0
31.83287 886.83862 0 0 0
31.84167 881.46167 0 0 0
31.85047 877.08728 0 0 0
31.85927 878.72388 0 0 0
31.86807 877.04358 0 0 0
31.87688 873.83136 0 0 0
31.88568 873.49292 0 0 0
31.89448 874.52148 0 0 0
31.90328 873.42981 0 0 0
31.91209 869.95685 0 0 0
31.92089 868.95557 0 0 0
31.92969 872.32025 0 0 0
31.93849 872.138 0 0 0
31.94729 871.10498 0 0 0
31.95610 872.46832 0 0 0
31.96490 871.27759 0 0 0
31.97370 867.28473 0 0 0
31.98250 867.19867 0 0 0
31.99130 867.14471 0 0 0
32.00011 864.27081 0 0 0
32.00891 862.7533 0 0 0
32.01771 863.56244 0 0 0
32.02651 859.93311 0 0 0
32.03532 858.84863 0 0 0
32.04412 862.21179 0 0 0
32.05292 861.48761 0 0 0
32.06172 859.55505 0 0 0
32.07052 854.08667 0 0 0
32.07933 857.38214 0 0 0
32.08813 858.63525 0 0 0
32.09693 855.40125 0 0 0
32.10573 855.26495 0 0 0
32.11454 857.10553 0 0 0
32.12334 859.20044 0 0 0
32.13214 856.18872 0 0 0
32.14094 850.44916 0 0 0
32.14974 856.23816 0 0 0
32.15855 862.35388 0 0 0
32.16735 857.19653 0 0 0
32.17615 857.80103 0 0 0
32.18495 859.24512 0 0 0
32.19375 850.72382 0 0 0
32.20256 844.98962 0 0 0
32.21136 846.98175 0 0 0
32.22016 848.5603 0 0 0
32.22896 849.46747 0 0 0
32.23776 849.11505 0 0 0
32.24657 841.72736 0 0 0
32.25537 840.33075 0 0 0
32.26417 846.66803 0 0 0
32.27297 848.60315 0 0 0
32.28178 846.31317 0 0 0
32.29058 844.48682 0 0 0
32.29938 846.00378 0 0 0
32.30818 843.60175 0 0 0
32.31698 840.63672 0 0 0
32.32579 834.56403 0 0 0
32.33459 830.37573 0 0 0
32.34339 835.45703 0 0 0
32.35219 841.99957 0 0 0
32.36099 840.46436 0 0 0
32.36980 836.07751 0 0 0
32.37860 833.95874 0 0 0
32.38740 830.27307 0 0 0
32.39620 831.09344 0 0 0
32.40500 830.4071 0 0 0
32.41381 828.10315 0 0 0
32.42261 834.24951 0 0 0
32.43141 834.48553 0 0 0
32.44021 832.29816 0 0 0
32.44902 829.08264 0 0 0
32.45782 832.6333 0 0 0
32.46662 825.64349 0 0 0
32.47542 820.05389 0 0 0
32.48422 828.16516 0 0 0
32.49303 823.84375 0 0 0
32.50183 819.4455 0 0 0
32.51063 821.6084 0 0 0
32.51943 820.52527 0 0 0
32.52823 812.19513 0 0 0
32.53704 810.18152 0 0 0
32.54584 819.39691 0 0 0
32.55464 817.26733 0 0 0
32.56344 812.79224 0 0 0
32.57225 814.08087 0 0 0
32.58105 811.43372 0 0 0
32.58985 809.19519 0 0 0
32.59865 804.091 0 0 0
32.60745 802.47827 0 0 0
32.61626 805.58899 0 0 0
32.62506 800.95416 0 0 0
32.63386 797.89856 0 0 0
32.64266 781.61487 0 0 0
32.65146 775.73999 0 0 0
32.66027 790.81146 0 0 0
32.66907 784.05341 0 0 0
32.67787 773.87573 0 0 0
32.68667 776.99829 0 0 0
32.69547 767.47552 0 0 0
32.70428 759.19672 0 0 0
32.71308 747.01819 0 0 0
32.72188 745.83118 0 0 0
32.73068 749.37787 0 0 0
32.73949 729.16846 0 0 0
32.74829 711.11084 0 0 0
32.75709 687.22266 0 0 0
32.76589 680.68591 0 0 0
32.77469 681.81561 0 0 0
32.78350 665.78882 0 0 0
32.79230 626.38489 0 0 0
32.80110 592.57886 0 0 0
32.80990 560.47711 0 0 0
32.81870 492.89597 0 0 0
32.82751 400.54913 0 0 0
32.83631 262.03787 0 0 0
32.84511 178.36435 0 0 0
32.85391 180.76787 0 0 0
32.86271 177.70044 0 0 0
32.87152 169.36206 0 0 0
32.88032 166.70135 0 0 0
32.88912 177.91501 0 0 0
32.89792 181.612 0 0 0
32.90673 174.44572 0 0 0
32.91553 174.84348 0 0 0
32.92433 182.7794 0 0 0
32.93313 186.65933 0 0 0
32.94193 191.66672 0 0 0
32.95074 187.57875 0 0 0
32.95954 181.93828 0 0 0
32.96834 184.15962 0 0 0
32.97714 189.00316 0 0 0
32.98594 191.804 0 0 0
32.99475 186.60278 0 0 0
33.00355 186.1295 0 0 0
33.01235 189.87112 0 0 0
33.02115 192.26353 0 0 0
33.02996 186.73656 0 0 0
33.03876 181.82756 0 0 0
33.04756 186.81825 0 0 0
33.05636 193.05606 0 0 0
33.06516 197.10338 0 0 0
33.07397 194.10161 0 0 0
33.08277 182.81126 0 0 0
33.09157 169.64166 0 0 0
33.10037 170.01746 0 0 0
33.10917 178.48544 0 0 0
33.11798 193.12718 0 0 0
33.12678 194.80647 0 0 0
33.13558 183.99631 0 0 0
33.14438 170.55443 0 0 0
33.15318 169.07632 0 0 0
33.16199 178.89143 0 0 0
33.17079 186.57817 0 0 0
33.17959 191.63417 0 0 0
33.18839 197.69362 0 0 0
33.19720 197.46564 0 0 0
33.20600 189.38501 0 0 0
33.21480 182.16039 0 0 0
33.22360 188.54912 0 0 0
33.23240 194.6895 0 0 0
33.24121 192.32442 0 0 0
33.25001 191.76239 0 0 0
33.25881 193.55017 0 0 0
33.26761 195.00682 0 0 0
33.27641 192.49892 0 0 0
33.28522 184.1368 0 0 0
33.29402 181.96461 0 0 0
33.30282 179.80782 0 0 0
33.31162 180.41895 0 0 0
33.32042 188.7439 0 0 0
33.32923 193.64996 0 0 0
33.33803 199.1972 0 0 0
33.34683 195.61571 0 0 0
33.35563 191.09752 0 0 0
33.36444 198.34846 0 0 0
33.37324 202.4241 0 0 0
33.38204 190.89793 0 0 0
33.39084 185.27496 0 0 0
33.39964 185.80547 0 0 0
33.40845 189.60747 0 0 0
33.41725 189.56879 0 0 0
33.42605 192.41075 0 0 0
33.43485 197.97408 0 0 0
33.44365 200.40941 0 0 0
33.45246 203.9899 0 0 0
33.46126 199.60252 0 0 0
33.47006 194.584 0 0 0
33.47886 196.57652 0 0 0
33.48766 193.1714 0 0 0
33.49647 180.08641 0 0 0
33.50527 172.92046 0 0 0
33.51407 177.36435 0 0 0
33.52287 183.396 0 0 0
33.53168 182.53308 0 0 0
33.54048 182.15372 0 0 0
33.54928 177.97296 0 0 0
33.55808 178.26921 0 0 0
33.56688 180.22957 0 0 0
33.57569 182.39285 0 0 0
33.58449 193.66112 0 0 0
33.59329 193.72598 0 0 0
33.60209 190.94838 0 0 0
33.61089 190.87575 0 0 0
33.61970 193.32735 0 0 0
33.62850 194.75395 0 0 0
33.63730 199.2066 0 0 0
33.64610 199.34361 0 0 0
33.65491 192.07086 0 0 0
33.66371 190.25725 0 0 0
33.67251 183.76584 0 0 0
33.68131 182.65596 0 0 0
33.69011 186.21924 0 0 0
33.69892 180.16919 0 0 0
33.70772 178.13988 0 0 0
33.71652 185.15552 0 0 0
33.72532 207.78003 0 0 0
33.73412 215.27203 0 0 0
33.74293 205.10864 0 0 0
33.75173 202.08434 0 0 0
33.76053 208.60123 0 0 0
33.76933 211.06584 0 0 0
33.77813 203.05354 0 0 0
33.78694 203.86478 0 0 0
33.79574 197.90108 0 0 0
33.80454 189.30769 0 0 0
33.81334 186.3858 0 0 0
33.82215 180.37358 0 0 0
33.83095 173.68996 0 0 0
33.83975 183.11958 0 0 0
33.84855 190.47301 0 0 0
33.85735 190.42325 0 0 0
33.86616 192.53197 0 0 0
33.87496 184.08804 0 0 0
33.88376 180.44849 0 0 0
33.89256 185.20874 0 0 0
33.90136 188.51697 0 0 0
33.91017 198.78201 0 0 0
33.91897 214.47916 0 0 0
33.92777 214.84743 0 0 0
33.93657 205.7516 0 0 0
33.94537 202.52849 0 0 0
33.95418 208.28035 0 0 0
33.96298 204.463 0 0 0
33.97178 198.89027 0 0 0
33.98058 197.70821 0 0 0
33.98939 198.8046 0 0 0
33.99819 192.31873 0 0 0
34.00699 191.95168 0 0 0
34.01579 196.41107 0 0 0
34.02459 202.80562 0 0 0
34.03340 207.32527 0 0 0
34.04220 201.44122 0 0 0
34.05100 182.35785 0 0 0
34.05980 179.72537 0 0 0
34.06860 174.58214 0 0 0
34.07741 173.01372 0 0 0
34.08621 173.89438 0 0 0
34.09501 175.23759 0 0 0
34.10381 182.93933 0 0 0
34.11262 185.05127 0 0 0
34.12142 189.57568 0 0 0
34.13022 200.53329 0 0 0
34.13902 197.009 0 0 0
34.14782 204.43883 0 0 0
34.15663 203.64458 0 0 0
34.16543 188.50922 0 0 0
34.17423 187.15958 0 0 0
34.18303 187.39279 0 0 0
34.19183 189.40776 0 0 0
34.20064 191.01358 0 0 0
34.20944 189.57703 0 0 0
34.21824 195.10118 0 0 0
34.22704 207.01317 0 0 0
34.23584 214.15714 0 0 0
34.24465 207.59375 0 0 0
34.25345 190.48463 0 0 0
34.26225 187.24791 0 0 0
34.27105 186.58022 0 0 0
34.27986 192.61504 0 0 0
34.28866 213.59193 0 0 0
34.29746 221.33786 0 0 0
34.30626 209.89038 0 0 0
34.31506 203.89926 0 0 0
34.32387 204.46367 0 0 0
34.33267 206.08839 0 0 0
34.34147 208.23842 0 0 0
34.35027 207.39444 0 0 0
34.35907 207.50552 0 0 0
34.36788 208.21931 0 0 0
34.37668 207.15591 0 0 0
34.38548 204.85078 0 0 0
34.39428 202.98586 0 0 0
34.40308 202.88499 0 0 0
34.41189 198.68768 0 0 0
34.42069 202.41116 0 0 0
34.42949 210.06496 0 0 0
34.43829 213.91469 0 0 0
34.44710 208.45973 0 0 0
34.45590 203.59192 0 0 0
34.46470 205.03226 0 0 0
34.47350 206.60338 0 0 0
34.48230 205.31828 0 0 0
34.49111 199.37726 0 0 0
34.49991 190.56253 0 0 0
34.50871 194.84743 0 0 0
34.51751 202.94566 0 0 0
34.52631 205.638 0 0 0
34.53512 205.46458 0 0 0
34.54392 203.07977 0 0 0
34.55272 202.50243 0 0 0
34.56152 198.26387 0 0 0
34.57033 198.00591 0 0 0
34.57913 203.80568 0 0 0
34.58793 204.39642 0 0 0
34.59673 198.08112 0 0 0
34.60553 193.1335 0 0 0
34.61434 198.62436 0 0 0
34.62314 204.30112 0 0 0
34.63194 208.56387 0 0 0
34.64074 213.97159 0 0 0
34.64954 211.76894 0 0 0
34.65835 206.61902 0 0 0
34.66715 213.83498 0 0 0
34.67595 222.31369 0 0 0
34.68475 199.97295 0 0 0
34.69355 187.73688 0 0 0
34.70236 182.62564 0 0 0
34.71116 204.53067 0 0 0
34.71996 230.28543 0 0 0
34.72876 240.70772 0 0 0
34.73757 238.22369 0 0 0
34.74637 222.31212 0 0 0
34.75517 208.72672 0 0 0
34.76397 196.81187 0 0 0
34.77277 181.47466 0 0 0
34.78158 181.02063 0 0 0
34.79038 195.18251 0 0 0
34.79918 214.28986 0 0 0
34.80798 224.47253 0 0 0
34.81678 235.98289 0 0 0
34.82559 239.74881 0 0 0
34.83439 230.52077 0 0 0
34.84319 220.76039 0 0 0
34.85199 218.95782 0 0 0
34.86079 209.70158 0 0 0
34.86960 204.52451 0 0 0
34.87840 209.70834 0 0 0
34.88720 201.91856 0 0 0
34.89600 199.06227 0 0 0
34.90481 193.52814 0 0 0
34.91361 190.08514 0 0 0
34.92241 201.87563 0 0 0
34.93121 202.58496 0 0 0
34.94001 208.01321 0 0 0
34.94882 208.48535 0 0 0
34.95762 205.79672 0 0 0
34.96642 210.33601 0 0 0
34.97522 215.47664 0 0 0
34.98402 216.16693 0 0 0
34.99283 219.66383 0 0 0
35.00163 222.17261 0 0 0
35.01043 220.91869 0 0 0
35.01923 224.03203 0 0 0
35.02804 222.82094 0 0 0
35.03684 215.41446 0 0 0
35.04564 210.04411 0 0 0
35.05444 213.00862 0 0 0
35.06324 218.30431 0 0 0
35.07205 225.0289 0 0 0
35.08085 223.14311 0 0 0
35.08965 221.72871 0 0 0
35.09845 220.66257 0 0 0
35.10725 215.19618 0 0 0
35.11606 211.84554 0 0 0
35.12486 215.47009 0 0 0
35.13366 213.53247 0 0 0
35.14246 209.77817 0 0 0
35.15126 206.79292 0 0 0
35.16007 205.31448 0 0 0
35.16887 207.67348 0 0 0
35.17767 213.63858 0 0 0
35.18647 214.86018 0 0 0
35.19528 219.16876 0 0 0
35.20408 216.88933 0 0 0
loop_
_gsas_i100_meas
1.34
14.55
5.08
5.08
4.67
0.83
7.95
13.32
5.31
100.00
18.18
0.52
10.87
0.54
12.52
28.25
3.46
0.37
23.34
7.46
1.25
0.75
0.17
1.07
2.77
96.83
0.32
6.65
16.14
0.55
-0.04
0.78
0.35
2.57
1.68
0.12
0.02
0.08
5.88
8.88
7.50
1.36
0.22
0.26
0.08
0.78
1.35
0.38
26.16
0.63
5.40
2.58
2.04
0.01
0.24
2.09
0.11
3.28
5.87
0.42
0.06
11.39
21.51
0.03
2.79
-0.73
2.09
-0.05
1.76
0.46
0.00
0.85
1.84
2.60
-0.00
0.65
1.73
2.76
0.37
1.45
1.55
1.13
0.00
1.29
1.08
0.26
0.00
2.57
22.05
0.54
1.83
0.76
0.01
0.00
0.00
0.38
0.63
0.10
4.22
3.95
0.02
2.28
1.52
0.36
1.25
0.71
0.01
0.59
0.38
1.42
4.88
2.55
10.91
14.95
0.90
0.38
0.06
2.04
0.33
1.00
0.19
0.55
0.30
0.20
0.78
0.82
5.72
6.06
1.09
0.14
5.55
0.07
0.01
0.86
-0.00
2.01
0.05
0.31
0.02
0.00
0.08
0.79
0.77
-0.28
0.03
1.83
5.39
4.78
0.00
10.45
0.01
0.79
0.34
-7.04
3.73
1.10
-0.01
0.66
-0.02
0.45
4.49
0.06
1.47
0.10
0.00
0.57
2.05
0.81
1.46
0.00
0.37
0.24
0.16
1.28
0.52
0.73
1.30
