#------------------------------------------------------------------------------
#$Date: 2021-02-05 01:04:31 +0200 (Fri, 05 Feb 2021) $
#$Revision: 261628 $
#$URL: file:///home/coder/svn-repositories/cod/cif/7/24/18/7241842.cif $
#------------------------------------------------------------------------------
#
# This file is available in the Crystallography Open Database (COD),
# http://www.crystallography.net/
#
# All data on this site have been placed in the public domain by the
# contributors.
#
data_7241842
loop_
_publ_author_name
'Gu\'nka, Piotr A.'
'Hanfland, Michael'
'Chen, Yu-Sheng'
'Zachara, Janusz'
_publ_section_title
;
 High-pressure and low-temperature structural study of claudetite I, a
 monoclinic layered As2O3 polymorph
;
_journal_issue                   3
_journal_name_full               CrystEngComm
_journal_page_first              638
_journal_page_last               644
_journal_paper_doi               10.1039/D0CE01401J
_journal_volume                  23
_journal_year                    2021
_chemical_formula_moiety         'As2 O3'
_chemical_formula_sum            'As2 O3'
_chemical_formula_weight         197.84
_chemical_name_common            'claudetite I'
_chemical_name_systematic
;
arsenic(III) oxide
;
_space_group_IT_number           14
_space_group_name_Hall           '-P 2yn'
_space_group_name_H-M_alt        'P 1 21/n 1'
_symmetry_cell_setting           monoclinic
_symmetry_space_group_name_H-M   'P 1 21/n 1'
_audit_creation_date             2020-10-21T11:59
_audit_creation_method           'created in GSAS-II'
_audit_update_record
;
2020-10-22 deposited with the CCDC.	2020-12-10 downloaded from the CCDC.
;
_cell_angle_alpha                90
_cell_angle_beta                 94.695(6)
_cell_angle_gamma                90
_cell_formula_units_Z            4
_cell_length_a                   4.7786(7)
_cell_length_b                   11.9057(5)
_cell_length_c                   4.1994(6)
_cell_measurement_pressure       1.406e7(11)
_cell_measurement_temperature    293
_cell_volume                     238.11(5)
_computing_data_reduction        Fit2D
_computing_structure_refinement
'GSAS-II (Toby & Von Dreele, J. Appl. Cryst. 46, 544-549, 2013)'
_diffrn_ambient_pressure         1.406e7(11)
_diffrn_ambient_temperature      293
_diffrn_detector                 'Mar555 flat panel'
_diffrn_detector_type            'Mar555 flat panel'
_diffrn_measurement_device_type  'ESRF ID09A beamline'
_diffrn_radiation_monochromator  Si
_diffrn_radiation_polarisn_ratio 0.9900
_diffrn_radiation_probe          x-ray
_diffrn_radiation_wavelength     0.41421
_diffrn_source                   'ESRF ID09A'
_diffrn_source_type              synchrotron
_exptl_crystal_colour            colourless
_exptl_crystal_density_diffrn    5.5189
_exptl_crystal_description       'white powder'
_pd_block_id                     2020-10-21T11:59|clau1_015rietveld||id09a
_pd_calc_method                  'Rietveld Refinement'
_pd_meas_number_of_points        4000
_pd_phase_name                   claudetiteI
_pd_prep_pressure                100.0(1)
_pd_prep_temperature             293
_pd_proc_info_datetime           2020-10-21T11:59
_pd_proc_ls_background_function
;
Background function: "chebyschev" function with 15 terms:
    726.5(20), 441(7), 68(31), -1.36(6)e3, 2.44(15)e3, 9.36(11)e3, 
    -2.539(20)e4, -28573(25), 8.557(10)e4, 4.174(10)e4, -1.3499(17)e5, 
    -2.929(8)e4, 1.0231(21)e5, 7.96(11)e3, -3.010(21)e4, 
;
_pd_proc_ls_pref_orient_corr
;
Simple spherical harmonic correction Order = 6
    Coefficients:  0:0:C(6,6) = -0.205(30); 0:0:C(4,4) = 0.572(29); 
    0:0:C(6,-2) = -0.09(3); 0:0:C(2,-2) = -0.013(18); 0:0:C(4,-4) = 0.110(26); 
    0:0:C(2,2) = 0.333(20); 0:0:C(4,0) = 0.055(24); 0:0:C(6,-6) = -0.35(4); 
    0:0:C(6,4) = 0.07(3); 0:0:C(4,2) = -0.029(24); 0:0:C(6,2) = 0.24(3); 
    0:0:C(6,-4) = -0.093(26); 0:0:C(6,0) = -0.16(3); 0:0:C(2,0) = 0.265(19); 
    0:0:C(4,-2) = -0.528(29); 
;
_pd_proc_ls_profile_function
;
Finger-Cox-Jephcoat function parameters U, V, W, X, Y, SH/L:
  peak variance(Gauss) = Utan(Th)^2^+Vtan(Th)+W:
  peak HW(Lorentz) = X/cos(Th)+Ytan(Th); SH/L = S/L+H/L
  U, V, W in (centideg)^2^, X & Y in centideg
    2.0(4)e3, -6(5)e1, 1.6(21), 17.7(4), 8(12), 0.002, 
  Crystallite size in microns with "isotropic" model:
  parameters: Size, G/L mix
    1.000, 1.000, 
  Microstrain, "isotropic" model (10^6^ * delta Q/Q)
    parameters: Mustrain, G/L mix
    1000.000, 1.000, 

;
_pd_proc_ls_prof_R_factor        0.01546
_pd_proc_ls_prof_wR_expected     0.03508
_pd_proc_ls_prof_wR_factor       0.02547
_refine_ls_goodness_of_fit_all   0.736
_refine_ls_matrix_type           full
_refine_ls_number_parameters     57
_refine_ls_R_Fsqd_factor         0.05581
_refine_ls_shift/su_max          0.0001
_refine_ls_wR_factor_obs         0.02549
_reflns_d_resolution_high        1.106
_reflns_d_resolution_low         5.953
_reflns_limit_h_max              4
_reflns_limit_h_min              0
_reflns_limit_k_max              10
_reflns_limit_k_min              0
_reflns_limit_l_max              3
_reflns_limit_l_min              -3
_reflns_number_total             182
_cod_data_source_file            d0ce01401j3.cif
_cod_data_source_block           clau1_015rietveld
_cod_depositor_comments
'Adding full bibliography for 7241824--7241862.cif.'
_cod_original_cell_volume        238.110(21)
_cod_database_code               7241842
_refine_ls_r_f_factor            0.03495
_gsas_proc_ls_prof_r_b_factor    0.02869
_gsas_proc_ls_prof_wr_b_factor   0.05320
loop_
_space_group_symop_id
_space_group_symop_operation_xyz
1 x,y,z
2 1/2-x,1/2+y,1/2-z
3 -x,-y,-z
4 1/2+x,1/2-y,1/2+z
loop_
_atom_site_label
_atom_site_type_symbol
_atom_site_fract_x
_atom_site_fract_y
_atom_site_fract_z
_atom_site_occupancy
_atom_site_adp_type
_atom_site_U_iso_or_equiv
_atom_site_symmetry_multiplicity
As1 As 0.2840(8) 0.08812(30) 0.0617(10) 1.000 Uiso 0.0139(21) 4
As2 As 0.3274(7) 0.3574(4) 0.0236(10) 1.000 Uiso 0.0139 4
O3 O 0.434(4) 0.2213(6) 0.153(6) 1.000 Uiso 0.0139 4
O4 O 0.6594(23) 0.4143(14) 0.1501(23) 1.000 Uiso 0.0139 4
O5 O -0.0638(25) 0.1241(22) 0.1328(24) 1.000 Uiso 0.0139 4
loop_
_atom_type_symbol
_atom_type_number_in_cell
_atom_type_scat_Cromer_Mann_a1
_atom_type_scat_Cromer_Mann_a2
_atom_type_scat_Cromer_Mann_a3
_atom_type_scat_Cromer_Mann_a4
_atom_type_scat_Cromer_Mann_b1
_atom_type_scat_Cromer_Mann_b2
_atom_type_scat_Cromer_Mann_b3
_atom_type_scat_Cromer_Mann_b4
_atom_type_scat_Cromer_Mann_c
_atom_type_scat_length_neutron
_atom_type_scat_source
_atom_type_scat_dispersion_real
_atom_type_scat_dispersion_imag
_atom_type_scat_dispersion_source
As 8 16.6723 6.0701 3.4313 4.2779 2.6345 0.2647 12.9479 47.7972 2.531 0.658
https://subversion.xray.aps.anl.gov/pyGSAS/trunk/atmdata.py 0.283 0.775
https://subversion.xray.aps.anl.gov/pyGSAS/trunk/atmdata.py
O 12 3.0485 2.2868 1.5463 0.867 13.2771 5.7011 0.3239 32.9089 0.2508 0.5805
https://subversion.xray.aps.anl.gov/pyGSAS/trunk/atmdata.py 0.002 0.002
https://subversion.xray.aps.anl.gov/pyGSAS/trunk/atmdata.py
loop_
_geom_angle_atom_site_label_1
_geom_angle_atom_site_label_2
_geom_angle_atom_site_label_3
_geom_angle
_geom_angle_site_symmetry_1
_geom_angle_site_symmetry_2
_geom_angle_site_symmetry_3
_geom_angle_publ_flag
O3 As1 O4 108.8(10) 1_555 1_555 4_454 yes
O3 As1 O5 96.7(12) 1_555 1_555 1_555 yes
O4 As1 O5 85.6(6) 4_454 1_555 1_555 yes
O3 As2 O4 91.7(7) 1_555 1_555 1_555 yes
O3 As2 O5 107.3(15) 1_555 1_555 4_554 yes
O4 As2 O5 84.6(6) 1_555 1_555 4_554 yes
As1 O3 As2 130.7(8) 1_555 1_555 1_555 yes
As1 O4 As2 120.4(7) 4_555 1_555 1_555 yes
As1 O5 As2 122.5(8) 1_555 1_555 4_455 yes
loop_
_geom_bond_atom_site_label_1
_geom_bond_atom_site_label_2
_geom_bond_distance
_geom_bond_site_symmetry_1
_geom_bond_site_symmetry_2
_geom_bond_publ_flag
As1 O3 1.769(7) 1_555 1_555 yes
As1 O4 1.782(7) 1_555 4_454 yes
As1 O5 1.765(7) 1_555 1_555 yes
As2 O3 1.771(7) 1_555 1_555 yes
As2 O4 1.766(7) 1_555 1_555 yes
As2 O5 1.775(7) 1_555 4_554 yes
loop_
_pd_meas_2theta_scan
_pd_meas_intensity_total
_pd_calc_intensity_total
_pd_proc_intensity_bkg_calc
_pd_proc_ls_weight
0.00440 115.97303 0 0 0
0.01320 111.3387 0 0 0
0.02201 112.69579 0 0 0
0.03081 116.38974 0 0 0
0.03961 116.30412 0 0 0
0.04841 112.22437 0 0 0
0.05721 103.32552 0 0 0
0.06602 104.23131 0 0 0
0.07482 111.51225 0 0 0
0.08362 115.0219 0 0 0
0.09242 114.41209 0 0 0
0.10122 113.28314 0 0 0
0.11003 110.26906 0 0 0
0.11883 107.95936 0 0 0
0.12763 107.9376 0 0 0
0.13643 108.00277 0 0 0
0.14523 106.31442 0 0 0
0.15404 104.60239 0 0 0
0.16284 105.12254 0 0 0
0.17164 107.52209 0 0 0
0.18044 109.30092 0 0 0
0.18925 108.33652 0 0 0
0.19805 106.04958 0 0 0
0.20685 106.40683 0 0 0
0.21565 105.73955 0 0 0
0.22445 106.63757 0 0 0
0.23326 108.99358 0 0 0
0.24206 111.7738 0 0 0
0.25086 111.83852 0 0 0
0.25966 111.91931 0 0 0
0.26846 112.41528 0 0 0
0.27727 113.63563 0 0 0
0.28607 112.74648 0 0 0
0.29487 113.91211 0 0 0
0.30367 114.23988 0 0 0
0.31248 114.00417 0 0 0
0.32128 113.08924 0 0 0
0.33008 113.36073 0 0 0
0.33888 114.64053 0 0 0
0.34768 115.593 0 0 0
0.35649 115.71268 0 0 0
0.36529 115.2451 0 0 0
0.37409 114.12209 0 0 0
0.38289 112.7897 0 0 0
0.39169 111.77579 0 0 0
0.40050 113.00799 0 0 0
0.40930 113.30125 0 0 0
0.41810 112.13056 0 0 0
0.42690 111.24223 0 0 0
0.43570 111.65606 0 0 0
0.44451 111.8353 0 0 0
0.45331 111.10219 0 0 0
0.46211 110.43054 0 0 0
0.47091 111.89139 0 0 0
0.47972 111.82296 0 0 0
0.48852 111.50256 0 0 0
0.49732 111.07667 0 0 0
0.50612 110.72825 0 0 0
0.51492 111.17704 0 0 0
0.52373 110.77741 0 0 0
0.53253 110.3121 0 0 0
0.54133 110.63126 0 0 0
0.55013 110.40784 0 0 0
0.55893 109.66384 0 0 0
0.56774 109.14563 0 0 0
0.57654 110.28458 0 0 0
0.58534 110.71945 0 0 0
0.59414 111.13292 0 0 0
0.60295 111.82757 0 0 0
0.61175 111.29907 0 0 0
0.62055 111.25113 0 0 0
0.62935 111.2325 0 0 0
0.63815 112.3187 0 0 0
0.64696 111.19956 0 0 0
0.65576 110.94603 0 0 0
0.66456 111.3835 0 0 0
0.67336 112.27985 0 0 0
0.68216 112.40965 0 0 0
0.69097 111.2036 0 0 0
0.69977 110.41125 0 0 0
0.70857 111.62226 0 0 0
0.71737 112.7599 0 0 0
0.72617 114.05694 0 0 0
0.73498 113.97609 0 0 0
0.74378 112.99662 0 0 0
0.75258 112.01442 0 0 0
0.76138 111.52873 0 0 0
0.77019 111.40707 0 0 0
0.77899 112.14114 0 0 0
0.78779 112.41996 0 0 0
0.79659 113.05956 0 0 0
0.80539 113.13311 0 0 0
0.81420 112.89348 0 0 0
0.82300 113.20288 0 0 0
0.83180 114.35908 0 0 0
0.84060 115.1005 0 0 0
0.84940 115.8236 0 0 0
0.85821 116.57412 0 0 0
0.86701 117.04596 0 0 0
0.87581 118.29237 0 0 0
0.88461 118.01874 0 0 0
0.89342 117.69991 0 0 0
0.90222 118.18766 0 0 0
0.91102 120.58634 0 0 0
0.91982 122.86207 0 0 0
0.92862 124.77221 0 0 0
0.93743 125.00676 0 0 0
0.94623 126.09694 0 0 0
0.95503 127.35295 0 0 0
0.96383 129.23169 0 0 0
0.97263 129.57115 0 0 0
0.98144 131.92776 0 0 0
0.99024 135.0437 0 0 0
0.99904 140.68047 0 0 0
1.00784 147.13184 0 0 0
1.01664 151.9969 0 0 0
1.02545 155.90756 0 0 0
1.03425 163.95313 0 0 0
1.04305 171.10341 0 0 0
1.05185 176.01756 0 0 0
1.06066 180.23215 0 0 0
1.06946 190.74272 0 0 0
1.07826 196.62921 0 0 0
1.08706 201.43787 0 0 0
1.09586 205.72008 0 0 0
1.10467 210.88672 0 0 0
1.11347 217.25378 0 0 0
1.12227 223.10643 0 0 0
1.13107 228.54201 0 0 0
1.13987 232.58884 0 0 0
1.14868 236.98286 0 0 0
1.15748 240.26427 0 0 0
1.16628 242.66069 0 0 0
1.17508 244.41965 0 0 0
1.18389 247.05557 0 0 0
1.19269 249.72682 0 0 0
1.20149 252.80797 0 0 0
1.21029 254.28146 0 0 0
1.21909 255.64101 0 0 0
1.22790 257.11426 0 0 0
1.23670 259.86624 0 0 0
1.24550 262.20206 0 0 0
1.25430 265.3999 0 0 0
1.26310 267.16342 0 0 0
1.27191 267.49564 0 0 0
1.28071 267.01093 0 0 0
1.28951 269.00241 0 0 0
1.29831 271.95352 0 0 0
1.30711 274.05563 0 0 0
1.31592 275.87354 0 0 0
1.32472 276.85428 0 0 0
1.33352 277.95557 0 0 0
1.34232 278.1015 0 0 0
1.35113 280.04825 0 0 0
1.35993 282.60779 0 0 0
1.36873 284.86594 0 0 0
1.37753 286.66528 0 0 0
1.38633 286.6965 0 0 0
1.39514 286.9389 0 0 0
1.40394 287.81161 0 0 0
1.41274 289.81808 0 0 0
1.42154 291.74527 0 0 0
1.43034 292.21725 0 0 0
1.43915 292.90973 0 0 0
1.44795 294.71747 0 0 0
1.45675 295.83612 0 0 0
1.46555 295.60107 0 0 0
1.47436 296.20297 0 0 0
1.48316 298.34583 0 0 0
1.49196 300.59589 0 0 0
1.50076 302.17795 0 0 0
1.50956 302.36615 0 0 0
1.51837 303.18152 0 0 0
1.52717 305.09418 0 0 0
1.53597 305.66141 0 0 0
1.54477 306.17868 0 0 0
1.55357 306.71561 0 0 0
1.56238 308.18259 0 0 0
1.57118 308.63684 0 0 0
1.57998 308.50903 0 0 0
1.58878 309.31845 0 0 0
1.59758 310.09424 0 0 0
1.60639 311.05334 0 0 0
1.61519 312.14319 0 0 0
1.62399 313.38657 0 0 0
1.63279 313.86807 0 0 0
1.64160 314.57941 0 0 0
1.65040 314.64832 0 0 0
1.65920 315.1991 0 0 0
1.66800 317.79333 0 0 0
1.67680 319.46326 0 0 0
1.68561 320.34235 0 0 0
1.69441 320.58572 0 0 0
1.70321 320.36996 0 0 0
1.71201 321.50833 0 0 0
1.72081 321.68597 0 0 0
1.72962 322.65604 0 0 0
1.73842 323.31516 0 0 0
1.74722 324.62396 0 0 0
1.75602 325.05328 0 0 0
1.76483 325.83533 0 0 0
1.77363 326.25507 0 0 0
1.78243 326.84985 0 0 0
1.79123 326.3028 0 0 0
1.80003 327.01929 0 0 0
1.80884 328.46414 0 0 0
1.81764 330.54419 0 0 0
1.82644 330.73526 0 0 0
1.83524 330.51581 0 0 0
1.84404 330.52979 0 0 0
1.85285 331.02515 0 0 0
1.86165 331.25241 0 0 0
1.87045 331.46594 0 0 0
1.87925 332.79388 0 0 0
1.88805 333.58136 0 0 0
1.89686 335.24518 0 0 0
1.90566 335.62451 0 0 0
1.91446 336.28519 0 0 0
1.92326 336.56186 0 0 0
1.93207 337.6384 0 0 0
1.94087 337.20483 0 0 0
1.94967 337.88358 0 0 0
1.95847 339.04904 0 0 0
1.96727 339.85318 0 0 0
1.97608 340.23099 0 0 0
1.98488 340.98013 0 0 0
1.99368 342.0015 0 0 0
2.00248 342.67664 0 0 0
2.01128 342.64584 0 0 0
2.02009 343.36517 0 0 0
2.02889 343.79596 0 0 0
2.03769 344.41782 0 0 0
2.04649 344.91104 0 0 0
2.05530 346.50586 0 0 0
2.06410 347.92215 0 0 0
2.07290 348.02368 0 0 0
2.08170 348.68451 0 0 0
2.09050 349.14124 0 0 0
2.09931 349.45862 0 0 0
2.10811 349.85364 0 0 0
2.11691 350.46484 0 0 0
2.12571 351.40463 0 0 0
2.13451 352.7998 0 0 0
2.14332 353.55496 0 0 0
2.15212 353.71347 0 0 0
2.16092 353.75793 0 0 0
2.16972 354.11551 0 0 0
2.17852 353.87341 0 0 0
2.18733 354.11462 0 0 0
2.19613 355.51801 0 0 0
2.20493 356.2059 0 0 0
2.21373 356.5506 0 0 0
2.22254 356.98294 0 0 0
2.23134 356.65811 0 0 0
2.24014 356.13898 0 0 0
2.24894 356.07678 0 0 0
2.25774 356.38193 0 0 0
2.26655 357.16092 0 0 0
2.27535 357.9241 0 0 0
2.28415 359.79462 0 0 0
2.29295 360.59094 0 0 0
2.30175 360.34378 0 0 0
2.31056 360.54181 0 0 0
2.31936 360.50845 0 0 0
2.32816 360.50153 0 0 0
2.33696 360.91299 0 0 0
2.34576 361.89902 0 0 0
2.35457 362.49207 0 0 0
2.36337 363.93414 0 0 0
2.37217 365.47018 0 0 0
2.38097 365.89746 0 0 0
2.38978 365.89957 0 0 0
2.39858 365.83469 0 0 0
2.40738 366.44247 0 0 0
2.41618 367.05219 356.595238 356.508117 0.002724408
2.42498 367.15411 358.015168 357.927553 0.002723652
2.43379 367.44525 359.380277 359.292164 0.002721494
2.44259 367.08255 360.692326 360.603709 0.002724183
2.45139 366.95932 361.953078 361.863952 0.002725098
2.46019 367.68234 363.164169 363.074528 0.002719739
2.46899 368.58405 364.33609 364.237171 0.002713085
2.47780 368.42825 365.452924 365.353451 0.002714233
2.48660 367.76541 366.524973 366.424939 0.002719125
2.49540 368.38937 367.553736 367.453136 0.002714519
2.50420 368.828 368.554794 368.439607 0.002711291
2.51301 369.50266 369.501587 369.385774 0.00270634
2.52181 371.12756 370.409495 370.293052 0.002694491
2.53061 371.44305 371.279909 371.162828 0.002692203
2.53941 372.14053 372.114199 371.996475 0.002687157
2.54821 371.83377 372.913682 372.795307 0.002689374
2.55702 372.27866 373.679633 373.5606 0.00268616
2.56582 372.57813 374.459371 374.293581 0.002684001
2.57462 372.69711 375.162129 374.995517 0.002683144
2.58342 373.37466 375.835011 375.66757 0.002678275
2.59222 374.09506 376.479175 376.310895 0.002673117
2.60103 375.41888 377.095737 376.926611 0.002663691
2.60983 375.50156 377.685793 377.515813 0.002663105
2.61863 375.25787 378.250423 378.07958 0.002664834
2.62743 374.78632 378.790663 378.618948 0.002668187
2.63624 374.84927 379.324858 379.134919 0.002667739
2.64504 374.94788 379.81934 379.628456 0.002667037
2.65384 375.5369 380.292386 380.100548 0.002662854
2.66264 376.54312 380.744906 380.552103 0.002655738
2.67144 376.99509 381.177799 380.984022 0.002652554
2.68025 377.11459 381.591928 381.397167 0.002651714
2.68905 376.32736 381.988171 381.792415 0.002657261
2.69785 376.21188 382.367339 382.170579 0.002658077
2.70665 377.08609 382.739503 382.532455 0.002651914
2.71545 377.49097 383.087016 382.87883 0.00264907
2.72426 378.54874 383.419695 383.210443 0.002641668
2.73306 379.44299 383.738379 383.528049 0.002635442
2.74186 381.31525 384.043766 383.832346 0.002622502
2.75066 382.13126 384.336545 384.124024 0.002616902
2.75946 382.48438 384.617374 384.40374 0.002614486
2.76827 382.88153 384.886918 384.67216 0.002611774
2.77707 382.60229 385.145796 384.9299 0.00261368
2.78587 382.58841 385.39461 385.177564 0.002613775
2.79467 382.74319 385.633949 385.415739 0.002612718
2.80348 382.78561 385.864385 385.644999 0.002612428
2.81228 382.91745 386.086468 385.865893 0.002611529
2.82108 383.11041 386.300727 386.078948 0.002610214
2.82988 383.22931 386.507669 386.284672 0.002609404
2.83868 383.12332 386.707803 386.483574 0.002610126
2.84749 383.55118 386.901602 386.676126 0.002607214
2.85629 384.77115 387.089529 386.862791 0.002598947
2.86509 385.87073 387.272028 387.044013 0.002591541
2.87389 385.83307 387.449529 387.220221 0.002591794
2.88269 385.52917 387.622452 387.391836 0.002593837
2.89150 385.9183 387.791197 387.559255 0.002591222
2.90030 385.77957 387.956146 387.722861 0.002592154
2.90910 386.12625 388.117665 387.883021 0.002589827
2.91790 386.11859 388.276121 388.0401 0.002589878
2.92670 387.24536 388.431852 388.194435 0.002582342
2.93551 387.53076 388.585187 388.346356 0.00258044
2.94431 388.56226 388.736438 388.496173 0.00257359
2.95311 388.62521 388.885917 388.6442 0.002573173
2.96191 388.67224 389.033909 388.790719 0.002572862
2.97072 388.13141 389.180697 388.936014 0.002576447
2.97952 389.08026 389.326545 389.080348 0.002570164
2.98832 389.8884 389.471844 389.223971 0.002564837
2.99712 390.0853 389.616568 389.367137 0.002563542
3.00592 390.09695 389.761087 389.510074 0.002563465
3.01473 389.81348 389.905621 389.653003 0.002565329
3.02353 389.55249 390.050378 389.796131 0.002567048
3.03233 389.61694 390.19557 389.939668 0.002566624
3.04113 390.34903 390.341383 390.083802 0.00256181
3.04993 391.71692 390.488 390.228712 0.002552864
3.05874 392.4408 390.635592 390.37457 0.002548155
3.06754 392.06607 390.784326 390.521544 0.002550591
3.07634 392.23947 390.934359 390.669786 0.002549463
3.08514 392.72711 391.085835 390.819442 0.002546297
3.09395 393.18521 391.238886 390.970643 0.002543331
3.10275 392.67267 391.393654 391.123528 0.00254665
3.11155 392.95172 391.550255 391.278214 0.002544842
3.12035 393.6662 391.708803 391.434814 0.002540223
3.12915 393.99213 391.869405 391.593432 0.002538122
3.13796 394.16849 392.032159 391.754167 0.002536986
3.14676 394.51505 392.197162 391.917113 0.002534758
3.15556 394.51611 392.3645 392.082356 0.002534751
3.16436 394.78622 392.534252 392.249972 0.002533016
3.17316 394.69986 392.706484 392.420026 0.002533571
3.18197 394.78873 392.881274 392.592597 0.002533
3.19077 395.43594 393.058678 392.767737 0.002528855
3.19957 395.84061 393.238752 392.945499 0.002526269
3.20837 395.58466 393.421538 393.125927 0.002527904
3.21717 395.11292 393.607093 393.309074 0.002530922
3.22598 395.27753 393.795449 393.494969 0.002529868
3.23478 396.15759 393.986643 393.683649 0.002524248
3.24358 397.53769 394.180702 393.875138 0.002515485
3.25238 397.72308 394.377644 394.069451 0.002514312
3.26119 397.77756 394.577503 394.266621 0.002513968
3.26999 397.82205 394.780288 394.466653 0.002513687
3.27879 398.16217 394.993045 394.669556 0.002511539
3.28759 397.97702 395.234649 394.875328 0.002512708
3.29639 399.05246 395.44638 395.083984 0.002505936
3.30520 399.0867 395.661058 395.295511 0.002505721
3.31400 398.59213 395.878686 395.509907 0.00250883
3.32280 398.5687 396.099247 395.727154 0.002508978
3.33160 398.94061 396.322741 395.947246 0.002506639
3.34040 399.48822 396.549155 396.170167 0.002503203
3.34921 400.25839 396.778469 396.395892 0.002498386
3.35801 401.00281 397.010667 396.6244 0.002493748
3.36681 400.90823 397.245719 396.855656 0.002494336
3.37561 400.61362 397.483617 397.089647 0.002496171
3.38442 401.10254 397.724326 397.326332 0.002493128
3.39322 401.77484 397.967824 397.56568 0.002488956
3.40202 402.18744 398.214071 397.807649 0.002486403
3.41082 402.23071 398.463046 398.052207 0.002486135
3.41962 401.84512 398.714716 398.299314 0.002488521
3.42843 401.67871 398.969043 398.548923 0.002489552
3.43723 402.12885 399.225983 398.800983 0.002486765
3.44603 402.71478 399.485516 399.055462 0.002483147
3.45483 403.58536 399.747596 399.312305 0.002477791
3.46363 403.79395 400.012186 399.57146 0.002476511
3.47244 404.11502 400.279235 399.832868 0.002474543
3.48124 404.51694 400.548888 400.096492 0.002472084
3.49004 405.75809 400.820765 400.362268 0.002464523
3.49884 406.45795 401.094996 400.630144 0.002460279
3.50764 406.12018 401.371538 400.900061 0.002462325
3.51645 405.76566 401.650343 401.171953 0.002464477
3.52525 405.66806 401.95035 401.445777 0.00246507
3.53405 405.10272 402.23365 401.721465 0.00246851
3.54285 405.03598 402.519114 401.998956 0.002468916
3.55166 405.58859 402.806697 402.278179 0.002465553
3.56046 405.84628 403.096387 402.559091 0.002463987
3.56926 405.74405 403.399014 402.841615 0.002464608
3.57806 406.55142 403.692845 403.125695 0.002459713
3.58686 407.41122 403.988692 403.411257 0.002454522
3.59567 407.89453 404.286544 403.698247 0.002451614
3.60447 408.24182 404.58639 403.986598 0.002449529
3.61327 407.9339 404.888218 404.276244 0.002451378
3.62207 407.84201 405.192029 404.567119 0.00245193
3.63087 407.73831 405.497819 404.859146 0.002452553
3.63968 408.58801 405.805626 405.152282 0.002447453
3.64848 409.3602 406.115462 405.446445 0.002442836
3.65728 409.3483 406.427373 405.741578 0.002442907
3.66608 410.0564 406.754698 406.037605 0.002438689
3.67489 410.85675 407.070965 406.334469 0.002433938
3.68369 410.67728 407.389522 406.632107 0.002435002
3.69249 410.84201 407.710479 406.930448 0.002434026
3.70129 411.80991 408.033968 407.229418 0.002428305
3.71009 411.88058 408.360183 407.528973 0.002427888
3.71890 411.87518 408.689327 407.829038 0.00242792
3.72770 411.82001 409.021658 408.129545 0.002428245
3.73650 412.18939 409.357492 408.430431 0.002426069
3.74530 411.77286 409.697227 408.731644 0.002428523
3.75410 411.31421 410.041324 409.033109 0.002431231
3.76291 411.4187 410.390364 409.334772 0.002430614
3.77171 412.33725 410.745049 409.636568 0.002425199
3.78051 413.18643 411.10623 409.938426 0.002420215
3.78931 413.02972 411.475002 410.240305 0.002421133
3.79811 412.69403 411.852679 410.542136 0.002423103
3.80692 413.58557 412.240918 410.84386 0.002417879
3.81572 414.21771 412.641792 411.145409 0.002414189
3.82452 414.93423 413.057981 411.446744 0.00241002
3.83332 414.72839 413.492866 411.747797 0.002411217
3.84213 415.00781 413.950858 412.048517 0.002409593
3.85093 414.95752 414.437723 412.34884 0.002409885
3.85973 415.06058 414.961157 412.648721 0.002409287
3.86853 415.82199 415.531618 412.948108 0.002404875
3.87733 416.5773 416.163774 413.246943 0.002400515
3.88614 415.91211 416.879524 413.545176 0.002404354
3.89494 415.35162 417.714713 413.842745 0.002407599
3.90374 416.47266 418.734227 414.139621 0.002401118
3.91254 417.99167 420.061755 414.435743 0.002392392
3.92134 418.6752 421.927641 414.731068 0.002388486
3.93015 419.76416 424.719847 415.025541 0.00238229
3.93895 421.82526 428.993657 415.319125 0.00237065
3.94775 426.78091 435.375428 415.611775 0.002343123
3.95655 433.17117 444.291811 415.903445 0.002308556
3.96535 441.07977 455.517586 416.194082 0.002267164
3.97416 448.64325 467.323769 416.483664 0.002228942
3.98296 453.57724 475.500871 416.772141 0.002204696
3.99176 452.28952 475.266037 417.05947 0.002210973
4.00056 447.04874 466.992795 417.345619 0.002236893
4.00937 439.34286 455.673235 417.630541 0.002276127
4.01817 432.09988 445.237882 417.91422 0.00231428
4.02697 427.67477 437.192285 418.196591 0.002338225
4.03577 424.53348 431.656818 418.477636 0.002355527
4.04457 422.63464 428.159678 418.757343 0.00236611
4.05338 420.90085 426.075596 419.03564 0.002375856
4.06218 420.52145 424.865152 419.312517 0.002378
4.07098 420.54865 424.159645 419.58796 0.002377846
4.07978 421.24335 423.743462 419.861912 0.002373925
4.08858 421.73465 423.501335 420.134371 0.002371159
4.09739 422.39569 423.372758 420.405282 0.002367448
4.10619 422.34039 423.323881 420.674641 0.002367758
4.11499 421.99939 423.333766 420.942431 0.002369672
4.12379 422.40872 423.388253 421.208604 0.002367375
4.13260 423.18906 423.477185 421.473155 0.00236301
4.14140 422.33966 423.593049 421.736073 0.002367762
4.15020 421.68985 423.731002 421.997312 0.002371411
4.15900 421.55374 423.885033 422.256884 0.002372177
4.16780 422.53351 424.055621 422.514745 0.002366676
4.17661 422.8826 424.234066 422.770889 0.002364723
4.18541 423.33597 424.421298 423.025317 0.00236219
4.19421 423.70645 424.616097 423.277989 0.002360125
4.20301 424.05508 424.816149 423.528918 0.002358184
4.21181 423.67688 425.020805 423.778064 0.002360289
4.22062 423.80988 425.229161 424.025433 0.002359549
4.22942 424.52432 425.440475 424.271032 0.002355578
4.23822 425.20554 425.654089 424.514818 0.002351804
4.24702 425.53101 425.883311 424.756802 0.002350005
4.25582 426.30783 426.100101 424.996991 0.002345723
4.26463 426.07092 426.317847 425.235356 0.002347027
4.27343 425.90881 426.536253 425.471914 0.00234792
4.28223 425.77527 426.75502 425.706638 0.002348657
4.29103 426.01987 426.973931 425.939542 0.002347308
4.29984 425.65894 427.192794 426.170634 0.002349299
4.30864 425.57672 427.413481 426.39989 0.002349753
4.31744 426.03839 427.631739 426.627337 0.002347206
4.32624 427.00867 427.860103 426.852953 0.002341873
4.33504 427.55447 428.077251 427.076751 0.002338883
4.34385 427.98349 428.293701 427.298749 0.002336539
4.35265 428.40485 428.509346 427.518929 0.002334241
4.36145 427.96194 428.724125 427.737305 0.002336656
4.37025 428.2395 428.937993 427.953899 0.002335142
4.37905 428.4082 429.153633 428.168694 0.002334222
4.38786 428.9053 429.365516 428.381726 0.002331517
4.39666 429.1879 429.57633 428.592975 0.002329982
4.40546 429.36584 429.786061 428.802466 0.002329016
4.41426 429.75391 429.994696 429.010224 0.002326913
4.42307 429.83862 430.202194 429.216238 0.002326455
4.43187 429.7847 430.408561 429.420541 0.002326746
4.44067 430.35199 430.613767 429.623126 0.002323679
4.44947 431.92783 430.818023 429.824021 0.002315202
4.45827 432.08798 431.020927 430.02325 0.002314343
4.46708 431.8132 431.222662 430.220807 0.002315816
4.47588 430.9798 431.423246 430.416725 0.002320294
4.48468 430.45169 431.622695 430.611028 0.002323141
4.49348 430.27423 431.820998 430.803714 0.002324099
4.50228 430.9411 432.018189 430.994825 0.002320503
4.51109 432.26959 432.214265 431.184361 0.002313371
4.51989 432.59027 432.40925 431.372352 0.002311656
4.52869 432.89859 432.603176 431.55883 0.00231001
4.53749 432.99704 432.796046 431.743799 0.002309485
4.54630 433.20969 432.98932 431.9273 0.002308351
4.55510 432.44342 433.180172 432.109336 0.002312441
4.56390 432.66806 433.370056 432.289944 0.002311241
4.57270 433.06061 433.559161 432.46916 0.002309146
4.58150 434.09579 433.747202 432.646985 0.002303639
4.59031 434.61078 433.934372 432.823458 0.002300909
4.59911 434.55362 434.120717 432.998616 0.002301212
4.60791 435.02151 434.306258 433.172469 0.002298737
4.61671 435.21091 434.491049 433.34506 0.002297737
4.62551 435.05783 434.675116 433.5164 0.002298545
4.63432 435.10065 434.858515 433.686529 0.002298319
4.64312 435.54181 435.041298 433.855485 0.002295991
4.65192 435.79935 435.22565 434.023278 0.002294634
4.66072 435.88257 435.407327 434.189952 0.002294196
4.66952 435.29407 435.588541 434.355543 0.002297298
4.67833 435.6362 435.769326 434.520066 0.002295493
4.68713 436.08148 435.949761 434.683572 0.002293149
4.69593 436.55338 436.129887 434.846076 0.002290671
4.70473 436.47479 436.309772 435.007616 0.002291083
4.71354 437.31497 436.489494 435.168238 0.002286681
4.72234 437.60968 436.669365 435.327956 0.002285141
4.73114 437.97153 436.848951 435.486825 0.002283253
4.73994 438.54358 437.028564 435.644857 0.002280275
4.74874 438.41077 437.208296 435.802098 0.002280966
4.75755 437.74939 437.388238 435.958591 0.002284412
4.76635 437.52948 437.568456 436.114358 0.00228556
4.77515 437.96204 437.749047 436.269437 0.002283303
4.78395 438.85168 437.930117 436.423877 0.002278674
4.79275 439.24503 438.111747 436.577698 0.002276634
4.80156 439.72232 438.294058 436.730949 0.002274162
4.81036 439.41052 438.477142 436.883653 0.002275776
4.81916 439.21649 438.661168 437.035857 0.002276782
4.82796 439.82895 438.846185 437.187603 0.002273611
4.83676 440.54001 439.033056 437.338914 0.002269941
4.84557 441.26913 439.220521 437.489844 0.002266191
4.85437 441.63962 439.409417 437.640416 0.00226429
4.86317 441.32605 439.599911 437.790672 0.002265898
4.87197 441.01089 439.792183 437.940663 0.002267518
4.88078 441.24902 439.98712 438.09041 0.002266294
4.88958 442.16745 440.183473 438.239956 0.002261587
4.89838 441.81638 440.385438 438.389352 0.002263384
4.90718 441.12741 440.586725 438.538619 0.002266919
4.91598 440.79297 440.790845 438.687814 0.002268639
4.92479 441.48096 440.998035 438.836956 0.002265103
4.93359 442.56284 441.215242 438.986094 0.002259566
4.94239 443.13947 441.429511 439.135275 0.002256626
4.95119 443.39572 441.647792 439.284524 0.002255322
4.95999 443.08673 441.87472 439.433892 0.002256894
4.96880 443.02145 442.102213 439.583405 0.002257227
4.97760 443.90036 442.334965 439.733111 0.002252758
4.98640 444.55524 442.573488 439.883054 0.002249439
4.99520 444.51926 442.818308 440.033259 0.002249621
5.00401 444.14087 443.071204 440.183775 0.002251538
5.01281 445.17725 443.330575 440.334645 0.002246296
5.02161 446.23163 443.598313 440.485894 0.002240989
5.03041 446.46744 443.87751 440.637577 0.002239805
5.03921 446.03711 444.164704 440.789718 0.002241966
5.04802 446.17279 444.463201 440.942362 0.002241284
5.05682 446.18668 444.774268 441.095556 0.002241214
5.06562 446.73526 445.099286 441.249323 0.002238462
5.07442 447.06161 445.439917 441.40372 0.002236828
5.08322 447.31534 445.797979 441.558764 0.002235559
5.09203 447.94254 446.175642 441.714504 0.002232429
5.10083 448.64795 446.575426 441.870987 0.002228919
5.10963 449.25995 447.000191 442.028236 0.002225883
5.11843 449.67343 447.453335 442.186292 0.002223836
5.12723 450.08026 447.938888 442.345205 0.002221826
5.13604 450.54974 448.461537 442.504996 0.002219511
5.14484 451.36148 449.026971 442.665717 0.002215519
5.15364 451.82388 449.641857 442.827387 0.002213252
5.16244 451.89505 450.314382 442.990055 0.002212903
5.17125 452.00842 451.054446 443.153763 0.002212348
5.18005 453.05383 451.874057 443.318531 0.002207243
5.18885 454.12259 452.78874 443.484404 0.002202049
5.19765 455.7099 453.816034 443.651429 0.002194378
5.20645 457.23788 454.979705 443.81962 0.002187045
5.21526 458.6492 456.309586 443.989032 0.002180316
5.22406 459.09811 457.843792 444.159683 0.002178184
5.23286 459.79718 459.6328 444.331614 0.002174872
5.24166 461.56592 461.745776 444.504871 0.002166538
5.25046 465.15393 464.282876 444.679469 0.002149826
5.25927 468.90271 467.403045 444.855464 0.002132639
5.26807 472.90863 471.379024 445.032864 0.002114573
5.27687 478.44556 476.702683 445.211716 0.002090102
5.28567 485.62585 484.251529 445.392062 0.002059198
5.29448 495.28439 495.495662 445.573917 0.002019042
5.30328 510.08914 512.652963 445.75732 0.001960442
5.31208 532.88953 538.614936 445.942314 0.001876562
5.32088 567.86017 576.432946 446.128912 0.001760997
5.32968 625.17017 628.249094 446.317163 0.001599564
5.33849 695.21075 693.727554 446.507079 0.001438413
5.34729 824.36041 767.78458 446.698702 0.001213062
5.35609 907.44006 837.315828 446.89207 0.001102001
5.36489 963.50018 880.040663 447.087192 0.001037883
5.37369 902.33466 875.929335 447.28412 0.001108236
5.38250 850.35944 827.265461 447.482863 0.001175973
5.39130 725.01355 756.008899 447.683455 0.001379285
5.40010 635.56073 683.177708 447.88594 0.001573414
5.40890 558.71429 620.254893 448.090322 0.001789824
5.41770 520.15985 571.319727 448.296642 0.001922486
5.42651 497.58563 536.141508 448.504934 0.002009704
5.43531 484.85062 512.325575 448.715203 0.002062491
5.44411 477.25931 496.787784 448.927499 0.002095297
5.45291 472.23938 486.729705 449.141827 0.00211757
5.46172 469.0806 480.070312 449.358219 0.00213183
5.47052 466.50052 475.445274 449.576713 0.00214362
5.47932 464.83575 472.063146 449.797314 0.002151298
5.48812 464.42578 469.479303 450.020063 0.002153197
5.49692 463.85443 467.446501 450.244963 0.002155849
5.50573 463.68323 465.818778 450.472051 0.002156645
5.51453 463.71198 464.502611 450.701357 0.002156511
5.52333 463.53986 463.433025 450.932881 0.002157312
5.53213 462.74197 462.562061 451.166656 0.002161032
5.54093 462.59677 461.853193 451.402721 0.00216171
5.54974 462.76187 461.278166 451.641064 0.002160939
5.55854 463.18063 460.814569 451.881734 0.002158985
5.56734 463.40527 460.446092 452.124727 0.002157938
5.57614 463.52246 460.157737 452.37007 0.002157393
5.58495 463.34186 459.935187 452.617799 0.002158234
5.59375 463.74734 459.771128 452.867904 0.002156347
5.60255 464.0542 459.657799 453.120434 0.002154921
5.61135 463.91281 459.588832 453.375372 0.002155577
5.62015 464.36478 459.558913 453.632752 0.002153479
5.62896 464.17868 459.563618 453.892605 0.002154343
5.63776 464.46765 459.599256 454.154921 0.002153002
5.64656 464.85736 459.662708 454.419724 0.002151198
5.65536 465.39737 459.75137 454.687046 0.002148701
5.66416 465.93854 459.865234 454.956876 0.002146206
5.67297 465.53659 459.998249 455.22925 0.002148059
5.68177 465.40753 460.150731 455.504156 0.002148655
5.69057 465.7973 460.321576 455.781623 0.002146857
5.69937 466.71466 460.509748 456.061676 0.002142637
5.70817 467.41229 460.7144 456.344295 0.002139439
5.71698 467.61539 460.934903 456.62951 0.00213851
5.72578 467.51788 461.171756 456.91735 0.002138956
5.73458 467.68723 461.422762 457.207787 0.002138181
5.74338 467.27286 461.688778 457.500867 0.002140077
5.75219 467.01523 461.97177 457.796565 0.002141258
5.76099 467.98291 462.268151 458.094912 0.00213683
5.76979 468.47702 462.580293 458.395925 0.002134576
5.77859 468.54919 462.908851 458.699582 0.002134248
5.78739 469.05496 463.254788 459.005925 0.002131946
5.79620 469.16467 463.619297 459.314929 0.002131448
5.80500 469.27188 464.003973 459.626612 0.002130961
5.81380 469.95496 464.411079 459.941 0.002127863
5.82260 470.82742 464.842715 460.258066 0.00212392
5.83140 471.21429 465.302315 460.577828 0.002122177
5.84021 471.41031 465.793994 460.90031 0.002121294
5.84901 471.09573 466.322935 461.225483 0.002122711
5.85781 471.27768 466.895799 461.553382 0.002121891
5.86661 472.35486 467.521292 461.883975 0.002117052
5.87541 473.84714 468.211227 462.217284 0.002110385
5.88422 473.95892 468.982545 462.553332 0.002109887
5.89302 473.33188 469.861065 462.892077 0.002112683
5.90182 473.65161 470.890145 463.233562 0.002111256
5.91062 475.26965 472.145423 463.577751 0.002104069
5.91943 477.39969 473.761107 463.924657 0.002094681
5.92823 479.91776 475.956066 464.274304 0.00208369
5.93703 482.70734 479.077474 464.62665 0.002071649
5.94583 486.78284 483.60471 464.981718 0.002054304
5.95463 493.81332 490.106325 465.339518 0.002025057
5.96344 501.87695 499.124282 465.700013 0.00199252
5.97224 512.44141 510.968412 466.063239 0.001951443
5.98104 523.97247 525.442267 466.429157 0.001908497
5.98984 537.36127 541.475019 466.797775 0.001860945
5.99864 549.53839 556.642205 467.169114 0.001819709
6.00745 559.3205 566.979114 467.543133 0.001787884
6.01625 560.98053 568.580977 467.919859 0.001782593
6.02505 551.76135 560.8907 468.299249 0.001812378
6.03385 537.11536 547.279622 468.681322 0.001861797
6.04266 522.35992 531.936793 469.066086 0.001914389
6.05146 510.43292 517.699019 469.453494 0.001959121
6.06026 500.56555 505.923129 469.843561 0.00199774
6.06906 494.85205 496.983665 470.236306 0.002020806
6.07786 490.651 490.670047 470.631667 0.002038109
6.08667 487.96719 486.475463 471.029685 0.002049318
6.09547 485.69901 483.822854 471.430306 0.002058888
6.10427 483.82376 482.204083 471.833548 0.002066868
6.11307 482.32346 481.240514 472.239415 0.002073297
6.12187 481.52991 480.682189 472.647854 0.002076714
6.13068 481.36847 480.377726 473.058903 0.002077411
6.13948 481.96701 480.240428 473.472507 0.002074831
6.14828 482.25174 480.221044 473.888669 0.002073606
6.15708 482.20734 480.290703 474.307407 0.002073797
6.16589 482.84122 480.431297 474.728664 0.002071074
6.17469 483.35941 480.630637 475.152443 0.002068854
6.18349 484.07242 480.880147 475.578759 0.002065807
6.19229 484.65012 481.173678 476.007556 0.002063344
6.20109 484.6521 481.506922 476.438858 0.002063336
6.20990 484.40024 481.87706 476.872608 0.002064409
6.21870 484.65149 482.282625 477.308816 0.002063338
6.22750 485.00146 482.724434 477.747495 0.002061849
6.23630 485.34302 483.201996 478.188573 0.002060398
6.24510 486.30615 483.718609 478.632061 0.002056318
6.25391 487.53574 484.280185 479.077976 0.002051132
6.26271 488.62561 484.897292 479.52624 0.002046557
6.27151 488.99146 485.587257 479.976892 0.002045025
6.28031 490.04395 486.381155 480.429865 0.002040633
6.28911 491.75238 487.335534 480.885171 0.002033544
6.29792 493.6315 488.540944 481.342808 0.002025803
6.30672 494.26544 490.133938 481.802712 0.002023204
6.31552 495.32813 492.297698 482.264917 0.002018864
6.32432 497.55405 495.244236 482.729357 0.002009832
6.33313 501.48291 499.166941 483.196028 0.001994086
6.34193 506.7142 504.171684 483.664943 0.001973499
6.35073 512.47278 510.1807 484.136035 0.001951323
6.35953 520.69257 516.814356 484.6093 0.001920519
6.36833 527.95148 523.237558 485.08475 0.001894113
6.37714 544.69781 528.074479 485.562316 0.00183588
6.38594 554.36078 529.83172 486.042021 0.001803879
6.39474 553.54645 527.97918 486.523794 0.001806533
6.40354 535.34918 523.455412 487.007641 0.00186794
6.41234 526.05945 517.813291 487.493575 0.001900926
6.42115 514.22235 512.273379 487.981506 0.001944684
6.42995 507.08112 507.513648 488.471475 0.001972071
6.43875 502.07709 503.806592 488.963402 0.001991726
6.44755 499.83603 501.162128 489.457299 0.002000656
6.45636 498.28394 499.437732 489.95316 0.002006888
6.46516 497.33932 498.427283 490.450911 0.0020107
6.47396 497.07513 497.923949 490.950563 0.002011768
6.48276 497.32602 497.758085 491.452109 0.002010753
6.49156 497.07922 497.805997 491.955473 0.002011752
6.50037 497.0683 497.988791 492.460691 0.002011796
6.50917 497.50601 498.258413 492.967684 0.002010026
6.51797 498.15756 498.587055 493.476447 0.002007397
6.52677 498.6058 498.959866 493.986989 0.002005592
6.53557 498.69388 499.364599 494.499233 0.002005238
6.54438 498.65311 499.796221 495.013202 0.002005402
6.55318 499.42728 500.250305 495.528816 0.002002294
6.56198 500.4057 500.724666 496.046081 0.001998379
6.57078 500.73883 501.214917 496.565005 0.001997049
6.57958 500.66409 501.719994 497.085492 0.001997347
6.58839 501.26648 502.238526 497.607552 0.001994947
6.59719 501.73123 502.769414 498.131188 0.001993099
6.60599 501.29742 503.311747 498.65632 0.001994824
6.61479 501.60089 503.865274 499.182971 0.001993617
6.62360 502.19354 504.42883 499.711059 0.001991264
6.63240 502.88052 505.002512 500.240594 0.001988544
6.64120 502.92633 505.586216 500.771566 0.001988363
6.65000 503.08728 506.179903 501.303895 0.001987727
6.65880 503.47009 506.7838 501.837615 0.001986215
6.66761 503.52402 507.398141 502.372642 0.001986003
6.67641 504.53403 508.024133 502.908969 0.001982027
6.68521 505.52359 508.660956 503.446604 0.001978147
6.69401 506.51932 509.310068 503.985464 0.001974258
6.70281 507.47446 509.972483 504.525541 0.001970543
6.71162 507.5665 510.649486 505.066844 0.001970185
6.72042 507.8804 511.343401 505.609288 0.001968967
6.72922 508.20474 512.054446 506.152896 0.001967711
6.73802 508.62561 512.785701 506.697584 0.001966083
6.74682 508.83615 513.540068 507.243355 0.001965269
6.75563 509.10367 514.321131 507.790217 0.001964236
6.76443 509.95062 515.133217 508.338068 0.001960974
6.77323 510.81516 515.982045 508.886917 0.001957655
6.78203 510.91071 516.875126 509.436767 0.001957289
6.79084 512.40619 517.824731 509.987532 0.001951577
6.79964 513.48932 518.842247 510.539236 0.00194746
6.80844 514.1535 519.959098 511.091791 0.001944944
6.81724 515.48944 521.205633 511.645209 0.001939904
6.82604 517.97229 522.655978 512.199478 0.001930605
6.83485 519.758 524.424245 512.754513 0.001923972
6.84365 521.43756 526.690661 513.31035 0.001917775
6.85245 524.55035 529.719631 513.866902 0.001906395
6.86125 528.66333 533.851849 514.424159 0.001891563
6.87005 533.06818 539.487905 514.982132 0.001875933
6.87886 539.59784 547.001127 515.540733 0.001853232
6.88766 548.69592 556.627393 516.099954 0.001822503
6.89646 560.47784 568.311949 516.659803 0.001784192
6.90526 572.72479 581.527903 517.220188 0.001746039
6.91407 584.93811 595.058748 517.781151 0.001709583
6.92287 594.44879 606.775011 518.342587 0.001682231
6.93167 602.4115 613.857269 518.904504 0.001659995
6.94047 605.86963 614.12681 519.466907 0.00165052
6.94927 601.49139 607.743301 520.029709 0.001662534
6.95808 593.62207 597.063654 520.592932 0.001684573
6.96688 580.70398 584.8717 521.15649 0.001722048
6.97568 567.9165 573.183527 521.720394 0.001760822
6.98448 557.52228 563.125339 522.284634 0.00179365
6.99328 549.78271 555.156165 522.849123 0.0018189
7.00209 542.81586 549.28942 523.413873 0.001842245
7.01089 538.44934 545.268023 523.978873 0.001857185
7.01969 535.80011 542.709695 524.544038 0.001866368
7.02849 534.90503 541.221283 525.109403 0.001869491
7.03729 533.77637 540.468238 525.674884 0.001873444
7.04610 532.54181 540.20018 526.24047 0.001877787
7.05490 532.27344 540.247836 526.806173 0.001878734
7.06370 532.56989 540.505553 527.371906 0.001877688
7.07250 533.60657 540.911588 527.937694 0.00187404
7.08131 534.24091 541.431132 528.503451 0.001871815
7.09011 534.46844 542.045834 529.069181 0.001871018
7.09891 535.62177 542.748024 529.634895 0.001866989
7.10771 537.29297 543.536302 530.200489 0.001861182
7.11651 538.40851 544.419004 530.765974 0.001857326
7.12532 539.30627 545.415276 531.331355 0.001854234
7.13412 540.40942 546.560568 531.896547 0.001850449
7.14292 542.14105 547.913879 532.461574 0.001844538
7.15172 543.38562 549.565116 533.026351 0.001840314
7.16052 545.20007 551.631812 533.590891 0.001834189
7.16933 546.90338 554.262166 534.155186 0.001828477
7.17813 550.56616 557.602592 534.719151 0.001816312
7.18693 553.99817 561.770984 535.282825 0.00180506
7.19573 557.5033 566.800962 535.846124 0.001793711
7.20453 560.43237 572.58701 536.409041 0.001784337
7.21334 563.28729 578.815823 536.971587 0.001775293
7.22214 566.14447 584.882735 537.53368 0.001766334
7.23094 568.41687 589.862719 538.095314 0.001759272
7.23974 569.91333 592.730322 538.656501 0.001754653
7.24855 570.76947 592.954855 539.217152 0.001752021
7.25735 570.80658 590.932645 539.777312 0.001751907
7.26615 570.3222 587.66777 540.336879 0.001753395
7.27495 570.09003 584.147909 540.895867 0.001754109
7.28375 570.30029 581.05226 541.454284 0.001753462
7.29256 570.06311 578.760236 542.012046 0.001754192
7.30136 570.62952 577.431314 542.56915 0.001752451
7.31016 572.39667 577.077878 543.125608 0.00174704
7.31896 574.90021 577.626752 543.68134 0.001739432
7.32777 578.2099 578.965306 544.236373 0.001729476
7.33657 582.25458 580.992811 544.790626 0.001717462
7.34537 588.04071 583.641843 545.344114 0.001700563
7.35417 595.34308 586.896326 545.896833 0.001679704
7.36297 604.62469 590.80346 546.448702 0.001653919
7.37178 615.82678 595.494974 546.999762 0.001623833
7.38058 628.76282 601.224187 547.549933 0.001590425
7.38938 644.80493 608.43892 548.099213 0.001550857
7.39818 663.66174 617.892131 548.647616 0.001506792
7.40698 687.85675 630.786022 549.195064 0.001453791
7.41579 714.83539 648.927422 549.741554 0.001398923
7.42459 748.0614 674.823823 550.287101 0.001336789
7.43339 786.41882 711.612185 550.831623 0.001271587
7.44219 834.12915 762.742154 551.375166 0.001198855
7.45099 890.5412 831.302746 551.917635 0.001122913
7.45980 957.71124 919.077309 552.459047 0.001044156
7.46860 1034.6118 1025.369801 552.999411 0.000966546
7.47740 1120.0718 1145.643128 553.538653 0.0008928
7.48620 1206.3145 1270.014287 554.0768 0.000828971
7.49501 1290.1453 1381.606652 554.613778 0.000775106
7.50381 1369.5568 1457.416315 555.149605 0.000730163
7.51261 1429.1238 1476.249431 555.684279 0.000699729
7.52141 1430.1744 1432.296249 556.217726 0.000699215
7.53021 1364.0038 1339.758043 556.749964 0.000733136
7.53902 1253.9113 1222.220608 557.280992 0.000797505
7.54782 1140.1687 1100.400138 557.810738 0.000877063
7.55662 1036.1427 987.905146 558.339243 0.000965118
7.56542 944.92633 892.041375 558.866436 0.001058284
7.57422 870.23309 815.447497 559.392316 0.001149117
7.58303 808.23767 757.57116 559.916903 0.00123726
7.59183 760.78131 715.93186 560.440119 0.001314438
7.60063 724.26453 687.185084 560.962013 0.001380711
7.60943 696.67725 667.983995 561.482496 0.001435385
7.61823 676.70032 655.471025 562.001589 0.001477759
7.62704 660.60089 647.485714 562.519304 0.001513773
7.63584 648.82837 642.546571 563.035573 0.00154124
7.64464 640.0741 639.722077 563.550397 0.001562319
7.65344 634.66919 638.488435 564.063795 0.001575624
7.66225 631.06171 638.609272 564.575701 0.001584631
7.67105 629.56213 640.069979 565.086146 0.001588406
7.67985 630.3219 643.052382 565.595062 0.001586491
7.68865 631.93176 647.94626 566.102471 0.001582449
7.69745 635.07196 655.365233 566.608376 0.001574625
7.70626 642.0152 666.150176 567.11271 0.001557596
7.71506 652.45856 681.322542 567.615517 0.001532664
7.72386 666.03308 701.966083 568.116733 0.001501427
7.73266 683.89526 729.040812 568.616362 0.001462212
7.74146 709.34613 763.149871 569.114424 0.001409749
7.75027 743.00348 804.273424 569.610857 0.001345889
7.75907 787.28613 851.450258 570.105665 0.001270186
7.76787 842.49194 902.394038 570.598869 0.001186955
7.77667 907.00317 953.133464 571.090402 0.001102532
7.78548 978.9469 998.619515 571.580314 0.001021506
7.79428 1039.7509 1035.218423 572.068527 0.000961769
7.80308 1083.3505 1063.670643 572.555062 0.000923062
7.81188 1098.5859 1088.596209 573.039938 0.000910261
7.82068 1101.5548 1114.598509 573.523093 0.000907808
7.82949 1110.7622 1142.870157 574.004535 0.000900283
7.83829 1136.1265 1169.850365 574.484285 0.000880184
7.84709 1176.8363 1187.88239 574.962287 0.000849736
7.85589 1207.5217 1188.833874 575.438572 0.000828142
7.86469 1204.9519 1170.18428 575.913084 0.000829909
7.87350 1170.0151 1138.25278 576.385847 0.00085469
7.88230 1133.0958 1105.019434 576.856867 0.000882538
7.89110 1138.6436 1083.065896 577.326088 0.000878238
7.89990 1212.3945 1083.064724 577.793556 0.000824814
7.90870 1305.6962 1113.33512 578.259216 0.000765875
7.91751 1388.1736 1179.496257 578.723074 0.000720371
7.92631 1472.2788 1283.795302 579.185157 0.000679219
7.93511 1558.6644 1424.011218 579.645403 0.000641575
7.94391 1673.2512 1592.274827 580.103839 0.000597639
7.95272 1772.7363 1773.525847 580.560474 0.0005641
7.96152 1912.8287 1943.804205 581.015254 0.000522786
7.97032 2035.433 2070.877152 581.468225 0.000491296
7.97912 2111.8906 2122.516446 581.919335 0.000473509
7.98792 2062.0247 2083.447006 582.368595 0.00048496
7.99673 1928.5415 1966.169905 582.81603 0.000518527
8.00553 1746.6614 1802.158527 583.261614 0.000572521
8.01433 1555.9473 1624.606286 583.705283 0.000642695
8.02313 1395.8875 1458.765033 584.147139 0.00071639
8.03193 1262.8707 1320.911607 584.587126 0.000791847
8.04074 1168.509 1219.784846 585.025196 0.000855791
8.04954 1116.0992 1158.044235 585.461436 0.000895978
8.05834 1094.765 1133.510572 585.895797 0.000913438
8.06714 1101.3022 1140.073839 586.328232 0.000908016
8.07594 1134.9517 1168.381112 586.758828 0.000881095
8.08475 1169.3669 1206.166604 587.187536 0.000855164
8.09355 1216.3964 1238.644315 587.614312 0.0008221
8.10235 1249.5549 1250.956422 588.03924 0.000800285
8.11115 1245.1422 1233.724541 588.462276 0.000803121
8.11996 1209.4296 1187.833286 588.883418 0.000826836
8.12876 1130.3346 1122.737877 589.302622 0.000884694
8.13756 1035.6425 1050.239316 589.719973 0.000965584
8.14636 949.89496 980.09296 590.135427 0.001052748
8.15516 878.57056 918.991033 590.548942 0.001138213
8.16397 830.60376 870.988122 590.960601 0.001203944
8.17277 803.55615 838.111318 591.370364 0.001244468
8.18157 793.06177 820.816912 591.778188 0.001260936
8.19037 795.35327 818.316998 592.184158 0.001257303
8.19917 806.23016 828.82181 592.588232 0.001240341
8.20798 825.71851 849.635137 592.990367 0.001211066
8.21678 848.63855 877.114858 593.390659 0.001178358
8.22558 884.40875 906.404777 593.789055 0.001130699
8.23438 914.98462 931.283617 594.185561 0.001092915
8.24319 940.32318 944.884822 594.580135 0.001063464
8.25199 948.58539 942.110424 594.972874 0.001054201
8.26079 930.74896 922.442705 595.363725 0.001074404
8.26959 898.72528 890.063835 595.752652 0.001112687
8.27839 854.65833 851.053269 596.139747 0.001170058
8.28720 811.89728 810.790469 596.524972 0.001231683
8.29600 772.96942 773.007357 596.908279 0.001293712
8.30480 741.02246 739.878244 597.289763 0.001349487
8.31360 714.17108 712.377557 597.669385 0.001400225
8.32240 693.65222 690.582589 598.04711 0.001441645
8.33121 677.3963 673.959719 598.423019 0.001476241
8.34001 665.19025 661.659647 598.797079 0.001503329
8.34881 655.87598 652.731082 599.169294 0.001524678
8.35761 648.26154 646.28975 599.539632 0.001542587
8.36641 642.29272 641.601271 599.908174 0.001556923
8.37522 638.03156 638.114435 600.274886 0.001567321
8.38402 634.80182 635.441271 600.639739 0.001575295
8.39282 632.89819 633.323113 601.002811 0.001580033
8.40162 630.5293 631.595208 601.364072 0.001585969
8.41043 629.46832 630.153626 601.723492 0.001588642
8.41923 628.95978 628.931822 602.08115 0.001589927
8.42803 628.52789 627.886373 602.437017 0.001591019
8.43683 628.526 626.987064 602.791062 0.001591024
8.44563 628.63544 626.211266 603.143367 0.001590747
8.45444 628.49835 625.541768 603.493901 0.001591094
8.46324 628.60095 624.964632 603.842673 0.001590834
8.47204 628.51489 624.468441 604.189655 0.001591052
8.48084 628.89868 624.043414 604.534925 0.001590081
8.48964 629.22845 623.681536 604.878456 0.001589248
8.49845 629.61133 623.375918 605.220222 0.001588281
8.50725 629.92676 623.120435 605.560301 0.001587486
8.51605 630.12061 622.910361 605.898666 0.001586998
8.52485 630.58142 622.740844 606.235293 0.001585838
8.53366 630.82843 622.608686 606.570259 0.001585217
8.54246 631.10553 622.509423 606.903538 0.001584521
8.55126 631.3866 622.44171 607.235104 0.001583816
8.56006 631.77637 622.401065 607.565043 0.001582839
8.56886 631.57831 622.386203 607.893321 0.001583335
8.57767 631.35443 622.395151 608.219952 0.001583896
8.58647 631.6413 622.426396 608.544909 0.001583177
8.59527 631.5484 622.478717 608.868279 0.00158341
8.60407 631.45148 622.54956 609.190028 0.001583653
8.61287 632.1925 622.638566 609.510136 0.001581797
8.62168 632.70209 622.744707 609.828684 0.001580523
8.63048 632.25031 622.867183 610.145651 0.001581652
8.63928 631.61084 623.00542 610.461006 0.001583253
8.64808 631.15247 623.159254 610.774835 0.001584403
8.65689 631.32623 623.328581 611.087112 0.001583967
8.66569 630.95123 623.513568 611.397819 0.001584909
8.67449 631.09515 623.715699 611.70703 0.001584547
8.68329 631.96838 623.93724 612.014725 0.001582358
8.69209 632.32867 624.181998 612.320917 0.001581456
8.70090 632.34857 624.4557 612.625586 0.001581406
8.70970 632.47406 624.766521 612.928806 0.001581093
8.71850 633.06018 625.12502 613.230559 0.001579629
8.72730 633.83636 625.542049 613.530828 0.001577694
8.73610 634.73035 626.030293 613.829685 0.001575472
8.74491 635.7688 626.599662 614.127112 0.001572899
8.75371 636.43762 627.255261 614.423094 0.001571246
8.76251 637.44421 627.993198 614.717702 0.001568765
8.77131 637.64856 628.798406 615.010921 0.001568262
8.78011 639.01361 629.639934 615.302732 0.001564912
8.78892 640.61047 630.467698 615.59321 0.001561011
8.79772 641.78192 631.211087 615.882339 0.001558162
8.80652 642.26855 631.789305 616.17013 0.001556981
8.81532 642.22534 632.14002 616.45657 0.001557086
8.82413 641.19904 632.254911 616.741731 0.001559578
8.83293 639.92163 632.184448 617.025596 0.001562691
8.84173 639.9364 632.007965 617.308152 0.001562655
8.85053 639.71228 631.801082 617.589471 0.001563203
8.85933 639.755 631.620066 617.869536 0.001563098
8.86814 639.59442 631.501078 618.148335 0.001563491
8.87694 638.75165 631.463652 618.425939 0.001565554
8.88574 638.49036 631.514535 618.702334 0.001566194
8.89454 638.3587 631.651049 618.977503 0.001566517
8.90334 638.625 631.864873 619.251526 0.001565864
8.91215 638.26398 632.144402 619.524382 0.00156675
8.92095 638.52527 632.47815 619.796086 0.001566109
8.92975 638.8775 632.855557 620.066625 0.001565245
8.93855 639.30115 633.268617 620.336078 0.001564208
8.94736 639.91254 633.711439 620.604422 0.001562714
8.95616 640.62512 634.180228 620.871646 0.001560975
8.96496 640.64716 634.673034 621.137825 0.001560922
8.97376 640.13049 635.188996 621.402948 0.001562181
8.98256 640.2196 635.728116 621.666993 0.001561964
8.99137 640.6037 636.291215 621.93004 0.001561028
9.00017 641.10114 636.879381 622.192074 0.001559816
9.00897 641.56488 637.494136 622.453083 0.001558689
9.01777 641.42426 638.137214 622.713137 0.001559031
9.02657 641.68188 638.81076 622.972225 0.001558405
9.03538 641.8761 639.517213 623.230361 0.001557933
9.04418 643.46936 640.259228 623.487537 0.001554076
9.05298 645.18042 641.040108 623.743819 0.001549954
9.06178 646.43878 641.863305 623.999199 0.001546937
9.07058 647.50244 642.73274 624.253664 0.001544396
9.07939 648.23724 643.653172 624.507285 0.001542645
9.08819 649.3241 644.629665 624.76005 0.001540063
9.09699 649.93152 645.668005 625.011949 0.001538624
9.10579 650.57758 646.775152 625.263051 0.001537096
9.11460 650.05701 647.958686 625.513346 0.001538327
9.12340 650.15314 649.227323 625.762823 0.001538099
9.13220 650.91144 650.591397 626.011551 0.001536307
9.14100 652.50842 652.062678 626.25952 0.001532547
9.14980 653.49866 653.654613 626.50672 0.001530225
9.15861 654.5968 655.383386 626.75322 0.001527658
9.16741 655.28418 657.267403 626.999008 0.001526055
9.17621 656.13129 659.328828 627.244102 0.001524085
9.18501 658.08771 661.593545 627.488494 0.001519554
9.19381 659.88123 664.093411 627.732248 0.001515424
9.20262 661.698 666.867384 627.975357 0.001511263
9.21142 664.28912 669.964495 628.217811 0.001505369
9.22022 667.62689 673.450607 628.459678 0.001497843
9.22902 671.80487 677.415895 628.700947 0.001488527
9.23782 677.28052 681.992298 628.941609 0.001476493
9.24663 683.78705 687.379865 629.181736 0.001462444
9.25543 691.29303 693.885664 629.421313 0.001446565
9.26423 700.51648 701.985148 629.66033 0.001427518
9.27303 712.22839 712.402402 629.898859 0.001404044
9.28184 726.90845 726.202392 630.136892 0.001375689
9.29064 745.31 744.888574 630.374438 0.001341724
9.29944 768.62164 770.473036 630.611491 0.00130103
9.30824 798.66315 805.480665 630.848119 0.001252092
9.31704 835.87897 852.831316 631.084316 0.001196345
9.32585 885.41113 915.562804 631.320065 0.001129419
9.33465 944.58252 996.400755 631.555438 0.001058669
9.34345 1019.1556 1097.111644 631.790425 0.000981204
9.35225 1109.5571 1217.81304 632.025017 0.000901261
9.36105 1223.9109 1356.211706 632.259279 0.000817053
9.36986 1356.0365 1506.778566 632.493203 0.000737443
9.37866 1518.1187 1660.070374 632.726781 0.00065871
9.38746 1694.4003 1802.283946 632.960077 0.000590179
9.39626 1877.6937 1915.886154 633.193082 0.000532568
9.40507 2047.3381 1982.694219 633.425812 0.000488439
9.41387 2168.1719 1989.704322 633.65826 0.000461218
9.42267 2207.5991 1935.104467 633.890488 0.000452981
9.43147 2118.3718 1829.618185 634.122489 0.000472061
9.44027 1909.7869 1691.382878 634.354255 0.000523619
9.44908 1646.5035 1538.962148 634.585849 0.000607348
9.45788 1399.043 1387.262079 634.817262 0.000714774
9.46668 1202.8712 1246.563828 635.048486 0.000831344
9.47548 1057.6211 1122.96301 635.279585 0.000945518
9.48428 950.43915 1019.281118 635.510549 0.001052145
9.49309 875.14856 935.774283 635.741372 0.001142663
9.50189 821.43109 870.869211 635.972114 0.001217388
9.51069 782.96283 821.960584 636.202768 0.0012772
9.51949 753.97998 786.000503 636.43335 0.001326295
9.52829 732.51501 760.00188 636.66385 0.00136516
9.53710 716.56427 741.334124 636.89433 0.001395548
9.54590 705.52533 727.88575 637.124783 0.001417384
9.55470 696.01593 718.064922 637.355199 0.001436749
9.56350 688.92657 710.735716 637.585641 0.001451534
9.57231 683.44568 705.130288 637.816099 0.001463174
9.58111 679.1214 700.74464 638.046562 0.001472491
9.58991 676.25275 697.253957 638.277101 0.001478737
9.59871 673.52155 694.452798 638.507697 0.001484733
9.60751 671.41156 692.209055 638.738341 0.001489399
9.61632 669.95172 690.434876 638.969101 0.001492645
9.62512 669.47064 689.07209 639.199968 0.001493717
9.63392 670.09863 688.080643 639.430949 0.001492318
9.64272 669.7785 687.433955 639.662036 0.001493031
9.65152 669.62244 687.115576 639.893295 0.001493379
9.66033 670.36566 687.119334 640.124717 0.001491723
9.66913 671.99969 687.448422 640.356284 0.001488096
9.67793 673.58118 688.116659 640.588064 0.001484602
9.68673 675.72601 689.151604 640.820046 0.00147989
9.69553 678.9361 690.597775 641.052218 0.001472893
9.70434 682.68256 692.524179 641.284643 0.00146481
9.71314 686.75012 695.035354 641.517309 0.001456134
9.72194 692.82428 698.288883 641.750206 0.001443367
9.73074 700.46814 702.520156 641.983396 0.001427617
9.73955 709.91492 708.074571 642.216866 0.00140862
9.74835 721.42096 715.447931 642.450631 0.001386153
9.75715 735.69458 725.320873 642.684679 0.00135926
9.76595 751.21027 738.586857 642.919071 0.001331185
9.77475 770.00159 756.342054 643.153795 0.001298699
9.78356 793.6618 779.840245 643.388841 0.001259983
9.79236 823.30493 810.389737 643.624268 0.001214617
9.80116 857.67572 849.186278 643.860065 0.001165942
9.80996 898.26709 897.084988 644.096221 0.001113255
9.81876 945.75226 954.339833 644.332795 0.001057359
9.82757 1005.2054 1020.250988 644.569775 0.000994822
9.83637 1076.8739 1092.876715 644.80715 0.000928614
9.84517 1159.6995 1168.779372 645.044978 0.000862292
9.85397 1247.6945 1242.712979 645.283249 0.000801478
9.86278 1331.313 1307.674097 645.521974 0.000751138
9.87158 1396.2382 1355.788637 645.761139 0.00071621
9.88038 1431.6199 1380.701499 646.000804 0.000698509
9.88918 1433.7045 1380.588672 646.240957 0.000697494
9.89798 1406.9583 1359.462754 646.481584 0.000710753
9.90679 1367.5586 1325.26979 646.722746 0.00073123
9.91559 1319.6067 1286.627362 646.964428 0.000757802
9.92439 1277.1838 1250.448128 647.206613 0.000782973
9.93319 1235.5092 1221.027969 647.449371 0.000809383
9.94199 1187.5839 1199.981618 647.692678 0.000842046
9.95080 1145.8483 1186.350702 647.936521 0.000872716
9.95960 1116.9943 1176.850123 648.180964 0.00089526
9.96840 1100.9117 1166.533575 648.425993 0.000908338
9.97720 1088.7058 1150.231485 648.671612 0.000918522
9.98600 1067.4354 1124.575609 648.917807 0.000936825
9.99481 1035.0771 1089.334195 649.164642 0.000966112
10.00361 994.20105 1047.047087 649.412111 0.001005833
10.01241 957.50275 1001.461976 649.660161 0.001044383
10.02121 933.64264 956.153797 649.908909 0.001071074
10.03002 912.64594 914.007254 650.158279 0.001095715
10.03882 899.15015 877.120343 650.408281 0.001112161
10.04762 895.1311 846.935784 650.659007 0.001117155
10.05642 888.84271 824.424612 650.910383 0.001125058
10.06522 894.07739 810.172859 651.162445 0.001118471
10.07403 903.75195 804.528475 651.415202 0.001106498
10.08283 928.4566 807.679843 651.66869 0.001077056
10.09163 955.43195 819.690426 651.922862 0.001046647
10.10043 997.01593 840.458763 652.177724 0.001002993
10.10923 1033.53 869.62966 652.433371 0.000967558
10.11804 1071.3904 906.404296 652.689726 0.000933367
10.12684 1099.9116 949.396835 652.946824 0.000909164
10.13564 1116.7473 996.409957 653.204672 0.000895458
10.14444 1120.6429 1044.260982 653.463309 0.000892345
10.15325 1121.4521 1088.584732 653.722653 0.000891701
10.16205 1120.6206 1124.0237 653.9828 0.000892363
10.17085 1110.7302 1144.993896 654.243757 0.000900309
10.17965 1100.8638 1147.434124 654.505441 0.000908378
10.18845 1078.8385 1130.607377 654.767979 0.000926923
10.19726 1055.2583 1097.454404 655.031289 0.000947635
10.20606 1022.2705 1053.145045 655.295435 0.000978215
10.21486 977.70508 1003.193537 655.560336 0.001022803
10.22366 926.46869 952.199232 655.826086 0.001079367
10.23246 873.82611 903.558732 656.092693 0.001144392
10.24127 821.45685 859.530006 656.360072 0.001217349
10.25007 784.05829 821.357589 656.628349 0.001275415
10.25887 755.38074 789.507949 656.89744 0.001323836
10.26767 736.1355 763.829178 657.167381 0.001358446
10.27647 721.94025 743.734472 657.438176 0.001385156
10.28528 711.37292 728.406714 657.709832 0.001405732
10.29408 703.1875 716.943288 657.982353 0.001422096
10.30288 696.90607 708.472573 658.255744 0.001434914
10.31168 692.79633 702.237289 658.530042 0.001443426
10.32048 689.61993 697.621348 658.805158 0.001450074
10.32929 687.73273 694.152047 659.081221 0.001454053
10.33809 686.39532 691.487323 659.358143 0.001456886
10.34689 685.51038 689.387965 659.635958 0.001458767
10.35569 684.66687 687.692557 659.91467 0.001460564
10.36450 683.59485 686.293398 660.194285 0.001462855
10.37330 682.74719 685.120155 660.474838 0.001464671
10.38210 682.35547 684.125836 660.756236 0.001465512
10.39090 682.28442 683.277936 661.038613 0.001465664
10.39971 681.35229 682.553674 661.321874 0.00146767
10.40851 681.08972 681.935971 661.606023 0.001468235
10.41731 681.23175 681.411428 661.89116 0.001467929
10.42611 681.42657 680.969445 662.177192 0.00146751
10.43491 680.90924 680.6014 662.464154 0.001468625
10.44371 681.07153 680.299909 662.752049 0.001468275
10.45252 681.23364 680.058935 663.040912 0.001467925
10.46132 681.3421 679.873575 663.33068 0.001467691
10.47012 680.94781 679.739457 663.621356 0.001468541
10.47892 681.44128 679.653156 663.91304 0.001467478
10.48773 682.00983 679.611836 664.205637 0.001466255
10.49653 682.16107 679.613313 664.499181 0.001465929
10.50533 682.11932 679.656067 664.793674 0.001466019
10.51413 682.70807 679.738957 665.089118 0.001464755
10.52293 683.69775 679.861685 665.385514 0.001462635
10.53174 684.58984 680.024558 665.682865 0.001460729
10.54054 685.7171 680.228959 665.981205 0.001458327
10.54934 687.26306 680.47745 666.280434 0.001455047
10.55814 688.68866 680.774778 666.58069 0.001452035
10.56695 690.12756 681.128477 666.88187 0.001449007
10.57575 691.26495 681.550672 667.18401 0.001446623
10.58455 693.39508 682.060108 667.487112 0.001442179
10.59335 695.04169 682.685097 667.791174 0.001438763
10.60215 698.08539 683.46689 668.096234 0.00143249
10.61096 701.45538 684.463192 668.402186 0.001425607
10.61976 705.67737 685.752219 668.70917 0.001417078
10.62856 710.38538 687.433541 669.017083 0.001407687
10.63736 714.81653 689.627537 669.325959 0.00139896
10.64616 718.50403 692.469473 669.635797 0.001391781
10.65497 722.31946 696.099849 669.946598 0.001384429
10.66377 727.27997 700.644762 670.258361 0.001374986
10.67257 731.35748 706.197263 670.571086 0.00136732
10.68137 735.01056 712.788053 670.884808 0.001360525
10.69017 738.22211 720.360576 671.199455 0.001354606
10.69898 741.56171 728.744937 671.515062 0.001348505
10.70778 745.18378 737.631188 671.831627 0.001341951
10.71658 747.79108 746.550359 672.149151 0.001337272
10.72538 751.26807 754.851708 672.467631 0.001331083
10.73419 754.86578 761.737586 672.787066 0.001324739
10.74299 757.76978 766.37542 673.107492 0.001319662
10.75179 759.83716 768.132324 673.428798 0.001316071
10.76059 761.52631 766.817036 673.751128 0.001313152
10.76939 762.89014 762.748375 674.07437 0.001310805
10.77820 759.49329 756.595017 674.398523 0.001316667
10.78700 752.94336 749.134699 674.723695 0.001328121
10.79580 743.57935 741.090535 675.049774 0.001344846
10.80460 733.5509 733.059265 675.376831 0.001363232
10.81340 722.64575 725.494773 675.704752 0.001383804
10.82221 715.68457 718.703497 676.033648 0.001397264
10.83101 709.4928 712.862229 676.363515 0.001409458
10.83981 705.72595 708.033821 676.694239 0.001416981
10.84861 702.64508 704.191618 677.025967 0.001423194
10.85741 700.73767 701.250873 677.358584 0.001427068
10.86622 699.04736 699.091246 677.692124 0.001430518
10.87502 698.37415 697.580119 678.026584 0.001431897
10.88382 697.90027 696.587458 678.361961 0.001432869
10.89262 697.81195 695.998185 678.698252 0.001433051
10.90142 698.24036 695.7158 679.035455 0.001432172
10.91023 698.76337 695.664697 679.373603 0.0014311
10.91903 699.03857 695.788062 679.712616 0.001430536
10.92783 699.15271 696.045439 680.052531 0.001430303
10.93663 699.01575 696.409303 680.393341 0.001430583
10.94544 698.42212 696.861968 680.735045 0.001431799
10.95424 698.76031 697.393242 681.077638 0.001431106
10.96304 700.17346 697.998455 681.421116 0.001428218
10.97184 701.65747 698.677714 681.765515 0.001425197
10.98064 702.40967 699.43488 682.110713 0.001423671
10.98945 703.33734 700.279039 682.456862 0.001421793
10.99825 704.52325 701.224216 682.80384 0.0014194
11.00705 705.1012 702.291853 683.151683 0.001418236
11.01585 706.14142 703.512782 683.500385 0.001416147
11.02465 707.46899 704.929835 683.849943 0.00141349
11.03346 709.11737 706.601544 684.200392 0.001410204
11.04226 710.97925 708.603379 684.551607 0.001406511
11.05106 713.11804 711.033367 684.903743 0.001402292
11.05986 715.90485 714.009352 685.256676 0.001396834
11.06867 718.43329 717.671257 685.61044 0.001391918
11.07747 720.47644 722.175806 685.965032 0.00138797
11.08627 723.49292 727.688169 686.320444 0.001382184
11.09507 728.87146 734.370681 686.676673 0.001371984
11.10387 735.25525 742.363938 687.033713 0.001360072
11.11268 741.77563 751.764845 687.3916 0.001348117
11.12148 749.87775 762.589484 687.750206 0.001333551
11.13028 758.7594 774.751694 688.109648 0.001317941
11.13908 769.36438 788.028949 688.469921 0.001299774
11.14789 780.98511 802.042967 688.830937 0.001280434
11.15669 793.47589 816.308422 689.192731 0.001260278
11.16549 807.08698 830.272999 689.555298 0.001239024
11.17429 820.47461 843.378973 689.918674 0.001218807
11.18309 833.04761 855.038702 690.282728 0.001200412
11.19190 844.83673 864.653522 690.64758 0.001183661
11.20070 855.59717 871.698116 691.013222 0.001168774
11.20950 864.12512 875.96499 691.379525 0.00115724
11.21830 871.82629 877.83358 691.746649 0.001147017
11.22710 877.52899 878.310283 692.114462 0.001139563
11.23591 883.19128 878.840599 692.483001 0.001132258
11.24471 889.47601 881.016704 692.852259 0.001124257
11.25351 898.96002 886.3911 693.22223 0.001112397
11.26231 911.09418 896.356045 693.59295 0.001097581
11.27111 928.57397 912.0827 693.964285 0.00107692
11.27992 949.65448 934.393873 694.3364 0.001053015
11.28872 975.50848 963.6067 694.709159 0.001025106
11.29752 1003.8822 999.436235 695.082599 0.000996133
11.30632 1042.209 1040.851205 695.456714 0.0009595
11.31513 1086.2318 1086.039747 695.831497 0.000920614
11.32393 1138.8043 1132.299043 696.206941 0.000878114
11.33273 1190.4426 1176.040713 696.583039 0.000840024
11.34153 1239.8209 1212.967152 696.959829 0.000806568
11.35033 1281.6875 1238.581374 697.337174 0.000780221
11.35914 1308.1633 1249.369645 697.715239 0.000764431
11.36794 1309.0863 1243.999062 698.093889 0.000763892
11.37674 1276.6885 1223.96427 698.47316 0.000783276
11.38554 1217.4563 1193.027425 698.853045 0.000821385
11.39434 1147.5663 1155.97648 699.233537 0.000871409
11.40315 1085.5726 1117.474237 699.614672 0.000921173
11.41195 1037.8752 1081.547169 699.996314 0.000963507
11.42075 1002.233 1051.284768 700.37863 0.000997772
11.42955 986.13306 1028.965156 700.761481 0.001014062
11.43835 980.15399 1015.971863 701.14486 0.001020248
11.44716 985.10791 1012.869177 701.528892 0.001015117
11.45596 996.81134 1019.426305 701.913438 0.001003199
11.46476 1017.827 1034.609418 702.298536 0.000982485
11.47356 1044.2853 1056.736711 702.684177 0.000957593
11.48237 1077.244 1083.589421 703.070399 0.000928295
11.49117 1110.5337 1112.648818 703.457062 0.000900468
11.49997 1143.2197 1141.235789 703.844292 0.000874723
11.50877 1170.4442 1166.502019 704.232081 0.000854376
11.51757 1190.199 1185.459568 704.620334 0.000840196
11.52638 1203.1277 1195.245542 705.009088 0.000831167
11.53518 1203.7205 1193.868793 705.398335 0.000830758
11.54398 1184.3267 1180.939708 705.788112 0.000844362
11.55278 1145.7509 1158.00102 706.17828 0.00087279
11.56158 1098.6215 1127.956281 706.568964 0.000910232
11.57039 1047.8076 1094.166432 706.960157 0.000954374
11.57919 1006.0369 1059.656153 707.351718 0.000993999
11.58799 972.0813 1026.723744 707.743819 0.001028721
11.59679 948.84796 996.878893 708.136317 0.00105391
11.60559 930.66095 970.856591 708.52925 0.001074505
11.61440 916.29926 948.69108 708.922611 0.001091347
11.62320 901.63995 929.840576 709.316394 0.00110909
11.63200 888.95648 913.361736 709.710634 0.001124914
11.64080 876.31512 898.186525 710.105191 0.001141142
11.64961 864.78729 883.447513 710.500236 0.001156354
11.65841 854.21832 868.710812 710.895628 0.001170661
11.66721 842.51227 853.977099 711.291404 0.001186926
11.67601 829.27655 839.514431 711.687557 0.00120587
11.68481 814.64423 825.683573 712.08408 0.00122753
11.69362 800.76227 812.80731 712.480965 0.00124881
11.70242 789.1778 801.133781 712.878205 0.001267142
11.71122 779.95471 790.823499 713.275839 0.001282126
11.72002 772.59741 781.951685 713.673722 0.001294335
11.72883 767.27441 774.507339 714.07203 0.001303315
11.73763 763.13519 768.407278 714.470618 0.001310384
11.74643 759.53113 763.504415 714.869526 0.001316602
11.75523 757.05334 759.603524 715.268745 0.001320911
11.76403 755.16541 756.490518 715.66827 0.001324213
11.77284 753.25079 753.959732 716.068137 0.001327579
11.78164 751.95361 751.844126 716.468203 0.001329869
11.79044 749.8042 750.030864 716.868644 0.001333682
11.79924 748.16528 748.462103 717.269316 0.001336603
11.80804 746.62994 747.120021 717.670211 0.001339352
11.81685 745.68939 746.012264 718.071459 0.001341041
11.82565 745.33905 745.163442 718.472917 0.001341671
11.83445 744.3255 744.609838 718.874622 0.001343498
11.84325 744.25366 744.397622 719.276569 0.001343628
11.85206 745.4613 744.580695 719.678796 0.001341451
11.86086 747.54694 745.21917 720.081204 0.001337709
11.86966 750.13385 746.374359 720.483787 0.001333095
11.87846 752.133 748.105329 720.886675 0.001329552
11.88726 753.5722 750.460503 721.289723 0.001327013
11.89607 755.02631 753.469405 721.692971 0.001324457
11.90487 757.11993 757.13457 722.096413 0.001320795
11.91367 758.96252 761.419162 722.500086 0.001317588
11.92247 760.54077 766.23806 722.903847 0.001314854
11.93127 762.27997 771.451289 723.307827 0.001311854
11.94008 765.45514 776.851212 723.712019 0.001306412
11.94888 768.23914 782.157359 724.116279 0.001301678
11.95768 771.56635 787.019803 724.520784 0.001296065
11.96648 775.37805 791.037128 724.925389 0.001289693
11.97528 779.32501 793.822459 725.33018 0.001283162
11.98409 781.35724 795.100853 725.735013 0.001279824
11.99289 782.3363 794.803442 726.140019 0.001278223
12.00169 780.96619 793.089322 726.545192 0.001280465
12.01049 778.25244 790.283139 726.950387 0.00128493
12.01929 774.66608 786.771577 727.355782 0.001290879
12.02810 770.44995 782.924691 727.761233 0.001297943
12.03690 766.84961 779.061885 728.166779 0.001304037
12.04570 765.49573 775.453736 728.572415 0.001306343
12.05450 765.11102 772.332891 728.978135 0.001307
12.06330 765.1062 769.908103 729.383931 0.001307008
12.07211 765.43817 768.360066 729.789799 0.001306441
12.08091 765.94806 767.838092 730.195778 0.001305572
12.08971 767.56952 768.453211 730.601771 0.001302814
12.09851 770.15283 770.272876 731.007816 0.001298444
12.10732 773.49854 773.319676 731.41391 0.001292827
12.11612 777.49329 777.560833 731.820045 0.001286185
12.12492 782.88232 782.903448 732.226216 0.001277331
12.13372 788.39801 789.187175 732.632417 0.001268395
12.14252 796.08301 796.170517 733.038689 0.00125615
12.15133 801.05164 803.523396 733.444888 0.001248359
12.16013 807.47955 810.821946 733.851193 0.001238421
12.16893 813.32672 817.542976 734.25746 0.001229518
12.17773 821.23712 823.092925 734.663683 0.001217675
12.18653 825.71643 826.886541 735.069996 0.00121107
12.19534 831.15399 828.473646 735.476254 0.001203146
12.20414 828.84515 827.683064 735.882545 0.001206498
12.21294 825.16827 824.684232 736.288726 0.001211874
12.22174 819.02777 819.922449 736.694974 0.00122096
12.23055 813.02441 813.979137 737.101148 0.001229975
12.23935 806.23584 807.436995 737.507242 0.001240332
12.24815 799.7702 800.797086 737.913389 0.001250359
12.25695 795.4278 794.455464 738.319446 0.001257185
12.26575 790.90637 788.698352 738.725454 0.001264372
12.27456 787.68164 783.706657 739.131409 0.001269548
12.28336 783.76807 779.571048 739.537352 0.001275888
12.29216 783.43646 776.299997 739.943139 0.001276428
12.30096 783.64246 773.832397 740.348905 0.001276092
12.30977 784.37152 772.054936 740.754644 0.001274906
12.31857 785.07892 770.8167 741.160261 0.001273757
12.32737 786.98761 769.950076 741.565796 0.001270668
12.33617 789.24622 769.293979 741.971246 0.001267032
12.34497 792.26733 768.720262 742.376652 0.0012622
12.35378 793.00885 768.150398 742.781871 0.00126102
12.36258 791.59943 767.55761 743.187038 0.001263265
12.37138 788.2829 766.954145 743.592148 0.00126858
12.38018 784.2373 766.372719 743.997059 0.001275124
12.38898 780.6803 765.852608 744.401952 0.001280934
12.39779 777.42993 765.431915 744.806684 0.00128629
12.40659 774.91418 765.144984 745.211297 0.001290465
12.41539 773.7074 765.021526 745.615787 0.001292478
12.42419 772.52368 765.0867 746.020151 0.001294459
12.43299 771.70288 765.362824 746.424385 0.001295836
12.44180 771.55389 765.869798 746.828485 0.001296086
12.45060 772.36835 766.627573 747.232494 0.001294719
12.45940 773.54834 767.656342 747.636316 0.001292744
12.46820 774.91437 768.97871 748.039993 0.001290465
12.47701 776.31854 770.619363 748.443523 0.001288131
12.48581 777.68475 772.604431 748.846902 0.001285868
12.49461 779.79712 774.960037 749.250126 0.001282385
12.50341 781.92517 777.710715 749.653193 0.001278895
12.51221 785.03088 780.876934 750.056144 0.001273835
12.52102 788.70789 784.472326 750.458841 0.001267897
12.52982 792.76361 788.507306 750.861461 0.00126141
12.53862 797.14673 792.985316 751.263867 0.001254474
12.54742 801.87469 797.908134 751.666053 0.001247078
12.55622 807.20197 803.277494 752.068156 0.001238847
12.56503 813.23224 809.089257 752.470034 0.001229661
12.57383 819.92542 815.341482 752.871777 0.001219623
12.58263 826.84076 822.039169 753.273245 0.001209423
12.59143 834.78571 829.228641 753.674618 0.001197912
12.60023 843.52502 837.021887 754.075757 0.001185501
12.60904 853.04053 845.614939 754.476658 0.001172277
12.61784 860.97888 855.272511 754.877458 0.001161469
12.62664 869.85168 866.265385 755.278015 0.001149621
12.63544 878.07495 878.829791 755.678375 0.001138855
12.64424 886.73999 893.103775 756.078534 0.001127726
12.65305 898.99066 909.116851 756.478535 0.001112359
12.66185 914.28412 926.75557 756.878242 0.001093752
12.67065 928.92474 945.794979 757.277787 0.001076513
12.67945 946.00702 965.905739 757.677168 0.001057075
12.68826 964.0835 986.662712 758.076294 0.001037255
12.69706 982.36584 1007.62427 758.475208 0.001017951
12.70586 1001.6176 1028.367292 758.873907 0.000998385
12.71466 1021.5854 1048.609044 759.272436 0.000978871
12.72346 1042.5631 1068.280619 759.670657 0.000959175
12.73227 1065.989 1087.517763 760.068705 0.000938096
12.74107 1090.3149 1106.502075 760.466577 0.000917166
12.74987 1114.7244 1125.214941 760.864136 0.000897083
12.75867 1141.215 1143.289716 761.261563 0.000876259
12.76747 1165.1581 1159.916139 761.65872 0.000858253
12.77628 1189.2637 1173.939436 762.05565 0.000840856
12.78508 1207.5475 1184.133063 762.452354 0.000828125
12.79388 1220.3174 1189.549088 762.848829 0.000819459
12.80268 1228.2264 1189.812412 763.24512 0.000814182
12.81148 1233.7285 1185.132458 763.64109 0.000810551
12.82029 1228.7247 1176.068452 764.036919 0.000813852
12.82909 1212.8163 1163.219698 764.43247 0.000824527
12.83789 1189.8149 1147.090424 764.827789 0.000840467
12.84669 1164.7666 1128.13869 765.222873 0.000858541
12.85550 1137.0875 1106.986022 765.617722 0.00087944
12.86430 1110.188 1084.510403 766.012336 0.000900748
12.87310 1083.877 1061.816648 766.406713 0.000922614
12.88190 1057.9277 1040.02183 766.800899 0.000945244
12.89070 1033.6748 1020.072256 767.194758 0.000967422
12.89951 1014.8966 1002.594628 767.588469 0.000985322
12.90831 995.11255 987.872025 767.981896 0.001004911
12.91711 979.78082 975.866355 768.375085 0.001020636
12.92591 964.59052 966.261666 768.768036 0.001036709
12.93472 954.09662 958.57487 769.160747 0.001048112
12.94352 942.29407 952.222614 769.553263 0.00106124
12.95232 933.7041 946.608295 769.945451 0.001071003
12.96112 925.60767 941.145755 770.337489 0.001080371
12.96992 919.45551 935.274772 770.729242 0.0010876
12.97873 915.24438 928.515816 771.120711 0.001092604
12.98753 914.56665 920.541839 771.512029 0.001093414
12.99633 917.04407 911.276754 771.903063 0.00109046
13.00513 923.53558 900.89871 772.293858 0.001082795
13.01393 926.29895 889.775658 772.684414 0.001079565
13.02274 914.93915 878.351112 773.074775 0.001092969
13.03154 889.58069 867.057099 773.464853 0.001124125
13.04034 861.13696 856.250895 773.854649 0.001161255
13.04914 841.36859 846.200248 774.244295 0.00118854
13.05795 828.36475 837.09464 774.633659 0.001207198
13.06675 819.18103 829.037593 775.022786 0.001220731
13.07555 811.77203 822.069575 775.411676 0.001231873
13.08435 806.94458 816.17208 775.800375 0.001239242
13.09315 803.4718 811.288116 776.18875 0.001244599
13.10196 800.9198 807.326301 776.576934 0.001248564
13.11076 798.53607 804.178893 776.964928 0.001252292
13.11956 796.9054 801.73457 777.3526 0.001254854
13.12836 794.86493 799.881742 777.740128 0.001258075
13.13716 792.90973 798.522404 778.12738 0.001261178
13.14597 792.12756 797.571573 778.514444 0.001262423
13.15477 792.42523 796.962591 778.901191 0.001261949
13.16357 792.64362 796.645528 779.287752 0.001261601
13.17237 793.45258 796.586972 779.674128 0.001260315
13.18117 793.60034 796.767493 780.06019 0.00126008
13.18998 793.91547 797.17836 780.446112 0.00125958
13.19878 795.3916 797.81825 780.831766 0.001257242
13.20758 797.45825 798.688912 781.217195 0.001253984
13.21638 798.2113 799.791818 781.602401 0.001252801
13.22518 798.96277 801.122668 781.987385 0.001251623
13.23399 800.73602 802.67136 782.372148 0.001248851
13.24279 802.70935 804.413829 782.756691 0.001245781
13.25159 806.93176 806.312879 783.14106 0.001239262
13.26039 810.78925 808.315505 783.525167 0.001233366
13.26920 813.31329 810.351584 783.909059 0.001229538
13.27800 816.13605 812.33422 784.292736 0.001225286
13.28680 819.05743 814.159157 784.6762 0.001220916
13.29560 819.93146 815.711904 785.059452 0.001219614
13.30440 822.258 816.879862 785.442493 0.001216163
13.31321 823.79102 817.575548 785.825369 0.0012139
13.32201 824.40472 817.76056 786.20795 0.001212996
13.33081 825.06415 817.459056 786.590412 0.001212027
13.33961 824.3689 816.750434 786.972626 0.001213049
13.34841 822.22913 815.747566 787.354593 0.001216206
13.35722 820.19757 814.570104 787.736445 0.001219218
13.36602 817.80035 813.326806 788.118054 0.001222792
13.37482 814.49481 812.106163 788.499507 0.001227755
13.38362 812.17505 810.9737 788.880677 0.001231262
13.39243 809.99084 809.972504 789.261738 0.001234582
13.40123 807.73914 809.125449 789.642562 0.001238023
13.41003 806.30042 808.437649 790.02315 0.001240233
13.41883 805.40601 807.897996 790.403634 0.00124161
13.42763 804.92328 807.48346 790.783886 0.001242354
13.43644 804.12653 807.164119 791.163951 0.001243585
13.44524 802.8421 806.909697 791.54383 0.001245575
13.45404 801.99548 806.697311 791.923568 0.00124689
13.46284 801.52032 806.515091 792.303038 0.001247629
13.47164 800.87848 806.362591 792.682371 0.001248629
13.48045 800.15887 806.247941 793.061567 0.001249752
13.48925 799.95654 806.183842 793.440501 0.001250068
13.49805 799.53986 806.185124 793.819345 0.001250719
13.50685 798.85779 806.267289 794.197973 0.001251787
13.51566 799.41797 806.445773 794.576472 0.00125091
13.52446 800.01727 806.735585 794.954715 0.001249973
13.53326 800.01984 807.15092 795.332832 0.001249969
13.54206 799.65656 807.7043 795.710826 0.001250537
13.55086 799.79156 808.405688 796.088568 0.001250326
13.55967 800.63104 809.261874 796.466234 0.001249015
13.56847 801.42725 810.274523 796.843695 0.001247774
13.57727 802.39996 811.440226 797.220997 0.001246261
13.58607 803.12689 812.748511 797.59814 0.001245133
13.59487 804.15332 814.181698 797.975128 0.001243544
13.60368 805.11749 815.713404 798.351961 0.001242055
13.61248 806.3858 817.308248 798.728641 0.001240101
13.62128 807.34052 818.921942 799.105213 0.001238635
13.63008 808.41779 820.499836 799.481593 0.001236984
13.63889 809.13727 821.981133 799.857826 0.001235884
13.64769 810.05933 823.30284 800.233913 0.001234477
13.65649 811.60291 824.411169 800.609855 0.00123213
13.66529 813.02911 825.275023 800.985655 0.001229968
13.67409 814.59674 825.899061 801.361315 0.001227601
13.68290 816.52271 826.327559 801.736878 0.001224706
13.69170 817.81274 826.63976 802.112218 0.001222774
13.70050 819.08038 826.938483 802.487508 0.001220881
13.70930 820.24921 827.341595 802.862621 0.001219142
13.71810 822.94122 827.975453 803.237559 0.001215154
13.72691 825.87909 828.975303 803.612451 0.001210831
13.73571 829.01257 830.485533 803.987171 0.001206254
13.74451 832.85321 832.65931 804.361806 0.001200692
13.75331 837.95288 835.658402 804.736229 0.001193385
13.76211 844.09515 839.649258 805.110613 0.001184701
13.77092 852.21637 844.794863 805.484831 0.001173411
13.77972 862.11969 851.243326 805.858885 0.001159932
13.78852 872.79419 859.118312 806.232903 0.001145745
13.79732 889.70062 868.496945 806.606761 0.001123974
13.80612 918.27734 879.393605 806.980501 0.001088996
13.81493 961.49744 891.747801 807.354124 0.001040044
13.82373 1015.6425 905.398411 807.727676 0.000984598
13.83253 1050.7161 920.072903 808.10103 0.000951732
13.84133 1042.9635 935.381984 808.474314 0.000958806
13.85014 1008.9762 950.797453 808.84753 0.000991104
13.85894 982.92206 965.655258 809.220594 0.001017375
13.86774 972.42651 979.161851 809.59355 0.001028355
13.87654 976.81177 990.443245 809.966399 0.001023739
13.88534 982.14709 998.630984 810.339184 0.001018177
13.89415 983.94952 1003.023686 810.711781 0.001016312
13.90295 985.90698 1003.259088 811.084316 0.001014294
13.91175 983.60291 999.418393 811.456791 0.00101667
13.92055 974.92896 992.011619 811.82908 0.001025716
13.92935 965.06061 981.840491 812.201354 0.001036204
13.93816 952.05011 969.831644 812.573486 0.001050365
13.94696 938.63257 956.896241 812.945519 0.00106538
13.95576 928.21973 943.85406 813.317456 0.001077331
13.96456 917.28607 931.395473 813.689295 0.001090172
13.97337 906.16144 920.091342 814.061082 0.001103556
13.98217 899.02515 910.387855 814.432689 0.001112316
13.99097 892.67346 902.615317 814.804286 0.00112023
13.99977 888.26093 897.00001 815.175748 0.001125795
14.00857 886.72968 893.671466 815.547117 0.001127739
14.01738 886.67902 892.6719 815.918394 0.001127804
14.02618 888.14813 893.959067 816.289579 0.001125938
14.03498 891.16656 897.423367 816.660674 0.001122125
14.04378 893.98651 902.876701 817.031679 0.001118585
14.05259 897.84595 910.065245 817.402635 0.001113777
14.06139 903.85663 918.655232 817.773419 0.00110637
14.07019 911.61542 928.243755 818.144197 0.001096954
14.07899 921.5343 938.345585 818.514845 0.001085147
14.08779 932.22137 948.393597 818.885404 0.001072707
14.09660 942.02112 957.752717 819.255876 0.001061547
14.10540 950.0304 965.736074 819.626259 0.001052598
14.11420 956.1853 971.677843 819.996597 0.001045822
14.12300 960.54962 975.025566 820.366764 0.001041071
14.13180 961.34729 975.464876 820.736927 0.001040207
14.14061 961.90839 972.994643 821.10696 0.0010396
14.14941 958.71954 967.933729 821.476865 0.001043058
14.15821 954.16815 960.833684 821.846765 0.001048033
14.16701 944.53595 952.376936 822.216536 0.001058721
14.17581 932.07471 943.252717 822.58622 0.001072875
14.18462 918.94403 934.100602 822.955815 0.001088206
14.19342 908.6955 925.475343 823.325364 0.001100479
14.20222 900.59479 917.834299 823.694782 0.001110377
14.21102 895.40045 911.536305 824.06407 0.001116819
14.21983 892.48468 906.834417 824.433352 0.001120467
14.22863 890.76001 903.890384 824.802502 0.001122637
14.23743 890.7774 902.762475 825.171561 0.001122615
14.24623 893.53333 903.419945 825.54053 0.001119152
14.25503 897.31927 905.743998 825.909407 0.001114431
14.26384 902.6806 909.533885 826.278192 0.001107812
14.27264 909.56519 914.522183 826.646883 0.001099426
14.28144 918.05975 920.373345 827.015523 0.001089254
14.29024 926.89197 926.695665 827.383984 0.001078874
14.29904 936.15936 933.053882 827.752433 0.001068194
14.30785 944.97534 938.980239 828.120743 0.001058229
14.31665 953.70471 944.025321 828.488956 0.001048543
14.32545 962.00812 947.812224 828.85707 0.001039492
14.33425 968.28241 950.114912 829.225084 0.001032757
14.34305 971.32544 950.912759 829.593039 0.001029521
14.35186 973.43738 950.395891 829.960808 0.001027287
14.36066 972.99463 948.917723 830.328556 0.001027755
14.36946 971.67078 946.914605 830.696158 0.001029155
14.37826 968.70941 944.822236 831.063652 0.001032301
14.38706 964.2196 943.029167 831.431039 0.001037108
14.39587 958.90198 941.832949 831.798317 0.001042859
14.40467 955.62634 941.434573 832.165483 0.001046434
14.41347 952.64252 941.922927 832.532536 0.001049712
14.42227 951.82794 943.277876 832.899516 0.00105061
14.43108 953.76465 945.378615 833.266338 0.001048477
14.43988 956.31403 948.01394 833.633041 0.001045682
14.44868 959.92133 950.924198 833.999624 0.001041752
14.45748 963.62421 953.824251 834.366085 0.001037749
14.46628 965.95044 956.436309 834.732422 0.00103525
14.47509 965.61218 958.498778 835.098633 0.001035612
14.48389 963.21771 959.754917 835.464756 0.001038187
14.49269 959.02722 959.958752 835.830666 0.001042723
14.50149 953.88873 958.892908 836.196525 0.00104834
14.51029 948.63202 956.417271 836.562208 0.00105415
14.51910 942.54755 952.517439 836.927711 0.001060954
14.52790 935.1087 947.326005 837.293157 0.001069394
14.53670 928.07092 941.10506 837.658419 0.001077504
14.54550 920.95001 934.191504 838.023535 0.001085835
14.55430 913.04309 926.934057 838.388503 0.001095239
14.56311 906.05548 919.65461 838.753321 0.001103685
14.57191 899.84705 912.618868 839.118026 0.0011113
14.58071 894.29565 906.032583 839.482492 0.001118198
14.58951 889.84662 900.036606 839.846882 0.001123789
14.59832 886.4679 894.71792 840.211068 0.001128072
14.60712 883.25873 890.112641 840.575089 0.001132171
14.61592 880.07275 886.211079 840.938941 0.00113627
14.62472 877.49316 882.971482 841.302622 0.00113961
14.63352 875.4978 880.327865 841.666128 0.001142207
14.64233 873.95978 878.203107 842.029456 0.001144217
14.65113 872.91473 876.525401 842.392645 0.001145587
14.65993 872.13306 875.23869 842.755566 0.001146614
14.66873 870.73566 874.309734 843.118381 0.001148454
14.67754 869.19086 873.730447 843.480964 0.001150495
14.68634 869.50342 873.513164 843.843351 0.001150082
14.69514 870.94751 873.690044 844.205539 0.001148175
14.70394 872.89648 874.30405 844.567526 0.001145611
14.71274 875.90918 875.409499 844.929346 0.001141671
14.72155 882.87311 877.066927 845.290875 0.001132666
14.73035 894.62836 879.339703 845.652272 0.001117783
14.73915 914.76062 882.288728 846.01341 0.001093182
14.74795 940.32367 885.965855 846.374326 0.001063464
14.75675 956.91205 890.410787 846.735017 0.001045028
14.76556 953.27216 895.64066 847.095477 0.001049018
14.77436 933.48718 901.645847 847.455703 0.001071252
14.78316 915.70313 908.386535 847.815691 0.001092057
14.79196 908.19263 915.782388 848.175478 0.001101088
14.80077 909.31647 923.710797 848.534976 0.001099727
14.80957 915.30481 931.999515 848.894183 0.001092532
14.81837 923.10333 940.430268 849.253215 0.001083302
14.82717 931.3125 948.729751 849.611947 0.001073753
14.83597 940.99219 956.589133 849.970413 0.001062708
14.84478 952.33661 963.692907 850.328611 0.001050049
14.85358 965.01343 969.758541 850.686575 0.001036255
14.86238 979.48254 974.591117 851.044179 0.001020947
14.87118 993.59351 978.120812 851.40154 0.001006448
14.87998 1005.0007 980.401876 851.758654 0.000995024
14.88879 1011.1023 981.583614 852.115394 0.00098902
14.89759 1014.1073 981.866607 852.471916 0.000986089
14.90639 1012.0891 981.467907 852.828095 0.000988055
14.91519 1011.2197 980.614339 853.184007 0.000988905
14.92399 1009.6415 979.558549 853.539524 0.000990451
14.93280 1008.8427 978.604814 853.894764 0.000991235
14.94160 1009.4172 978.128888 854.249721 0.000990671
14.95040 1009.6037 978.565828 854.604268 0.000990488
14.95920 1010.2047 980.384413 854.958563 0.000989898
14.96800 1012.0677 984.041754 855.312478 0.000988076
14.97681 1015.2572 989.941996 855.666048 0.000984972
14.98561 1019.6623 998.402025 856.019269 0.000980717
14.99441 1025.972 1009.625609 856.372134 0.000974685
15.00321 1035.4757 1023.684408 856.724639 0.00096574
15.01201 1047.9484 1040.493769 857.076777 0.000954245
15.02082 1061.7417 1059.80235 857.428583 0.000941849
15.02962 1076.817 1081.17748 857.779972 0.000928663
15.03842 1092.6433 1103.994317 858.130978 0.000915212
15.04722 1109.2203 1127.438443 858.481594 0.000901534
15.05603 1126.2651 1150.499669 858.831817 0.00088789
15.06483 1143.121 1172.007987 859.181638 0.000874798
15.07363 1158.467 1190.677655 859.531054 0.00086321
15.08243 1175.103 1205.217565 859.880097 0.000850989
15.09123 1189.4252 1214.479749 860.228643 0.000840742
15.10004 1203.3496 1217.64099 860.576844 0.000831014
15.10884 1212.8907 1214.349934 860.924575 0.000824477
15.11764 1218.3438 1204.803887 861.271832 0.000820786
15.12644 1216.3611 1189.700648 861.618725 0.000822124
15.13524 1209.2318 1170.099725 861.965131 0.000826971
15.14405 1190.5337 1147.217941 862.311122 0.000839959
15.15285 1164.869 1122.322085 862.656574 0.000858466
15.16165 1134.3271 1096.522142 863.001638 0.00088158
15.17045 1101.8759 1070.793833 863.34619 0.000907543
15.17925 1068.1305 1045.925223 863.690225 0.000936215
15.18806 1037.0759 1022.515851 864.033852 0.00096425
15.19686 1009.9538 1001.002142 864.376949 0.000990144
15.20566 987.83685 981.660362 864.719548 0.001012313
15.21446 969.4054 964.620605 865.061643 0.00103156
15.22327 953.53894 949.89798 865.403267 0.001048725
15.23207 940.50781 937.414103 865.744296 0.001063255
15.24087 929.62933 927.011167 866.084841 0.001075698
15.24967 920.7348 918.490618 866.424894 0.001086089
15.25848 913.47888 911.626055 866.764373 0.001094716
15.26728 908.09741 906.184692 867.10331 0.001101203
15.27608 902.94189 901.939924 867.441697 0.001107491
15.28488 898.09698 898.68527 867.779567 0.001113465
15.29368 894.87555 896.239811 868.116798 0.001117474
15.30249 893.48944 894.45001 868.453498 0.001119207
15.31129 892.76788 893.193485 868.789662 0.001120112
15.32009 891.16577 892.376094 869.125167 0.001122126
15.32889 889.29791 891.930117 869.46016 0.001124483
15.33769 888.72937 891.811801 869.79452 0.001125202
15.34650 889.42059 891.998015 870.128278 0.001124327
15.35530 889.97583 892.48275 870.461428 0.001123626
15.36410 891.19818 893.274847 870.793963 0.001122085
15.37290 892.94971 894.394358 871.125914 0.001119884
15.38170 895.51282 895.869119 871.457162 0.001116679
15.39051 898.70782 897.73328 871.787849 0.001112709
15.39931 901.91211 900.021778 872.117858 0.001108755
15.40811 904.79083 902.768963 872.447218 0.001105228
15.41691 908.61365 906.003517 872.775923 0.001100578
15.42572 913.54791 909.746837 873.103966 0.001094633
15.43452 918.2702 914.00744 873.431342 0.001089004
15.44332 922.96631 918.779275 873.758042 0.001083463
15.45212 926.92072 924.037728 874.084097 0.001078841
15.46092 931.09058 929.733623 874.40939 0.001074009
15.46973 935.33417 935.796623 874.734062 0.001069137
15.47853 939.89294 942.122584 875.057995 0.001063951
15.48733 944.89148 948.581915 875.38122 0.001058323
15.49613 948.78851 955.017608 875.703729 0.001053976
15.50493 953.98615 961.257177 876.025517 0.001048233
15.51374 959.75507 967.132909 876.346613 0.001041933
15.52254 964.99951 972.49784 876.666901 0.00103627
15.53134 969.16064 977.25496 876.986519 0.001031821
15.54014 972.62524 981.353376 877.305354 0.001028145
15.54894 976.70209 984.786302 877.623397 0.001023854
15.55775 981.83392 987.572606 877.940751 0.001018502
15.56655 985.70538 989.727865 878.257301 0.001014502
15.57535 988.63 991.257676 878.573076 0.001011501
15.58415 990.54742 992.146757 878.88807 0.001009543
15.59296 993.15778 992.369716 879.202312 0.001006889
15.60176 995.03314 991.912667 879.515688 0.001004992
15.61056 997.12347 990.791434 879.828299 0.001002885
15.61936 998.30585 989.07096 880.140139 0.001001697
15.62816 998.70392 986.861916 880.451129 0.001001298
15.63697 998.47095 984.32572 880.761299 0.001001531
15.64577 998.15466 981.631314 881.070643 0.001001849
15.65457 996.44104 978.94813 881.379189 0.001003572
15.66337 992.73199 976.427218 881.686826 0.001007321
15.67217 989.19537 974.186664 881.993653 0.001010923
15.68098 984.54395 972.307234 882.299662 0.001015699
15.68978 979.70483 970.830071 882.604744 0.001020716
15.69858 975.375 969.754538 882.909031 0.001025247
15.70738 972.87238 969.045118 883.212413 0.001027884
15.71618 970.32532 968.64113 883.514918 0.001030582
15.72499 969.89124 968.46952 883.816541 0.001031043
15.73379 969.92255 968.460696 884.117275 0.00103101
15.74259 970.5954 968.554081 884.417148 0.001030295
15.75139 970.84094 968.730882 884.716052 0.001030035
15.76020 971.55872 968.978701 885.014117 0.001029274
15.76900 972.59491 969.313834 885.311236 0.001028177
15.77780 974.0968 969.771419 885.607436 0.001026592
15.78660 974.17285 970.393828 885.902711 0.001026512
15.79540 973.10278 971.218555 886.197056 0.001027641
15.80421 970.68756 972.265675 886.490466 0.001030198
15.81301 969.14954 973.523313 886.782933 0.001031833
15.82181 967.50433 974.94273 887.074486 0.001033587
15.83061 966.74292 976.430244 887.36502 0.001034401
15.83942 967.21271 977.852763 887.654661 0.001033899
15.84822 969.0061 979.043681 887.943306 0.001031985
15.85702 970.00775 979.819904 888.23098 0.00103092
15.86582 969.52887 980.010528 888.51768 0.001031429
15.87462 969.31781 979.48925 888.803399 0.001031653
15.88343 968.65613 978.204962 889.088166 0.001032358
15.89223 967.83911 976.196835 889.371876 0.00103323
15.90103 966.11401 973.584403 889.654655 0.001035075
15.90983 963.82721 970.544541 889.936401 0.00103753
15.91863 960.07257 967.279658 890.217108 0.001041588
15.92744 954.90741 963.986891 890.496868 0.001047222
15.93624 949.00305 960.849257 890.77558 0.001053737
15.94504 944.35919 958.016811 891.053271 0.001058919
15.95384 942.2135 955.610112 891.329935 0.001061331
15.96265 941.7218 953.694861 891.605601 0.001061885
15.97145 941.39856 952.367821 891.880199 0.001062249
15.98025 941.16016 951.63358 892.153727 0.001062518
15.98905 941.8866 951.489929 892.426272 0.001061699
15.99785 944.04041 951.91792 892.697737 0.001059277
16.00665 945.92596 952.880153 892.968148 0.001057165
16.01546 948.63336 954.329779 893.237502 0.001054148
16.02426 951.80621 956.209553 893.505823 0.001050634
16.03306 954.75208 958.450362 893.773048 0.001047392
16.04186 957.51483 960.977531 894.039202 0.00104437
16.05066 961.21667 963.711424 894.304252 0.001040348
16.05947 965.64124 966.581214 894.568253 0.001035581
16.06827 970.13385 969.532687 894.831202 0.001030786
16.07707 973.15723 972.529157 895.093034 0.001027583
16.08588 975.17706 975.556396 895.353805 0.001025455
16.09468 976.70105 978.601823 895.613453 0.001023855
16.10348 977.35199 981.649532 895.871945 0.001023173
16.11228 977.33069 984.664393 896.129425 0.001023195
16.12108 976.17834 987.579923 896.38577 0.001024403
16.12989 974.90277 990.309606 896.641037 0.001025743
16.13869 973.40839 992.745536 896.895163 0.001027318
16.14749 971.17993 994.787092 897.148204 0.001029675
16.15629 968.60492 996.353025 897.400099 0.001032413
16.16509 967.68323 997.40668 897.650816 0.001033396
16.17390 966.84442 997.94787 897.900495 0.001034293
16.18270 967.29254 998.033738 898.14902 0.001033813
16.19150 967.14679 997.712605 898.396444 0.001033969
16.20030 966.20099 997.031736 898.642707 0.001034981
16.20911 965.52844 996.015715 898.887865 0.001035702
16.21790 965.00751 994.66277 899.131802 0.001036261
16.22671 964.06439 992.951311 899.374655 0.001037275
16.23551 961.64404 990.857073 899.616394 0.001039886
16.24431 959.25775 988.375577 899.856962 0.001042473
16.25312 956.51355 985.534045 900.096411 0.001045463
16.26192 953.4892 982.401912 900.334685 0.00104878
16.27072 950.46686 979.077033 900.571835 0.001052115
16.27952 948.90814 975.676793 900.807753 0.001053843
16.28832 947.45233 972.31323 901.042571 0.001055462
16.29713 946.19348 969.084069 901.27626 0.001056866
16.30593 944.81439 966.068511 901.508765 0.001058409
16.31473 944.60614 963.318969 901.740138 0.001058642
16.32353 944.76288 960.871896 901.970325 0.001058467
16.33233 946.35266 958.746795 902.199324 0.001056689
16.34114 946.59308 956.957709 902.427188 0.00105642
16.34994 947.64581 955.518791 902.653887 0.001055247
16.35874 947.94928 954.445522 902.879448 0.001054909
16.36754 948.39899 953.758444 903.103817 0.001054409
16.37635 947.48352 953.474051 903.327045 0.001055427
16.38515 947.06268 953.604972 903.549081 0.001055896
16.39395 946.5484 954.150687 903.769924 0.00105647
16.40275 946.87482 955.09962 903.989624 0.001056106
16.41155 946.74139 956.424329 904.208155 0.001056255
16.42036 948.63129 958.082409 904.425542 0.00105415
16.42916 950.27911 960.013683 904.641735 0.001052322
16.43796 953.44562 962.157165 904.856783 0.001048828
16.44676 955.92902 964.429194 905.070589 0.001046103
16.45556 960.77075 966.749132 905.283298 0.001040831
16.46437 966.00623 969.041447 905.494814 0.00103519
16.47317 971.86432 971.25038 905.705161 0.00102895
16.48197 977.12518 973.350749 905.914363 0.00102341
16.49077 983.58807 975.349972 906.122374 0.001016686
16.49958 988.5694 977.288514 906.32924 0.001011563
16.50838 993.6723 979.224981 906.53487 0.001006368
16.51718 998.12646 981.229816 906.739403 0.001001877
16.52598 1003.03 983.370808 906.942748 0.000996979
16.53478 1006.7047 985.708955 907.14493 0.00099334
16.54359 1010.3986 988.298909 907.345971 0.000989708
16.55239 1013.1917 991.18622 907.545827 0.00098698
16.56119 1016.3603 994.420659 907.7445 0.000983903
16.56999 1020.7465 998.063087 907.942037 0.000979675
16.57879 1026.1052 1002.198479 908.138439 0.000974559
16.58760 1032.7655 1006.947122 908.333662 0.000968274
16.59640 1039.2898 1012.466873 908.52773 0.000962196
16.60520 1046.646 1018.94719 908.720669 0.000955433
16.61400 1051.5541 1026.586682 908.912434 0.000950973
16.62280 1057.4935 1035.57412 909.10303 0.000945632
16.63161 1062.7056 1046.069404 909.2925 0.000940994
16.64041 1070.7378 1058.17408 909.480848 0.000933935
16.64921 1076.0818 1071.922784 909.668033 0.000929297
16.65801 1084.6132 1087.268471 909.854077 0.000921988
16.66681 1091.5208 1104.075538 910.039006 0.000916153
16.67562 1102.29 1122.101989 910.222738 0.000907202
16.68442 1111.9435 1141.024388 910.405401 0.000899326
16.69322 1123.3878 1160.410404 910.586913 0.000890165
16.70202 1133.0541 1179.755491 910.767321 0.00088257
16.71082 1145.6533 1198.504145 910.946585 0.000872864
16.71963 1157.4065 1216.081889 911.124728 0.000864001
16.72843 1172.3312 1231.927011 911.301776 0.000853001
16.73723 1189.8903 1245.509544 911.47765 0.000840414
16.74603 1209.1544 1256.371547 911.652474 0.000827024
16.75483 1226.7988 1264.134776 911.826171 0.00081513
16.76364 1243.8362 1268.562855 911.998786 0.000803964
16.77244 1258.3418 1269.604393 912.170281 0.000794697
16.78124 1268.9648 1267.419323 912.340681 0.000788044
16.79004 1275.3081 1262.363936 912.509971 0.000784124
16.79885 1275.1824 1254.92074 912.678192 0.000784202
16.80765 1267.4113 1245.626709 912.845348 0.00078901
16.81645 1254.6854 1234.987896 913.011407 0.000797013
16.82525 1240.5162 1223.428794 913.176409 0.000806116
16.83405 1225.2054 1211.268408 913.340321 0.00081619
16.84286 1212.0516 1198.729346 913.503167 0.000825047
16.85166 1198.8188 1185.968015 913.664933 0.000834154
16.86046 1187.6464 1173.099085 913.82566 0.000842001
16.86926 1176.5892 1160.252583 913.985353 0.000849914
16.87806 1165.9358 1147.574357 914.14398 0.00085768
16.88687 1154.5155 1135.230835 914.301582 0.000866164
16.89567 1143.6759 1123.387343 914.458129 0.000874374
16.90447 1131.5193 1112.196184 914.613607 0.000883768
16.91327 1119.3809 1101.766361 914.768111 0.000893351
16.92207 1106.3688 1092.174233 914.921574 0.000903858
16.93088 1095.29 1083.45276 915.074038 0.000913
16.93968 1084.299 1075.585842 915.225472 0.000922255
16.94848 1074.5701 1068.515863 915.375918 0.000930605
16.95728 1065.6449 1062.136699 915.525345 0.000938399
16.96608 1057.693 1056.308146 915.673743 0.000945454
16.97489 1050.0902 1050.853969 915.821203 0.000952299
16.98369 1043.7135 1045.587753 915.967662 0.000958117
16.99249 1038.2245 1040.330612 916.113159 0.000963183
17.00129 1033.319 1034.931294 916.257668 0.000967755
17.01010 1028.9008 1029.290768 916.401228 0.000971911
17.01890 1024.7776 1023.373627 916.543778 0.000975821
17.02770 1021.9497 1017.202365 916.685408 0.000978522
17.03650 1017.4103 1010.853299 916.826106 0.000982888
17.04530 1011.154 1004.43432 916.965846 0.000988969
17.05411 1002.6055 998.062827 917.104667 0.000997401
17.06291 993.10913 991.856889 917.242544 0.001006939
17.07171 983.98108 985.919705 917.379499 0.00101628
17.08051 976.61108 980.339992 917.515522 0.001023949
17.08931 969.44714 975.185881 917.650652 0.001031516
17.09812 963.92731 970.506973 917.784895 0.001037423
17.10692 957.55188 966.3365 917.918227 0.00104433
17.11572 952.50269 962.68583 918.050686 0.001049866
17.12452 947.86749 959.552638 918.182247 0.001055
17.13333 945.02917 956.916565 918.312918 0.001058168
17.14213 943.01733 954.743717 918.442735 0.001060426
17.15093 942.15479 952.990273 918.571692 0.001061397
17.15973 940.88611 951.602157 918.699809 0.001062828
17.16853 940.09851 950.521301 918.827064 0.001063718
17.17734 939.43311 949.686106 918.953493 0.001064472
17.18614 938.95001 949.038159 919.079075 0.001065019
17.19494 938.62073 948.524612 919.203818 0.001065393
17.20374 938.75537 948.103019 919.327756 0.00106524
17.21254 938.46271 947.744828 919.450884 0.001065572
17.22135 938.23871 947.436351 919.573221 0.001065827
17.23015 938.30579 947.178901 919.694749 0.001065751
17.23895 938.40515 946.986138 919.815501 0.001065638
17.24775 937.98602 946.881025 919.935431 0.001066114
17.25656 937.72083 946.892034 920.054627 0.001066415
17.26536 937.61218 947.050887 920.173044 0.001066539
17.27416 937.48114 947.389247 920.290702 0.001066688
17.28296 937.73254 947.938576 920.407622 0.001066402
17.29177 938.55322 948.728269 920.523785 0.00106547
17.30057 939.9046 949.78576 920.639199 0.001063938
17.30937 941.91089 951.13688 920.753898 0.001061672
17.31817 944.40338 952.803874 920.867889 0.00105887
17.32697 946.73242 954.806989 920.981154 0.001056265
17.33578 948.93823 957.162622 921.093714 0.001053809
17.34458 952.20416 959.884691 921.205589 0.001050195
17.35338 956.18774 962.980953 921.316762 0.00104582
17.36218 959.98657 966.455499 921.42724 0.001041681
17.37098 964.40497 970.308487 921.537056 0.001036909
17.37979 970.18909 974.534709 921.646218 0.001030727
17.38859 975.49316 979.127807 921.754709 0.001025123
17.39739 980.42969 984.081659 921.86255 0.001019961
17.40619 986.22101 989.394086 921.969759 0.001013972
17.41499 992.59387 995.056662 922.076297 0.001007461
17.42380 998.72736 1001.062209 922.182243 0.001001274
17.43260 1005.4033 1007.383785 922.287558 0.000994626
17.44140 1013.3104 1013.972308 922.392272 0.000986864
17.45020 1021.2576 1020.748998 922.496371 0.000979185
17.45901 1029.0887 1027.597257 922.599873 0.000971734
17.46781 1037.1838 1034.367341 922.702798 0.000964149
17.47661 1045.2119 1040.864853 922.805107 0.000956744
17.48541 1052.6061 1046.874645 922.906879 0.000950023
17.49421 1060.4512 1052.157908 923.008073 0.000942995
17.50302 1066.8457 1056.478238 923.10872 0.000937343
17.51182 1071.8439 1059.626164 923.208807 0.000932972
17.52062 1074.9812 1061.442076 923.308351 0.000930249
17.52942 1075.8024 1061.838622 923.407349 0.000929539
17.53822 1074.5127 1060.809349 923.505831 0.000930654
17.54703 1070.9987 1058.429155 923.603805 0.000933708
17.55583 1066.2322 1054.844112 923.701255 0.000937882
17.56463 1059.2589 1050.252559 923.798212 0.000944056
17.57343 1052.3517 1044.882225 923.894661 0.000950253
17.58224 1044.4099 1038.968741 923.99062 0.000957478
17.59104 1036.328 1032.733845 924.086087 0.000964945
17.59984 1028.5536 1026.3737 924.181089 0.000972239
17.60864 1021.9943 1020.054705 924.275635 0.000978479
17.61744 1015.9821 1013.907348 924.36971 0.000984269
17.62625 1010.5594 1008.031265 924.463332 0.000989551
17.63505 1006.4192 1002.494516 924.556519 0.000993622
17.64385 1002.7474 997.349998 924.649235 0.00099726
17.65265 999.383 992.628046 924.741552 0.001000617
17.66145 996.50262 988.354502 924.833433 0.00100351
17.67026 992.61871 984.550454 924.924907 0.001007436
17.67906 988.77002 981.235407 925.015961 0.001011358
17.68786 985.3371 978.432077 925.10661 0.001014881
17.69666 982.73639 976.163465 925.196873 0.001017567
17.70546 979.35034 974.457985 925.286715 0.001021085
17.71427 978.08746 973.341192 925.376204 0.001022403
17.72307 976.46747 972.837315 925.465306 0.0010241
17.73187 975.33154 972.966337 925.554047 0.001025292
17.74067 973.96777 973.738232 925.642414 0.001026728
17.74948 973.73547 975.154597 925.730424 0.001026973
17.75828 973.50153 977.202003 925.818072 0.00102722
17.76708 974.81244 979.853094 925.905385 0.001025838
17.77588 976.73199 983.064263 925.992369 0.001023822
17.78468 979.95947 986.769514 926.079011 0.00102045
17.79349 983.8606 990.887095 926.165335 0.001016404
17.80229 989.32629 995.309395 926.251328 0.001010789
17.81109 993.97278 999.912039 926.337006 0.001006064
17.81989 999.35223 1004.546656 926.422365 0.001000648
17.82869 1005.6622 1009.048635 926.507429 0.00099437
17.83750 1013.9811 1013.239787 926.592205 0.000986212
17.84630 1022.28 1016.933192 926.676678 0.000978206
17.85510 1031.8762 1019.95476 926.760874 0.000969109
17.86390 1040.6627 1022.153999 926.844777 0.000960926
17.87270 1050.0474 1023.431406 926.928393 0.000952338
17.88151 1058.0535 1023.752657 927.011747 0.000945132
17.89031 1065.6857 1023.157862 927.094834 0.000938363
17.89911 1070.2458 1021.757334 927.177667 0.000934365
17.90791 1071.589 1019.717334 927.260234 0.000933194
17.91672 1067.8862 1017.235773 927.342557 0.000936429
17.92552 1061.5706 1014.525583 927.424621 0.000942
17.93432 1052.7632 1011.793648 927.506432 0.000949881
17.94312 1045.949 1009.232455 927.588013 0.00095607
17.95192 1040.3168 1007.014118 927.669358 0.000961246
17.96073 1035.4379 1005.28442 927.75048 0.000965775
17.96953 1031.8259 1004.164638 927.831365 0.000969156
17.97833 1030.1299 1003.746157 927.912035 0.000970751
17.98713 1030.7632 1004.093328 927.992458 0.000970155
17.99593 1032.8303 1005.241423 928.072691 0.000968213
18.00474 1035.4055 1007.197483 928.152702 0.000965805
18.01354 1037.8047 1009.941048 928.232503 0.000963572
18.02234 1040.702 1013.427111 928.312106 0.00096089
18.03114 1043.5963 1017.587845 928.391496 0.000958225
18.03995 1046.7581 1022.3398 928.470694 0.000955331
18.04875 1051.5944 1027.585069 928.549667 0.000950937
18.05755 1058.0962 1033.224788 928.628471 0.000945094
18.06635 1065.0077 1039.153206 928.707074 0.00093896
18.07515 1071.2333 1045.266044 928.785486 0.000933503
18.08396 1078.9619 1051.46079 928.863719 0.000926817
18.09276 1087.2578 1057.638448 928.941756 0.000919745
18.10156 1096.954 1063.705941 929.019601 0.000911615
18.11036 1106.0743 1069.587806 929.097272 0.000904098
18.11916 1117.7341 1075.218136 929.174772 0.000894667
18.12797 1126.4801 1080.545359 929.252083 0.000887721
18.13677 1133.9836 1085.524717 929.329217 0.000881847
18.14557 1136.5027 1090.106469 929.406183 0.000879892
18.15437 1136.4305 1094.234157 929.482965 0.000879948
18.16317 1134.0103 1097.836539 929.559564 0.000881826
18.17198 1132.8169 1100.847335 929.635998 0.000882755
18.18078 1130.4844 1103.211391 929.712268 0.000884577
18.18958 1130.0112 1104.911908 929.788357 0.000884947
18.19838 1129.0465 1105.986699 929.864275 0.000885703
18.20719 1126.8016 1106.531562 929.940029 0.000887468
18.21599 1120.5155 1106.694839 930.015586 0.000892446
18.22479 1113.0074 1106.652317 930.090997 0.000898467
18.23359 1104.0273 1106.582238 930.166228 0.000905775
18.24239 1097.8325 1106.640257 930.241287 0.000910886
18.25120 1093.4828 1106.940953 930.316181 0.000914509
18.26000 1090.4395 1107.546388 930.390894 0.000917061
18.26880 1087.3339 1108.462503 930.465441 0.000919681
18.27760 1085.8627 1109.638085 930.539787 0.000920927
18.28640 1083.4508 1110.973763 930.613983 0.000922977
18.29521 1081.3708 1112.329889 930.687993 0.000924752
18.30401 1079.4778 1113.542098 930.761823 0.000926374
18.31281 1080.1288 1114.441784 930.835482 0.000925816
18.32161 1080.0997 1114.869326 930.90895 0.00092584
18.33041 1080.8682 1114.695148 930.982226 0.000925182
18.33922 1082.0261 1113.826674 931.055324 0.000924192
18.34802 1085.3903 1112.208956 931.128242 0.000921328
18.35682 1087.4739 1109.817318 931.200961 0.000919562
18.36562 1089.6577 1106.644576 931.273486 0.000917719
18.37443 1088.7894 1102.693375 931.345825 0.000918451
18.38323 1085.5048 1097.966696 931.417956 0.00092123
18.39203 1080.2167 1092.478566 931.489878 0.00092574
18.40083 1075.2695 1086.254517 931.561603 0.000929999
18.40963 1069.1842 1079.352023 931.633129 0.000935293
18.41844 1062.8221 1071.861337 931.704435 0.000940891
18.42724 1055.6305 1063.906636 931.775526 0.000947301
18.43604 1047.8754 1055.635065 931.846407 0.000954312
18.44484 1039.2048 1047.218767 931.917042 0.000962274
18.45364 1030.1237 1038.812626 931.987474 0.000970757
18.46245 1020.2946 1030.554146 932.057668 0.000980109
18.47125 1011.1612 1022.604021 932.127635 0.000988962
18.48005 1004.0012 1015.053977 932.197355 0.000996015
18.48885 997.81885 1007.987398 932.266832 0.001002186
18.49766 991.76318 1001.465506 932.336068 0.001008305
18.50646 986.61621 995.531045 932.405027 0.001013565
18.51526 982.24115 990.204551 932.473751 0.00101808
18.52406 977.71857 985.495879 932.542204 0.001022789
18.53286 974.02979 981.399893 932.610397 0.001026663
18.54167 971.84497 977.899113 932.678308 0.001028971
18.55047 970.22839 974.966052 932.745939 0.001030685
18.55927 968.29443 972.564904 932.813277 0.001032744
18.56807 966.59467 970.650071 932.880333 0.00103456
18.57687 965.23053 969.172612 932.947099 0.001036022
18.58568 964.11603 968.077804 933.013555 0.00103722
18.59448 962.77954 967.308527 933.079709 0.001038659
18.60328 961.50311 966.806118 933.14554 0.001040038
18.61208 961.79791 966.513101 933.21105 0.001039719
18.62088 962.00854 966.375086 933.276224 0.001039492
18.62969 961.96735 966.34217 933.341071 0.001039536
18.63849 962.0415 966.371817 933.405583 0.001039456
18.64729 962.55414 966.429391 933.46974 0.001038903
18.65609 962.85254 966.489402 933.533549 0.001038581
18.66490 963.59827 966.5363 933.596988 0.001037777
18.67370 963.82892 966.565214 933.66005 0.001037529
18.68250 964.42731 966.582709 933.722742 0.001036885
18.69130 965.70099 966.607043 933.78505 0.001035517
18.70010 967.10327 966.667058 933.846974 0.001034016
18.70891 968.30475 966.800512 933.908491 0.001032733
18.71771 969.47003 967.051091 933.969608 0.001031491
18.72651 970.20691 967.46549 934.030303 0.001030708
18.73531 971.2666 968.090427 934.090569 0.001029583
18.74411 972.44098 968.97054 934.150411 0.00102834
18.75292 973.47974 970.146415 934.209815 0.001027243
18.76172 975.19592 971.653287 934.268779 0.001025435
18.77052 977.59167 973.519589 934.327282 0.001022922
18.77932 979.92853 975.767179 934.385328 0.001020483
18.78812 982.83008 978.4084 934.442884 0.00101747
18.79693 985.97888 981.449336 934.499973 0.001014221
18.80573 989.07349 984.885091 934.556581 0.001011047
18.81453 993.11591 988.699508 934.612687 0.001006932
18.82333 997.13165 992.867394 934.668293 0.001002877
18.83214 1001.6358 997.349769 934.72338 0.000998367
18.84094 1006.446 1002.099613 934.777952 0.000993595
18.84974 1011.2101 1007.056708 934.831974 0.000988914
18.85854 1016.1991 1012.160274 934.88547 0.000984059
18.86734 1021.3566 1017.345845 934.938424 0.00097909
18.87615 1026.4923 1022.549379 934.990815 0.000974191
18.88495 1031.6522 1027.718303 935.042647 0.000969319
18.89375 1035.8823 1032.802009 935.093899 0.000965361
18.90255 1039.7576 1037.759848 935.144563 0.000961763
18.91135 1043.1586 1042.551586 935.194641 0.000958627
18.92016 1045.1838 1047.129619 935.244118 0.00095677
18.92896 1047.9022 1051.439812 935.292992 0.000954288
18.93776 1050.2859 1055.405927 935.341243 0.000952122
18.94656 1052.8688 1058.939418 935.388872 0.000949786
18.95537 1055.7251 1061.92741 935.435861 0.000947216
18.96417 1057.9154 1064.250313 935.4822 0.000945255
18.97297 1059.6405 1065.786759 935.527892 0.000943716
18.98177 1062.3944 1066.431139 935.572923 0.00094127
18.99057 1063.9667 1066.115097 935.617288 0.000939879
18.99938 1064.8995 1064.819575 935.66097 0.000939056
19.00818 1063.6936 1062.583915 935.703969 0.00094012
19.01698 1060.4014 1059.502651 935.746258 0.000943039
19.02578 1055.8907 1055.708625 935.787857 0.000947068
19.03458 1052.0121 1051.360437 935.828739 0.000950559
19.04339 1048.2721 1046.622848 935.8689 0.000953951
19.05219 1042.9751 1041.651101 935.908337 0.000958796
19.06099 1034.936 1036.590537 935.947031 0.000966243
19.06979 1026.6973 1031.561507 935.984985 0.000973997
19.07859 1019.728 1026.670727 936.022172 0.000980654
19.08740 1013.7632 1021.996284 936.058611 0.000986424
19.09620 1009.0219 1017.598458 936.094276 0.000991059
19.10500 1005.577 1013.515027 936.129164 0.000994454
19.11380 1001.4885 1009.757005 936.163272 0.000998514
19.12261 997.64368 1006.318461 936.196585 0.001002362
19.13141 994.12769 1003.168958 936.229094 0.001005907
19.14021 991.13055 1000.263981 936.2608 0.001008949
19.14901 988.03137 997.550315 936.291697 0.001012114
19.15781 985.39087 994.970949 936.321769 0.001014826
19.16662 982.64276 992.474817 936.351014 0.001017664
19.17542 980.28418 990.019607 936.379428 0.001020112
19.18422 977.97235 987.579302 936.406999 0.001022524
19.19302 976.08612 985.141066 936.43372 0.0010245
19.20182 973.98022 982.703491 936.459591 0.001026715
19.21063 971.87598 980.275459 936.484606 0.001028938
19.21943 969.42175 977.872694 936.508753 0.001031543
19.22823 966.48804 975.514075 936.53203 0.001034674
19.23703 964.48242 973.221581 936.554434 0.001036826
19.24583 963.07373 971.020446 936.57595 0.001038342
19.25464 961.08807 968.935006 936.596587 0.001040487
19.26344 958.87872 966.993435 936.616331 0.001042885
19.27224 957.68555 965.221958 936.635182 0.001044184
19.28104 957.17365 963.639265 936.653131 0.001044743
19.28985 956.26471 962.287285 936.670177 0.001045736
19.29865 955.54828 961.180943 936.686317 0.00104652
19.30745 955.12 960.341459 936.701541 0.001046989
19.31625 954.47839 959.78677 936.715855 0.001047693
19.32505 953.76373 959.532994 936.729251 0.001048478
19.33386 953.63129 959.592155 936.741728 0.001048623
19.34266 954.34119 959.973034 936.75328 0.001047843
19.35146 954.69818 960.67987 936.763908 0.001047451
19.36026 955.40363 961.712256 936.773607 0.001046678
19.36906 956.30164 963.064411 936.78238 0.001045695
19.37787 957.38245 964.724515 936.790223 0.001044515
19.38667 958.65015 966.673292 936.797134 0.001043133
19.39547 960.38086 968.885167 936.803114 0.001041254
19.40427 961.28082 971.325412 936.808161 0.001040279
19.41307 962.92566 973.951591 936.812275 0.001038502
19.42188 964.29572 976.714501 936.815459 0.001037026
19.43068 966.39154 979.553447 936.81771 0.001034777
19.43948 968.62225 982.401669 936.819031 0.001032394
19.44828 971.95703 985.182486 936.819423 0.001028852
19.45709 974.97577 987.80926 936.818887 0.001025667
19.46589 978.44171 990.203709 936.817425 0.001022033
19.47469 981.34741 992.272752 936.815041 0.001019007
19.48349 984.14417 993.934117 936.811736 0.001016111
19.49229 986.6507 995.115907 936.807513 0.00101353
19.50110 990.12408 995.768298 936.802376 0.001009974
19.50990 992.67456 995.868396 936.79633 0.001007379
19.51870 994.5542 995.424674 936.789377 0.001005476
19.52750 993.89807 994.476134 936.781526 0.001006139
19.53630 992.67285 993.085848 936.772777 0.001007381
19.54511 990.18719 991.333997 936.763137 0.00100991
19.55391 988.30768 989.31031 936.752614 0.001011831
19.56271 985.0097 987.104364 936.741212 0.001015218
19.57151 982.34839 984.803657 936.72894 0.001017969
19.58032 980.17749 982.486687 936.715802 0.001020223
19.58912 978.2514 980.22552 936.701813 0.001022232
19.59792 975.91437 978.080052 936.686974 0.00102468
19.60672 974.80646 976.101684 936.671293 0.001025845
19.61552 974.47705 974.333543 936.654784 0.001026191
19.62433 973.20917 972.808008 936.637452 0.001027528
19.63313 971.97375 971.551335 936.619311 0.001028834
19.64193 971.28741 970.58156 936.600372 0.001029561
19.65073 971.44934 969.912239 936.580642 0.00102939
19.65953 972.50128 969.553687 936.560134 0.001028276
19.66834 973.95538 969.514181 936.538858 0.001026741
19.67714 974.84979 969.802961 936.51683 0.001025799
19.68594 975.89301 970.4298 936.494059 0.001024702
19.69474 976.79388 971.407027 936.470564 0.001023757
19.70354 978.27148 972.747951 936.446357 0.001022211
19.71235 979.81409 974.468559 936.421449 0.001020602
19.72115 981.26495 976.584085 936.395857 0.001019093
19.72995 983.64063 979.109203 936.369593 0.001016631
19.73875 986.5246 982.056054 936.342678 0.001013659
19.74756 988.46094 985.433323 936.315124 0.001011674
19.75636 990.83759 989.242874 936.28696 0.001009247
19.76516 994.45697 993.483678 936.258184 0.001005574
19.77396 998.12024 998.144261 936.228827 0.001001883
19.78276 1001.5014 1003.206491 936.198904 0.000998501
19.79157 1005.0795 1008.645359 936.16843 0.000994946
19.80037 1009.4969 1014.42069 936.137432 0.000990592
19.80917 1014.2813 1020.504314 936.105923 0.00098592
19.81797 1018.2821 1026.837041 936.073938 0.000982046
19.82678 1022.1431 1033.361426 936.041476 0.000978337
19.83558 1025.7247 1040.002053 936.008573 0.00097492
19.84438 1031.2412 1046.670977 935.975248 0.000969705
19.85318 1035.8921 1053.269026 935.941518 0.000965352
19.86198 1039.4286 1059.683507 935.907416 0.000962067
19.87079 1042.2262 1065.799886 935.872964 0.000959485
19.87959 1045.3198 1071.509698 935.838179 0.000956645
19.88839 1048.5415 1076.715781 935.803085 0.000953706
19.89719 1050.8038 1081.344462 935.767716 0.000951652
19.90599 1053.7689 1085.347652 935.732093 0.000948975
19.91480 1057.2441 1088.703295 935.696237 0.000945855
19.92360 1060.6779 1091.401388 935.660185 0.000942793
19.93240 1064.4042 1093.443365 935.623962 0.000939493
19.94120 1068.6296 1094.82608 935.587588 0.000935778
19.95001 1073.5178 1095.542765 935.551092 0.000931517
19.95881 1077.5402 1095.581325 935.514509 0.00092804
19.96761 1080.8384 1094.933092 935.477865 0.000925208
19.97641 1083.4882 1093.600317 935.441185 0.000922945
19.98521 1087.2655 1091.602986 935.404515 0.000919739
19.99402 1091.0654 1088.982186 935.367861 0.000916535
20.00282 1093.7228 1085.798117 935.33127 0.000914308
20.01162 1094.0872 1082.125221 935.294765 0.000914004
20.02042 1092.7542 1078.038879 935.258386 0.000915119
20.02922 1090.5387 1073.612021 935.222161 0.000916978
20.03803 1087.9152 1068.904642 935.186117 0.000919189
20.04683 1083.9454 1063.968955 935.150305 0.000922556
20.05563 1079.8639 1058.841627 935.114732 0.000926043
20.06443 1076.2081 1053.556259 935.079449 0.000929188
20.07324 1071.6831 1048.143398 935.044481 0.000933112
20.08204 1067.0183 1042.634201 935.009871 0.000937191
20.09084 1061.9901 1037.061917 934.97565 0.000941628
20.09964 1055.0408 1031.461159 934.941854 0.000947831
20.10844 1047.0621 1025.865462 934.908513 0.000955053
20.11725 1040.0192 1020.309182 934.875662 0.000961521
20.12605 1032.5138 1014.825269 934.843344 0.00096851
20.13485 1024.6959 1009.443883 934.811588 0.000975899
20.14365 1016.9315 1004.196569 934.780436 0.00098335
20.15245 1009.8967 999.113347 934.749922 0.0009902
20.16126 1003.642 994.224827 934.720086 0.000996371
20.17006 998.97919 989.559251 934.690958 0.001001022
20.17886 994.86566 985.143619 934.662574 0.001005161
20.18766 990.33331 981.002333 934.634979 0.001009761
20.19646 985.49646 977.153718 934.608203 0.001014717
20.20527 981.9826 973.61325 934.582289 0.001018348
20.21407 978.66418 970.391644 934.557278 0.001021801
20.22287 975.33228 967.493272 934.533193 0.001025292
20.23167 973.02637 964.923167 934.510082 0.001027721
20.24047 971.38196 962.681611 934.487977 0.001029461
20.24928 970.23523 960.768245 934.466922 0.001030678
20.25808 968.5246 959.180881 934.446947 0.001032498
20.26688 966.72925 957.917686 934.428096 0.001034416
20.27568 965.53302 956.976697 934.410407 0.001035697
20.28449 965.95313 956.356162 934.393906 0.001035247
20.29329 966.99969 956.05623 934.378639 0.001034126
20.30209 967.43097 956.077953 934.364638 0.001033665
20.31089 967.31207 956.42389 934.351943 0.001033793
20.31969 968.47729 957.098033 934.340587 0.001032549
20.32850 970.07233 958.105173 934.330611 0.001030851
20.33730 971.50427 959.451817 934.322043 0.001029332
20.34610 973.77527 961.144072 934.314921 0.001026931
20.35490 976.24677 963.187539 934.309281 0.001024331
20.36370 978.41144 965.586799 934.305155 0.001022065
20.37251 981.1405 968.343709 934.302578 0.001019222
20.38131 984.52991 971.457143 934.301582 0.001015713
20.39011 988.25476 974.920148 934.3022 0.001011885
20.39891 990.65753 978.723379 934.304463 0.001009431
20.40771 993.60919 982.848556 934.308403 0.001006432
20.41652 997.01117 987.270855 934.31405 0.001002998
20.42532 1001.0671 991.958403 934.321434 0.000998934
20.43412 1004.9808 996.870984 934.330582 0.000995044
20.44292 1008.4401 1001.959554 934.341521 0.000991631
20.45172 1011.7113 1007.170615 934.354282 0.000988424
20.46053 1014.9442 1012.440109 934.368888 0.000985276
20.46933 1018.1656 1017.698565 934.385367 0.000982159
20.47813 1023.4299 1022.871331 934.403739 0.000977106
20.48693 1027.3958 1027.880653 934.42403 0.000973335
20.49574 1031.2202 1032.645448 934.446257 0.000969725
20.50454 1034.3914 1037.086761 934.47044 0.000966752
20.51334 1038.6522 1041.12733 934.496603 0.000962786
20.52214 1041.6028 1044.694497 934.524761 0.000960059
20.53094 1043.8381 1047.724516 934.554933 0.000958003
20.53975 1044.5177 1050.16794 934.587128 0.00095738
20.54855 1045.5345 1051.993296 934.621365 0.000956449
20.55735 1046.6271 1053.188561 934.657638 0.00095545
20.56615 1047.6423 1053.766631 934.695983 0.000954524
20.57495 1047.5251 1053.75552 934.736391 0.000954631
20.58376 1047.2732 1053.202618 934.77887 0.000954861
20.59256 1047.4174 1052.161262 934.823431 0.000954729
20.60136 1047.2614 1050.688552 934.870064 0.000954871
20.61016 1046.1108 1048.836166 934.918781 0.000955922
20.61896 1045.7445 1046.652195 934.969555 0.000956257
20.62777 1044.9082 1044.17012 935.022417 0.000957022
20.63657 1043.8777 1041.425899 935.077336 0.000957967
20.64537 1042.7002 1038.44549 935.134308 0.000959048
20.65417 1041.7499 1035.261301 935.193328 0.000959923
20.66298 1041.0247 1031.907353 935.254368 0.000960592
20.67178 1040.494 1028.427515 935.317409 0.000961082
20.68058 1039.1401 1024.869156 935.382446 0.000962334
20.68938 1037.2006 1021.285537 935.449456 0.000964134
20.69818 1034.7568 1017.731527 935.518396 0.000966411
20.70699 1031.3641 1014.258947 935.589246 0.00096959
20.71579 1027.3424 1010.912203 935.661982 0.000973385
20.72459 1023.258 1007.732297 935.73655 0.000977271
20.73339 1018.7572 1004.747339 935.81291 0.000981588
20.74219 1014.7678 1001.978385 935.891038 0.000985447
20.75100 1010.5252 999.437785 935.970887 0.000989584
20.75980 1006.2748 997.13176 936.052388 0.000993764
20.76860 1001.7906 995.060634 936.135497 0.000998213
20.77741 998.15369 993.222256 936.220164 0.00100185
20.78620 995.63861 991.613819 936.306289 0.00100438
20.79501 993.66699 990.231307 936.393863 0.001006373
20.80381 991.5097 989.073173 936.482777 0.001008563
20.81261 989.367 988.135461 936.572975 0.001010747
20.82141 987.68805 987.416804 936.664356 0.001012465
20.83022 985.69281 986.909064 936.756846 0.001014515
20.83902 984.12018 986.601206 936.850365 0.001016136
20.84782 981.8844 986.47603 936.944776 0.00101845
20.85662 980.08893 986.510578 937.040043 0.001020316
20.86542 978.7561 986.674921 937.136018 0.001021705
20.87423 977.21655 986.933901 937.232611 0.001023315
20.88303 975.70868 987.24685 937.329685 0.001024896
20.89183 975.27789 987.570751 937.427128 0.001025349
20.90063 975.37628 987.861138 937.524801 0.001025245
20.90943 975.17712 988.076713 937.622591 0.001025455
20.91824 974.93195 988.181845 937.720359 0.001025713
20.92704 975.11713 988.149823 937.817934 0.001025518
20.93584 975.37079 987.964706 937.915186 0.001025251
20.94465 975.06976 987.622067 938.011932 0.001025568
20.95345 975.12573 987.127136 938.108016 0.001025509
20.96225 975.36969 986.493128 938.203253 0.001025252
20.97105 975.79352 985.737099 938.297483 0.001024807
20.97985 976.76489 984.880063 938.390516 0.001023788
20.98866 976.46704 983.941254 938.482134 0.0010241
20.99746 975.7373 982.942308 938.572154 0.001024866
21.00626 975.40869 981.902205 938.660342 0.001025211
21.01506 975.03241 980.842879 938.746469 0.001025607
21.02386 974.07416 979.783291 938.830353 0.001026616
21.03267 974.12091 978.745259 938.911718 0.001026567
21.04147 973.31165 977.747135 938.990336 0.00102742
21.05027 972.3407 976.806725 939.065931 0.001028446
21.05907 971.99915 975.936395 939.13825 0.001028807
21.06788 971.55725 975.143914 939.207023 0.001029275
21.07668 970.27881 974.432208 939.271938 0.001030632
21.08548 969.9884 973.797878 939.332743 0.00103094
21.09428 970.19476 973.232027 939.389105 0.001030721
21.10308 970.25452 972.722469 939.440722 0.001030657
21.11189 969.86285 972.252811 939.487257 0.001031074
21.12069 969.86816 971.805911 939.528379 0.001031068
21.12949 970.08899 971.363623 939.563736 0.001030833
21.13829 971.02789 970.909226 939.592979 0.001029837
21.14709 970.73718 970.42665 939.615733 0.001030145
21.15590 970.60291 969.903471 939.631611 0.001030287
21.16470 969.8371 969.328858 939.640222 0.001031101
21.17350 969.35712 968.696798 939.641157 0.001031612
21.18230 969.11359 968.004515 939.633997 0.001031871
21.19110 968.49664 967.253999 939.618311 0.001032528
21.19991 967.38574 966.451606 939.59365 0.001033714
21.20871 966.30487 965.607322 939.559551 0.00103487
21.21751 964.16541 964.734246 939.515549 0.001037166
21.22631 962.1817 963.846111 939.461144 0.001039305
21.23512 960.78247 962.95736 939.395849 0.001040818
21.24392 959.8327 962.080739 939.319148 0.001041848
21.25272 958.77399 961.226929 939.230494 0.001042999
21.26152 956.38806 960.404324 939.129347 0.001045601
21.27032 954.24536 959.618197 939.01513 0.001047949
21.27913 953.18396 958.870863 938.88729 0.001049115
21.28793 952.01611 958.161533 938.745203 0.001050402
21.29673 951.32361 957.486594 938.588289 0.001051167
21.30553 951.36865 956.839966 938.415924 0.001051117
21.31433 951.30841 956.213255 938.227423 0.001051184
21.32314 950.79541 955.596841 938.022141 0.001051751
21.33194 950.70892 954.980253 937.799368 0.001051847
21.34074 949.99994 954.35348 937.558456 0.001052632
21.34954 949.94812 953.70703 937.298629 0.001052689
21.35834 950.12054 953.033638 937.019274 0.001052498
21.36715 949.4032 952.327193 936.719443 0.001053293
21.37595 948.84564 951.585013 936.398487 0.001053912
21.38475 948.50775 950.806355 936.055575 0.001054288
21.39355 948.23389 949.993096 935.689844 0.001054592
21.40236 948.32874 949.149155 935.300538 0.001054487
21.41116 947.60364 948.279941 934.886707 0.001055294
21.41996 946.94073 947.392103 934.447664 0.001056032
21.42876 946.51752 946.491656 933.982203 0.001056504
21.43756 945.83124 945.585491 933.489598 0.001057271
21.44637 945.07269 944.678824 932.968846 0.00105812
21.45517 944.37085 943.775834 932.418908 0.001058906
21.46397 943.68903 942.87965 931.838907 0.001059671
21.47277 942.36658 941.991429 931.227832 0.001061158
21.48157 940.92133 941.110469 930.584492 0.001062788
21.49038 940.22992 940.234727 929.907804 0.00106357
21.49918 940.27637 939.360253 929.196819 0.001063517
21.50798 939.84766 938.481507 928.450336 0.001064002
21.51678 939.91571 937.591278 927.667109 0.001063925
21.52558 940.47882 936.68145 926.846326 0.001063288
21.53439 940.50555 935.741678 925.986217 0.001063258
21.54319 940.42792 934.761917 925.085923 0.001063346
21.55199 940.07172 933.731895 924.143971 0.001063749
21.56079 940.034 932.641454 923.15928 0.001063791
21.56959 940.33917 931.481133 922.130418 0.001063446
21.57840 941.00232 930.243243 921.055904 0.001062697
21.58720 941.42078 928.922985 919.934854 0
21.59600 941.62347 0 0 0
21.60480 941.67822 0 0 0
21.61360 941.60083 0 0 0
21.62241 941.87238 0 0 0
21.63121 942.69092 0 0 0
21.64001 943.49054 0 0 0
21.64881 943.77844 0 0 0
21.65762 944.4801 0 0 0
21.66642 944.92621 0 0 0
21.67522 944.82092 0 0 0
21.68402 944.98364 0 0 0
21.69282 945.8725 0 0 0
21.70163 946.63708 0 0 0
21.71043 947.28711 0 0 0
21.71923 947.37683 0 0 0
21.72803 947.47144 0 0 0
21.73683 947.30536 0 0 0
21.74564 947.47015 0 0 0
21.75444 947.97327 0 0 0
21.76324 948.25684 0 0 0
21.77204 948.81976 0 0 0
21.78085 949.61456 0 0 0
21.78965 950.43146 0 0 0
21.79845 951.68817 0 0 0
21.80725 953.49939 0 0 0
21.81605 955.38513 0 0 0
21.82486 956.66241 0 0 0
21.83366 957.65808 0 0 0
21.84246 958.79742 0 0 0
21.85126 960.44263 0 0 0
21.86006 963.10352 0 0 0
21.86887 965.78613 0 0 0
21.87767 968.05878 0 0 0
21.88647 970.73529 0 0 0
21.89527 973.94092 0 0 0
21.90408 977.12103 0 0 0
21.91288 980.47852 0 0 0
21.92168 984.43689 0 0 0
21.93048 986.63995 0 0 0
21.93928 987.96478 0 0 0
21.94809 990.76282 0 0 0
21.95689 994.20264 0 0 0
21.96569 997.99084 0 0 0
21.97449 999.68994 0 0 0
21.98329 1001.7411 0 0 0
21.99210 1004.5006 0 0 0
22.00090 1008.1926 0 0 0
22.00970 1011.257 0 0 0
22.01850 1014.9369 0 0 0
22.02731 1018.1016 0 0 0
22.03611 1021.5021 0 0 0
22.04491 1023.9485 0 0 0
22.05371 1025.67 0 0 0
22.06251 1025.5255 0 0 0
22.07132 1025.5448 0 0 0
22.08012 1023.9679 0 0 0
22.08892 1022.9973 0 0 0
22.09772 1020.5396 0 0 0
22.10652 1017.973 0 0 0
22.11533 1015.4869 0 0 0
22.12413 1012.6846 0 0 0
22.13293 1009.2573 0 0 0
22.14173 1006.1441 0 0 0
22.15054 1002.5726 0 0 0
22.15934 999.45245 0 0 0
22.16814 996.26825 0 0 0
22.17694 992.76343 0 0 0
22.18574 989.04559 0 0 0
22.19455 985.54492 0 0 0
22.20335 981.65692 0 0 0
22.21215 977.64374 0 0 0
22.22095 973.59528 0 0 0
22.22975 969.81042 0 0 0
22.23856 966.7677 0 0 0
22.24736 965.03387 0 0 0
22.25616 962.5849 0 0 0
22.26496 960.36975 0 0 0
22.27376 958.70734 0 0 0
22.28257 956.51813 0 0 0
22.29137 954.76733 0 0 0
22.30017 953.8233 0 0 0
22.30897 953.9068 0 0 0
22.31778 953.80609 0 0 0
22.32658 953.44098 0 0 0
22.33538 953.70691 0 0 0
22.34418 953.56842 0 0 0
22.35298 953.15063 0 0 0
22.36179 952.76294 0 0 0
22.37059 952.72095 0 0 0
22.37939 953.46161 0 0 0
22.38819 953.52936 0 0 0
22.39699 953.37445 0 0 0
22.40580 953.89142 0 0 0
22.41460 953.58746 0 0 0
22.42340 953.17487 0 0 0
22.43220 952.46289 0 0 0
22.44100 951.62732 0 0 0
22.44981 951.60303 0 0 0
22.45861 951.23883 0 0 0
22.46741 950.96094 0 0 0
22.47621 950.61322 0 0 0
22.48502 950.76569 0 0 0
22.49382 950.38312 0 0 0
22.50262 949.04895 0 0 0
22.51142 948.3396 0 0 0
22.52022 948.85016 0 0 0
22.52903 948.90216 0 0 0
22.53783 949.48895 0 0 0
22.54663 950.58905 0 0 0
22.55543 952.23541 0 0 0
22.56423 953.42334 0 0 0
22.57304 954.57202 0 0 0
22.58184 955.43427 0 0 0
22.59064 956.85382 0 0 0
22.59944 958.21289 0 0 0
22.60825 959.95245 0 0 0
22.61705 962.17047 0 0 0
22.62585 965.20569 0 0 0
22.63465 967.47504 0 0 0
22.64345 970.44006 0 0 0
22.65226 972.82861 0 0 0
22.66106 974.48462 0 0 0
22.66986 975.94299 0 0 0
22.67866 978.45184 0 0 0
22.68746 980.36157 0 0 0
22.69627 982.35669 0 0 0
22.70507 983.73425 0 0 0
22.71387 985.3479 0 0 0
22.72267 987.60974 0 0 0
22.73147 991.02289 0 0 0
22.74028 994.42413 0 0 0
22.74908 996.89581 0 0 0
22.75788 998.38141 0 0 0
22.76668 999.31665 0 0 0
22.77549 1001.3536 0 0 0
22.78429 1003.5295 0 0 0
22.79309 1005.4854 0 0 0
22.80189 1006.3972 0 0 0
22.81069 1007.3328 0 0 0
22.81950 1007.9105 0 0 0
22.82830 1008.113 0 0 0
22.83710 1007.0797 0 0 0
22.84590 1004.9485 0 0 0
22.85470 1002.4021 0 0 0
22.86351 1000.8786 0 0 0
22.87231 999.02771 0 0 0
22.88111 998.03857 0 0 0
22.88991 997.59186 0 0 0
22.89871 996.66864 0 0 0
22.90752 994.59875 0 0 0
22.91632 992.20294 0 0 0
22.92512 989.9931 0 0 0
22.93392 988.49078 0 0 0
22.94273 987.13434 0 0 0
22.95153 985.09387 0 0 0
22.96033 982.87549 0 0 0
22.96913 981.09283 0 0 0
22.97793 979.00427 0 0 0
22.98674 976.3252 0 0 0
22.99554 974.56915 0 0 0
23.00434 973.50085 0 0 0
23.01314 971.81909 0 0 0
23.02194 969.73816 0 0 0
23.03075 968.52301 0 0 0
23.03955 967.80194 0 0 0
23.04835 966.99915 0 0 0
23.05715 965.94434 0 0 0
23.06596 964.5542 0 0 0
23.07476 963.68268 0 0 0
23.08356 962.86389 0 0 0
23.09236 961.66467 0 0 0
23.10116 961.09406 0 0 0
23.10997 960.57349 0 0 0
23.11877 959.06653 0 0 0
23.12757 957.92084 0 0 0
23.13637 957.56427 0 0 0
23.14517 956.71893 0 0 0
23.15398 956.64642 0 0 0
23.16278 957.0882 0 0 0
23.17158 957.85724 0 0 0
23.18038 959.54608 0 0 0
23.18918 960.68268 0 0 0
23.19799 961.45099 0 0 0
23.20679 962.83765 0 0 0
23.21559 964.4118 0 0 0
23.22439 966.25153 0 0 0
23.23320 968.27222 0 0 0
23.24200 969.89709 0 0 0
23.25080 971.14453 0 0 0
23.25960 973.48376 0 0 0
23.26840 976.3136 0 0 0
23.27721 978.98102 0 0 0
23.28601 980.88568 0 0 0
23.29481 982.69073 0 0 0
23.30361 984.63348 0 0 0
23.31241 986.04877 0 0 0
23.32122 987.78174 0 0 0
23.33002 989.48645 0 0 0
23.33882 990.24152 0 0 0
23.34762 991.2547 0 0 0
23.35642 992.79956 0 0 0
23.36523 993.46472 0 0 0
23.37403 993.72003 0 0 0
23.38283 994.56427 0 0 0
23.39163 994.85016 0 0 0
23.40044 995.63379 0 0 0
23.40924 996.8479 0 0 0
23.41804 997.35858 0 0 0
23.42684 997.68665 0 0 0
23.43564 998.99017 0 0 0
23.44445 1000.0234 0 0 0
23.45325 1000.196 0 0 0
23.46205 999.87695 0 0 0
23.47085 999.91852 0 0 0
23.47965 999.87677 0 0 0
23.48846 999.65045 0 0 0
23.49726 999.3468 0 0 0
23.50606 998.73163 0 0 0
23.51486 998.26453 0 0 0
23.52367 997.44733 0 0 0
23.53247 996.56427 0 0 0
23.54127 996.08618 0 0 0
23.55007 995.70288 0 0 0
23.55887 995.22473 0 0 0
23.56768 995.09259 0 0 0
23.57648 994.10577 0 0 0
23.58528 994.224 0 0 0
23.59408 994.35693 0 0 0
23.60288 994.61548 0 0 0
23.61169 995.84387 0 0 0
23.62049 995.64441 0 0 0
23.62929 995.83124 0 0 0
23.63809 996.01166 0 0 0
23.64689 996.55139 0 0 0
23.65570 996.78595 0 0 0
23.66450 996.45538 0 0 0
23.67330 996.30267 0 0 0
23.68210 996.41589 0 0 0
23.69091 995.91943 0 0 0
23.69971 996.82288 0 0 0
23.70851 997.58752 0 0 0
23.71731 997.64459 0 0 0
23.72611 997.21594 0 0 0
23.73492 996.40533 0 0 0
23.74372 996.44391 0 0 0
23.75252 996.13831 0 0 0
23.76132 994.18768 0 0 0
23.77012 991.26819 0 0 0
23.77893 988.25665 0 0 0
23.78773 985.21631 0 0 0
23.79653 982.10638 0 0 0
23.80533 978.71179 0 0 0
23.81414 976.28119 0 0 0
23.82294 974.73914 0 0 0
23.83174 973.59399 0 0 0
23.84054 971.84528 0 0 0
23.84934 970.1145 0 0 0
23.85815 969.32452 0 0 0
23.86695 968.22186 0 0 0
23.87575 966.34851 0 0 0
23.88455 964.97009 0 0 0
23.89335 963.51929 0 0 0
23.90216 962.20398 0 0 0
23.91096 961.05713 0 0 0
23.91976 960.3938 0 0 0
23.92856 960.66559 0 0 0
23.93736 960.58185 0 0 0
23.94617 960.49188 0 0 0
23.95497 960.40759 0 0 0
23.96377 960.45099 0 0 0
23.97257 960.646 0 0 0
23.98137 961.29218 0 0 0
23.99018 961.49805 0 0 0
23.99898 961.87469 0 0 0
24.00778 962.77106 0 0 0
24.01658 963.7724 0 0 0
24.02539 964.67761 0 0 0
24.03419 965.61053 0 0 0
24.04299 966.36102 0 0 0
24.05179 966.82916 0 0 0
24.06059 968.0437 0 0 0
24.06940 969.13513 0 0 0
24.07820 970.80139 0 0 0
24.08700 972.78119 0 0 0
24.09580 974.34021 0 0 0
24.10460 975.65991 0 0 0
24.11341 977.26428 0 0 0
24.12221 978.90863 0 0 0
24.13101 981.74042 0 0 0
24.13981 983.87677 0 0 0
24.14862 984.63104 0 0 0
24.15742 985.94794 0 0 0
24.16622 986.94745 0 0 0
24.17502 987.09021 0 0 0
24.18382 988.06567 0 0 0
24.19263 988.84839 0 0 0
24.20143 986.87738 0 0 0
24.21023 983.93671 0 0 0
24.21903 982.20673 0 0 0
24.22783 980.26166 0 0 0
24.23664 977.78918 0 0 0
24.24544 974.30225 0 0 0
24.25424 971.53552 0 0 0
24.26304 969.44257 0 0 0
24.27184 966.57629 0 0 0
24.28065 963.3067 0 0 0
24.28945 960.87427 0 0 0
24.29825 958.9931 0 0 0
24.30705 956.71234 0 0 0
24.31586 954.21143 0 0 0
24.32466 952.27863 0 0 0
24.33346 950.42285 0 0 0
24.34226 948.99609 0 0 0
24.35106 947.76178 0 0 0
24.35987 947.2229 0 0 0
24.36867 946.05225 0 0 0
24.37747 945.2077 0 0 0
24.38627 945.36401 0 0 0
24.39507 945.38733 0 0 0
24.40388 945.06512 0 0 0
24.41268 944.80115 0 0 0
24.42148 944.5036 0 0 0
24.43029 944.41907 0 0 0
24.43908 945.06165 0 0 0
24.44789 945.15558 0 0 0
24.45669 945.41229 0 0 0
24.46549 945.79492 0 0 0
24.47430 946.17517 0 0 0
24.48310 947.51337 0 0 0
24.49190 947.69818 0 0 0
24.50070 947.34058 0 0 0
24.50950 946.93103 0 0 0
24.51831 948.19916 0 0 0
24.52711 949.63043 0 0 0
24.53591 950.09485 0 0 0
24.54471 949.76831 0 0 0
24.55351 949.41711 0 0 0
24.56232 950.29297 0 0 0
24.57112 950.35461 0 0 0
24.57992 950.52045 0 0 0
24.58872 950.71667 0 0 0
24.59753 950.47668 0 0 0
24.60633 950.91742 0 0 0
24.61513 952.81073 0 0 0
24.62393 954.9328 0 0 0
24.63273 955.01782 0 0 0
24.64154 955.27612 0 0 0
24.65034 955.79352 0 0 0
24.65914 956.49292 0 0 0
24.66794 957.60632 0 0 0
24.67674 958.56006 0 0 0
24.68555 957.96417 0 0 0
24.69435 956.87592 0 0 0
24.70315 956.94806 0 0 0
24.71195 956.85425 0 0 0
24.72076 956.13678 0 0 0
24.72956 954.81268 0 0 0
24.73836 954.10211 0 0 0
24.74716 952.86871 0 0 0
24.75596 951.69482 0 0 0
24.76477 951.37976 0 0 0
24.77357 951.63074 0 0 0
24.78237 951.99335 0 0 0
24.79117 951.6698 0 0 0
24.79997 950.46118 0 0 0
24.80878 949.82928 0 0 0
24.81758 949.39789 0 0 0
24.82638 948.17035 0 0 0
24.83518 947.81525 0 0 0
24.84398 947.55286 0 0 0
24.85279 946.97406 0 0 0
24.86159 946.19635 0 0 0
24.87039 945.52045 0 0 0
24.87919 944.99597 0 0 0
24.88800 944.93903 0 0 0
24.89680 945.27399 0 0 0
24.90560 944.92755 0 0 0
24.91440 944.76855 0 0 0
24.92320 945.30701 0 0 0
24.93201 945.98151 0 0 0
24.94081 946.15558 0 0 0
24.94961 947.19586 0 0 0
24.95841 948.60596 0 0 0
24.96721 949.30121 0 0 0
24.97602 951.2066 0 0 0
24.98482 953.93481 0 0 0
24.99362 955.35907 0 0 0
25.00242 956.6684 0 0 0
25.01122 958.01422 0 0 0
25.02003 959.80463 0 0 0
25.02883 961.4975 0 0 0
25.03763 963.09381 0 0 0
25.04643 964.99902 0 0 0
25.05523 967.28015 0 0 0
25.06404 968.6059 0 0 0
25.07284 968.97571 0 0 0
25.08164 969.67163 0 0 0
25.09044 969.97046 0 0 0
25.09924 969.8288 0 0 0
25.10805 969.61694 0 0 0
25.11685 968.78668 0 0 0
25.12565 966.19543 0 0 0
25.13445 964.23151 0 0 0
25.14325 963.16406 0 0 0
25.15206 962.06641 0 0 0
25.16086 961.10028 0 0 0
25.16966 959.26996 0 0 0
25.17846 957.31482 0 0 0
25.18727 955.38538 0 0 0
25.19607 953.62524 0 0 0
25.20487 951.39203 0 0 0
25.21367 949.77112 0 0 0
25.22247 948.63599 0 0 0
25.23128 946.91718 0 0 0
25.24008 945.12421 0 0 0
25.24888 943.99884 0 0 0
25.25768 942.5343 0 0 0
25.26648 940.38031 0 0 0
25.27529 938.85858 0 0 0
25.28409 937.94293 0 0 0
25.29289 938.31158 0 0 0
25.30169 937.71149 0 0 0
25.31049 936.2926 0 0 0
25.31930 935.65625 0 0 0
25.32810 933.94177 0 0 0
25.33690 933.64001 0 0 0
25.34570 934.87598 0 0 0
25.35451 934.20313 0 0 0
25.36331 933.2478 0 0 0
25.37211 933.27759 0 0 0
25.38091 933.43231 0 0 0
25.38971 933.43274 0 0 0
25.39852 933.4303 0 0 0
25.40732 934.86212 0 0 0
25.41612 936.0957 0 0 0
25.42492 936.08008 0 0 0
25.43372 936.66962 0 0 0
25.44253 937.25079 0 0 0
25.45133 937.55286 0 0 0
25.46013 939.6402 0 0 0
25.46893 941.79694 0 0 0
25.47774 942.48547 0 0 0
25.48654 943.44946 0 0 0
25.49534 945.30615 0 0 0
25.50414 946.52496 0 0 0
25.51294 947.19482 0 0 0
25.52175 948.15131 0 0 0
25.53055 949.16693 0 0 0
25.53935 949.93024 0 0 0
25.54815 950.38287 0 0 0
25.55695 951.68207 0 0 0
25.56576 953.54517 0 0 0
25.57456 954.93939 0 0 0
25.58336 956.63177 0 0 0
25.59216 957.85004 0 0 0
25.60096 959.1969 0 0 0
25.60977 961.50403 0 0 0
25.61857 962.64447 0 0 0
25.62737 963.73114 0 0 0
25.63618 964.38153 0 0 0
25.64498 964.62323 0 0 0
25.65378 965.05737 0 0 0
25.66258 965.32349 0 0 0
25.67138 965.38184 0 0 0
25.68019 964.43854 0 0 0
25.68899 965.23242 0 0 0
25.69779 964.823 0 0 0
25.70659 965.16138 0 0 0
25.71539 964.8396 0 0 0
25.72420 965.06445 0 0 0
25.73300 964.98981 0 0 0
25.74180 965.31427 0 0 0
25.75060 966.27863 0 0 0
25.75940 965.97754 0 0 0
25.76821 966.84857 0 0 0
25.77701 966.21594 0 0 0
25.78581 966.2724 0 0 0
25.79461 964.53979 0 0 0
25.80342 964.77264 0 0 0
25.81222 964.32843 0 0 0
25.82102 964.02563 0 0 0
25.82982 963.25305 0 0 0
25.83862 961.38556 0 0 0
25.84743 960.63812 0 0 0
25.85623 958.39368 0 0 0
25.86503 957.56458 0 0 0
25.87383 955.80994 0 0 0
25.88263 955.28168 0 0 0
25.89144 953.9093 0 0 0
25.90024 953.47369 0 0 0
25.90904 952.61139 0 0 0
25.91784 951.61639 0 0 0
25.92664 952.07898 0 0 0
25.93545 952.48425 0 0 0
25.94425 953.07733 0 0 0
25.95305 952.57214 0 0 0
25.96185 953.35016 0 0 0
25.97066 953.76361 0 0 0
25.97946 954.68115 0 0 0
25.98826 955.6795 0 0 0
25.99706 957.32507 0 0 0
26.00586 958.94409 0 0 0
26.01467 959.34698 0 0 0
26.02347 959.11938 0 0 0
26.03227 959.81348 0 0 0
26.04107 961.31866 0 0 0
26.04987 962.53357 0 0 0
26.05868 962.95764 0 0 0
26.06748 962.60858 0 0 0
26.07628 962.89594 0 0 0
26.08508 963.23981 0 0 0
26.09388 963.90082 0 0 0
26.10269 964.43414 0 0 0
26.11149 963.95056 0 0 0
26.12029 962.89294 0 0 0
26.12909 963.729 0 0 0
26.13790 964.50183 0 0 0
26.14670 963.50269 0 0 0
26.15550 962.6582 0 0 0
26.16430 961.04749 0 0 0
26.17310 958.80585 0 0 0
26.18191 955.66968 0 0 0
26.19071 951.74554 0 0 0
26.19951 948.83136 0 0 0
26.20831 947.24023 0 0 0
26.21711 944.00751 0 0 0
26.22592 940.2594 0 0 0
26.23472 937.96002 0 0 0
26.24352 936.57233 0 0 0
26.25232 935.89355 0 0 0
26.26113 935.36566 0 0 0
26.26993 933.88531 0 0 0
26.27873 931.26495 0 0 0
26.28753 929.73865 0 0 0
26.29633 929.55823 0 0 0
26.30514 929.58765 0 0 0
26.31394 928.46307 0 0 0
26.32274 927.36298 0 0 0
26.33154 928.03363 0 0 0
26.34034 927.51978 0 0 0
26.34915 927.15442 0 0 0
26.35795 928.08826 0 0 0
26.36675 929.39191 0 0 0
26.37555 929.29718 0 0 0
26.38435 928.78876 0 0 0
26.39316 928.52094 0 0 0
26.40196 928.92645 0 0 0
26.41076 931.27301 0 0 0
26.41956 931.86481 0 0 0
26.42837 931.71344 0 0 0
26.43717 931.87012 0 0 0
26.44597 932.96033 0 0 0
26.45477 932.11353 0 0 0
26.46357 931.9754 0 0 0
26.47238 932.93213 0 0 0
26.48118 932.82141 0 0 0
26.48998 932.39838 0 0 0
26.49878 931.03583 0 0 0
26.50758 930.62531 0 0 0
26.51639 929.37469 0 0 0
26.52519 928.59058 0 0 0
26.53399 926.63 0 0 0
26.54279 925.63287 0 0 0
26.55159 924.83081 0 0 0
26.56040 923.93262 0 0 0
26.56920 923.62543 0 0 0
26.57800 922.80914 0 0 0
26.58680 922.92725 0 0 0
26.59561 922.97839 0 0 0
26.60441 923.02362 0 0 0
26.61321 922.50287 0 0 0
26.62201 924.16058 0 0 0
26.63081 925.68835 0 0 0
26.63962 925.97284 0 0 0
26.64842 925.77649 0 0 0
26.65722 925.90204 0 0 0
26.66602 926.28986 0 0 0
26.67482 925.91455 0 0 0
26.68363 926.81226 0 0 0
26.69243 927.94751 0 0 0
26.70123 928.27393 0 0 0
26.71003 928.78632 0 0 0
26.71884 929.69696 0 0 0
26.72764 929.80542 0 0 0
26.73644 930.34198 0 0 0
26.74524 932.12048 0 0 0
26.75404 933.9715 0 0 0
26.76285 934.23779 0 0 0
26.77165 934.5979 0 0 0
26.78045 935.13806 0 0 0
26.78925 934.91974 0 0 0
26.79805 934.53717 0 0 0
26.80686 934.14331 0 0 0
26.81566 933.11401 0 0 0
26.82446 932.81628 0 0 0
26.83326 933.36224 0 0 0
26.84206 932.50684 0 0 0
26.85087 931.64612 0 0 0
26.85967 931.11255 0 0 0
26.86847 929.35999 0 0 0
26.87727 927.16943 0 0 0
26.88608 925.76404 0 0 0
26.89488 925.4624 0 0 0
26.90368 924.29688 0 0 0
26.91248 923.09119 0 0 0
26.92128 922.49506 0 0 0
26.93009 921.78101 0 0 0
26.93889 921.21533 0 0 0
26.94769 919.98383 0 0 0
26.95649 919.62512 0 0 0
26.96529 920.48804 0 0 0
26.97410 920.89063 0 0 0
26.98290 920.7074 0 0 0
26.99170 920.96393 0 0 0
27.00050 922.03503 0 0 0
27.00930 923.68976 0 0 0
27.01811 924.2478 0 0 0
27.02691 924.11163 0 0 0
27.03571 924.27808 0 0 0
27.04451 923.33752 0 0 0
27.05332 921.5155 0 0 0
27.06212 920.46283 0 0 0
27.07092 920.52264 0 0 0
27.07972 920.99896 0 0 0
27.08852 920.15997 0 0 0
27.09733 918.44434 0 0 0
27.10613 918.07965 0 0 0
27.11493 917.79041 0 0 0
27.12373 917.36194 0 0 0
27.13253 917.80151 0 0 0
27.14134 917.6272 0 0 0
27.15014 916.3316 0 0 0
27.15894 914.59485 0 0 0
27.16774 914.50085 0 0 0
27.17655 914.5224 0 0 0
27.18535 913.5769 0 0 0
27.19415 913.14276 0 0 0
27.20295 912.66541 0 0 0
27.21175 910.73389 0 0 0
27.22056 909.69073 0 0 0
27.22936 911.01331 0 0 0
27.23816 910.79602 0 0 0
27.24696 909.66034 0 0 0
27.25576 908.00757 0 0 0
27.26457 907.1701 0 0 0
27.27337 908.36603 0 0 0
27.28217 908.71619 0 0 0
27.29097 908.45697 0 0 0
27.29977 908.48834 0 0 0
27.30858 907.3053 0 0 0
27.31738 905.60522 0 0 0
27.32618 905.1507 0 0 0
27.33498 905.87006 0 0 0
27.34379 905.43634 0 0 0
27.35259 905.06824 0 0 0
27.36139 905.57202 0 0 0
27.37019 905.9234 0 0 0
27.37899 907.05463 0 0 0
27.38780 907.61621 0 0 0
27.39660 906.19934 0 0 0
27.40540 905.45374 0 0 0
27.41420 906.31226 0 0 0
27.42300 907.0722 0 0 0
27.43181 907.23059 0 0 0
27.44061 906.45953 0 0 0
27.44941 906.01068 0 0 0
27.45821 906.41815 0 0 0
27.46701 906.80066 0 0 0
27.47582 906.71124 0 0 0
27.48462 906.45801 0 0 0
27.49342 906.69067 0 0 0
27.50222 907.32202 0 0 0
27.51103 907.15814 0 0 0
27.51983 906.78308 0 0 0
27.52863 907.35742 0 0 0
27.53743 908.31763 0 0 0
27.54623 908.23682 0 0 0
27.55504 908.05774 0 0 0
27.56384 908.95758 0 0 0
27.57264 909.69617 0 0 0
27.58144 909.77496 0 0 0
27.59024 910.58685 0 0 0
27.59905 911.65796 0 0 0
27.60785 911.55811 0 0 0
27.61665 911.92487 0 0 0
27.62545 911.90234 0 0 0
27.63426 911.88989 0 0 0
27.64306 912.42743 0 0 0
27.65186 913.59521 0 0 0
27.66066 914.15472 0 0 0
27.66946 914.13348 0 0 0
27.67827 914.60828 0 0 0
27.68707 914.41418 0 0 0
27.69587 914.34509 0 0 0
27.70467 913.98163 0 0 0
27.71347 913.3786 0 0 0
27.72228 913.42566 0 0 0
27.73108 913.4292 0 0 0
27.73988 912.02521 0 0 0
27.74868 910.97644 0 0 0
27.75748 910.12927 0 0 0
27.76629 909.05829 0 0 0
27.77509 908.84747 0 0 0
27.78389 909.06396 0 0 0
27.79269 908.24219 0 0 0
27.80150 907.68262 0 0 0
27.81030 908.70349 0 0 0
27.81910 908.07605 0 0 0
27.82790 906.97937 0 0 0
27.83670 906.51227 0 0 0
27.84551 905.62366 0 0 0
27.85431 904.90131 0 0 0
27.86311 904.96747 0 0 0
27.87191 905.60809 0 0 0
27.88071 905.93445 0 0 0
27.88952 906.49786 0 0 0
27.89832 906.11658 0 0 0
27.90712 906.18781 0 0 0
27.91592 906.82574 0 0 0
27.92472 905.89227 0 0 0
27.93353 905.63428 0 0 0
27.94233 906.73627 0 0 0
27.95113 908.28711 0 0 0
27.95993 909.54236 0 0 0
27.96874 909.98352 0 0 0
27.97754 910.61414 0 0 0
27.98634 910.44385 0 0 0
27.99514 909.64368 0 0 0
28.00394 910.03949 0 0 0
28.01275 910.75946 0 0 0
28.02155 911.39685 0 0 0
28.03035 911.58875 0 0 0
28.03915 911.61115 0 0 0
28.04796 912.61627 0 0 0
28.05676 913.51355 0 0 0
28.06556 914.84888 0 0 0
28.07436 915.22137 0 0 0
28.08316 913.77722 0 0 0
28.09196 913.47076 0 0 0
28.10077 913.75214 0 0 0
28.10957 914.24304 0 0 0
28.11837 913.89288 0 0 0
28.12717 913.19427 0 0 0
28.13598 913.46698 0 0 0
28.14478 913.54596 0 0 0
28.15358 913.03894 0 0 0
28.16238 912.98682 0 0 0
28.17119 912.85638 0 0 0
28.17999 911.82324 0 0 0
28.18879 911.72406 0 0 0
28.19759 911.61316 0 0 0
28.20639 911.35345 0 0 0
28.21520 911.02362 0 0 0
28.22400 910.4425 0 0 0
28.23280 910.65765 0 0 0
28.24160 910.01666 0 0 0
28.25040 909.18481 0 0 0
28.25921 908.96527 0 0 0
28.26801 908.1734 0 0 0
28.27681 906.57263 0 0 0
28.28561 905.7179 0 0 0
28.29442 905.38043 0 0 0
28.30322 905.01978 0 0 0
28.31202 905.5498 0 0 0
28.32082 904.87378 0 0 0
28.32962 898.59906 0 0 0
28.33843 881.8269 0 0 0
28.34723 877.03632 0 0 0
28.35603 884.6994 0 0 0
28.36483 887.54523 0 0 0
28.37363 891.50562 0 0 0
28.38244 893.56085 0 0 0
28.39124 893.37292 0 0 0
28.40004 893.61969 0 0 0
28.40884 894.72974 0 0 0
28.41765 897.05084 0 0 0
28.42645 898.58014 0 0 0
28.43525 898.5705 0 0 0
28.44405 898.26868 0 0 0
28.45285 898.39709 0 0 0
28.46166 897.70685 0 0 0
28.47046 897.44873 0 0 0
28.47926 899.24097 0 0 0
28.48806 901.4389 0 0 0
28.49686 901.95264 0 0 0
28.50567 901.11383 0 0 0
28.51447 901.93457 0 0 0
28.52327 902.69061 0 0 0
28.53207 904.37152 0 0 0
28.54087 905.31122 0 0 0
28.54968 906.20148 0 0 0
28.55848 907.75348 0 0 0
28.56728 907.02667 0 0 0
28.57608 906.66357 0 0 0
28.58488 907.90417 0 0 0
28.59369 909.16132 0 0 0
28.60249 910.13617 0 0 0
28.61129 911.36713 0 0 0
28.62009 912.80322 0 0 0
28.62889 913.79901 0 0 0
28.63770 914.94958 0 0 0
28.64650 915.81592 0 0 0
28.65530 914.82648 0 0 0
28.66410 915.18524 0 0 0
28.67291 918.51001 0 0 0
28.68171 920.00684 0 0 0
28.69051 919.79663 0 0 0
28.69931 921.70502 0 0 0
28.70811 922.96649 0 0 0
28.71692 923.61475 0 0 0
28.72572 923.97095 0 0 0
28.73452 923.51678 0 0 0
28.74332 922.43707 0 0 0
28.75212 921.63159 0 0 0
28.76093 921.56799 0 0 0
28.76973 921.34998 0 0 0
28.77853 921.44476 0 0 0
28.78733 919.90869 0 0 0
28.79613 919.84381 0 0 0
28.80494 919.8476 0 0 0
28.81374 918.66772 0 0 0
28.82254 919.49097 0 0 0
28.83134 918.896 0 0 0
28.84014 916.95575 0 0 0
28.84895 915.58148 0 0 0
28.85775 914.37079 0 0 0
28.86655 913.94147 0 0 0
28.87535 914.86377 0 0 0
28.88416 914.54968 0 0 0
28.89296 912.73486 0 0 0
28.90176 911.4118 0 0 0
28.91056 910.45966 0 0 0
28.91936 909.08429 0 0 0
28.92817 908.14258 0 0 0
28.93697 906.27899 0 0 0
28.94577 904.09644 0 0 0
28.95457 903.25848 0 0 0
28.96337 902.48834 0 0 0
28.97218 901.15588 0 0 0
28.98098 899.41003 0 0 0
28.98978 898.09619 0 0 0
28.99858 896.46069 0 0 0
29.00738 895.67975 0 0 0
29.01619 895.48157 0 0 0
29.02499 894.91235 0 0 0
29.03379 894.21381 0 0 0
29.04259 893.1156 0 0 0
29.05140 893.2406 0 0 0
29.06020 892.84631 0 0 0
29.06900 891.42468 0 0 0
29.07780 891.73737 0 0 0
29.08660 891.94531 0 0 0
29.09541 892.53711 0 0 0
29.10421 892.5863 0 0 0
29.11301 891.70349 0 0 0
29.12181 891.76215 0 0 0
29.13061 891.59875 0 0 0
29.13942 891.91345 0 0 0
29.14822 893.55743 0 0 0
29.15702 894.50116 0 0 0
29.16583 894.79175 0 0 0
29.17463 895.09912 0 0 0
29.18343 894.2738 0 0 0
29.19223 893.10089 0 0 0
29.20103 892.9054 0 0 0
29.20984 893.68298 0 0 0
29.21864 894.66748 0 0 0
29.22744 895.59546 0 0 0
29.23624 896.41028 0 0 0
29.24504 897.60663 0 0 0
29.25384 898.07916 0 0 0
29.26265 897.91211 0 0 0
29.27145 898.33368 0 0 0
29.28025 899.82703 0 0 0
29.28906 901.69958 0 0 0
29.29785 902.42596 0 0 0
29.30666 903.49579 0 0 0
29.31546 904.7251 0 0 0
29.32426 904.00824 0 0 0
29.33307 903.28625 0 0 0
29.34187 904.34711 0 0 0
29.35067 905.29883 0 0 0
29.35947 906.75366 0 0 0
29.36827 908.34479 0 0 0
29.37708 909.73193 0 0 0
29.38588 910.26099 0 0 0
29.39468 911.15356 0 0 0
29.40348 911.69659 0 0 0
29.41228 910.33234 0 0 0
29.42109 909.79114 0 0 0
29.42989 910.42816 0 0 0
29.43869 911.37756 0 0 0
29.44749 910.36237 0 0 0
29.45630 910.31195 0 0 0
29.46510 912.29822 0 0 0
29.47390 913.03766 0 0 0
29.48270 913.03558 0 0 0
29.49150 912.83832 0 0 0
29.50031 912.26868 0 0 0
29.50911 910.83643 0 0 0
29.51791 910.77832 0 0 0
29.52671 912.04919 0 0 0
29.53551 912.3407 0 0 0
29.54432 911.53284 0 0 0
29.55312 910.73596 0 0 0
29.56192 910.67242 0 0 0
29.57072 911.50391 0 0 0
29.57952 912.82831 0 0 0
29.58833 913.63898 0 0 0
29.59713 914.73553 0 0 0
29.60593 916.26202 0 0 0
29.61473 916.46466 0 0 0
29.62354 918.32489 0 0 0
29.63234 918.23627 0 0 0
29.64114 919.4411 0 0 0
29.64994 921.70801 0 0 0
29.65874 922.09875 0 0 0
29.66755 924.11316 0 0 0
29.67635 925.85266 0 0 0
29.68515 927.11688 0 0 0
29.69395 927.297 0 0 0
29.70275 928.54755 0 0 0
29.71156 931.61749 0 0 0
29.72036 933.44958 0 0 0
29.72916 932.81238 0 0 0
29.73796 931.95819 0 0 0
29.74676 931.91138 0 0 0
29.75557 933.05042 0 0 0
29.76437 931.76288 0 0 0
29.77317 928.78192 0 0 0
29.78197 928.03918 0 0 0
29.79078 927.72211 0 0 0
29.79958 929.6463 0 0 0
29.80838 929.36951 0 0 0
29.81718 927.66003 0 0 0
29.82598 926.76947 0 0 0
29.83479 926.24506 0 0 0
29.84359 925.86584 0 0 0
29.85239 924.94977 0 0 0
29.86119 924.99445 0 0 0
29.86999 924.91455 0 0 0
29.87880 925.16315 0 0 0
29.88760 926.17059 0 0 0
29.89640 923.41315 0 0 0
29.90520 920.25659 0 0 0
29.91400 919.80707 0 0 0
29.92281 918.43427 0 0 0
29.93161 917.64478 0 0 0
29.94041 917.07074 0 0 0
29.94921 914.54626 0 0 0
29.95801 913.10321 0 0 0
29.96682 913.52405 0 0 0
29.97562 911.40924 0 0 0
29.98442 909.65277 0 0 0
29.99322 909.9848 0 0 0
30.00203 908.31299 0 0 0
30.01083 907.12677 0 0 0
30.01963 906.34613 0 0 0
30.02843 905.54681 0 0 0
30.03723 905.59149 0 0 0
30.04604 905.13324 0 0 0
30.05484 905.26068 0 0 0
30.06364 903.65259 0 0 0
30.07244 904.11438 0 0 0
30.08124 905.31622 0 0 0
30.09005 906.52545 0 0 0
30.09885 907.26599 0 0 0
30.10765 906.0083 0 0 0
30.11645 906.60107 0 0 0
30.12526 906.87305 0 0 0
30.13406 906.05768 0 0 0
30.14286 904.61615 0 0 0
30.15166 904.72858 0 0 0
30.16046 905.03748 0 0 0
30.16927 905.27783 0 0 0
30.17807 905.32098 0 0 0
30.18687 905.23505 0 0 0
30.19567 905.73157 0 0 0
30.20447 907.11072 0 0 0
30.21328 909.12982 0 0 0
30.22208 909.04907 0 0 0
30.23088 907.45117 0 0 0
30.23968 905.89026 0 0 0
30.24849 907.16614 0 0 0
30.25729 909.83282 0 0 0
30.26609 911.14905 0 0 0
30.27489 910.02521 0 0 0
30.28369 908.71271 0 0 0
30.29250 908.11395 0 0 0
30.30130 908.01019 0 0 0
30.31010 909.57294 0 0 0
30.31890 909.23242 0 0 0
30.32770 908.19708 0 0 0
30.33651 910.37061 0 0 0
30.34531 910.80481 0 0 0
30.35411 911.91498 0 0 0
30.36291 912.47607 0 0 0
30.37172 912.93066 0 0 0
30.38052 914.53119 0 0 0
30.38932 914.2724 0 0 0
30.39812 914.56708 0 0 0
30.40692 914.05438 0 0 0
30.41573 913.59583 0 0 0
30.42453 914.37793 0 0 0
30.43333 914.91766 0 0 0
30.44213 916.5976 0 0 0
30.45093 916.58405 0 0 0
30.45974 916.81842 0 0 0
30.46854 914.90149 0 0 0
30.47734 914.22894 0 0 0
30.48614 915.09491 0 0 0
30.49494 916.32806 0 0 0
30.50375 916.08887 0 0 0
30.51255 913.41852 0 0 0
30.52135 911.07135 0 0 0
30.53015 910.68256 0 0 0
30.53896 911.81531 0 0 0
30.54776 910.4137 0 0 0
30.55656 908.21912 0 0 0
30.56536 910.28503 0 0 0
30.57416 911.46747 0 0 0
30.58297 910.38654 0 0 0
30.59177 908.67889 0 0 0
30.60057 906.98755 0 0 0
30.60937 905.91992 0 0 0
30.61817 905.60126 0 0 0
30.62698 905.12012 0 0 0
30.63578 902.97168 0 0 0
30.64458 901.72424 0 0 0
30.65338 901.41748 0 0 0
30.66218 900.92926 0 0 0
30.67099 899.23035 0 0 0
30.67979 898.03174 0 0 0
30.68859 896.11987 0 0 0
30.69739 894.50983 0 0 0
30.70620 895.10565 0 0 0
30.71500 895.00305 0 0 0
30.72380 892.84204 0 0 0
30.73260 891.68829 0 0 0
30.74140 891.85663 0 0 0
30.75021 892.08154 0 0 0
30.75901 892.534 0 0 0
30.76781 893.06781 0 0 0
30.77661 891.83008 0 0 0
30.78541 890.57782 0 0 0
30.79422 891.75397 0 0 0
30.80302 892.44763 0 0 0
30.81182 891.52893 0 0 0
30.82062 889.7345 0 0 0
30.82943 889.50671 0 0 0
30.83823 889.24884 0 0 0
30.84703 888.38086 0 0 0
30.85583 888.45404 0 0 0
30.86463 889.59576 0 0 0
30.87344 890.17523 0 0 0
30.88224 888.88525 0 0 0
30.89104 888.50909 0 0 0
30.89984 890.09949 0 0 0
30.90864 889.41174 0 0 0
30.91745 887.74695 0 0 0
30.92625 888.5448 0 0 0
30.93505 889.42676 0 0 0
30.94385 890.40063 0 0 0
30.95265 890.25989 0 0 0
30.96146 890.26788 0 0 0
30.97026 890.75726 0 0 0
30.97906 889.72382 0 0 0
30.98786 889.45056 0 0 0
30.99667 889.50403 0 0 0
31.00547 888.65869 0 0 0
31.01427 889.22375 0 0 0
31.02307 890.74384 0 0 0
31.03187 892.57629 0 0 0
31.04068 894.20154 0 0 0
31.04948 891.14746 0 0 0
31.05828 888.13013 0 0 0
31.06708 887.39069 0 0 0
31.07588 888.47717 0 0 0
31.08469 888.33875 0 0 0
31.09349 886.61023 0 0 0
31.10229 886.49261 0 0 0
31.11109 887.28485 0 0 0
31.11989 887.05267 0 0 0
31.12870 884.98145 0 0 0
31.13750 883.604 0 0 0
31.14630 884.94232 0 0 0
31.15510 886.37769 0 0 0
31.16391 883.13947 0 0 0
31.17271 880.15192 0 0 0
31.18151 879.76672 0 0 0
31.19031 880.55444 0 0 0
31.19911 878.95905 0 0 0
31.20792 879.07935 0 0 0
31.21672 883.2171 0 0 0
31.22552 884.4259 0 0 0
31.23432 881.5553 0 0 0
31.24312 879.90448 0 0 0
31.25193 879.30402 0 0 0
31.26073 879.88196 0 0 0
31.26953 881.24475 0 0 0
31.27833 883.17285 0 0 0
31.28714 883.78485 0 0 0
31.29594 881.45441 0 0 0
31.30474 882.43909 0 0 0
31.31354 884.12903 0 0 0
31.32234 882.23901 0 0 0
31.33115 882.09729 0 0 0
31.33995 882.18622 0 0 0
31.34875 881.98834 0 0 0
31.35755 883.61969 0 0 0
31.36635 884.34143 0 0 0
31.37516 883.44122 0 0 0
31.38396 881.71838 0 0 0
31.39276 877.89197 0 0 0
31.40156 878.4826 0 0 0
31.41036 882.59381 0 0 0
31.41917 882.29578 0 0 0
31.42797 879.59106 0 0 0
31.43677 879.2442 0 0 0
31.44557 877.74847 0 0 0
31.45438 874.85901 0 0 0
31.46318 876.89075 0 0 0
31.47198 877.78009 0 0 0
31.48078 875.94287 0 0 0
31.48958 875.12482 0 0 0
31.49839 876.37628 0 0 0
31.50719 874.58813 0 0 0
31.51599 874.09314 0 0 0
31.52479 873.09882 0 0 0
31.53359 875.25385 0 0 0
31.54240 879.17084 0 0 0
31.55120 878.12677 0 0 0
31.56000 877.66266 0 0 0
31.56880 875.94464 0 0 0
31.57760 875.55554 0 0 0
31.58641 874.86237 0 0 0
31.59521 875.32672 0 0 0
31.60401 877.16504 0 0 0
31.61281 881.15161 0 0 0
31.62162 881.71155 0 0 0
31.63042 880.10779 0 0 0
31.63922 880.04205 0 0 0
31.64802 878.06232 0 0 0
31.65682 878.67456 0 0 0
31.66563 880.05231 0 0 0
31.67443 882.03528 0 0 0
31.68323 880.10803 0 0 0
31.69203 880.40387 0 0 0
31.70083 882.7049 0 0 0
31.70964 883.0686 0 0 0
31.71844 884.16205 0 0 0
31.72724 885.20349 0 0 0
31.73604 886.72552 0 0 0
31.74485 886.86969 0 0 0
31.75365 884.08099 0 0 0
31.76245 883.13885 0 0 0
31.77125 886.56165 0 0 0
31.78005 891.23138 0 0 0
31.78886 890.38251 0 0 0
31.79766 887.38593 0 0 0
31.80646 889.58783 0 0 0
31.81526 890.84595 0 0 0
31.82406 889.13495 0 0 0
31.83287 891.16876 0 0 0
31.84167 893.35931 0 0 0
31.85047 894.4104 0 0 0
31.85927 893.52173 0 0 0
31.86807 887.59949 0 0 0
31.87688 888.86902 0 0 0
31.88568 893.02295 0 0 0
31.89448 891.10138 0 0 0
31.90328 891.16827 0 0 0
31.91209 889.26923 0 0 0
31.92089 891.16949 0 0 0
31.92969 896.0376 0 0 0
31.93849 893.31891 0 0 0
31.94729 892.63098 0 0 0
31.95610 894.87756 0 0 0
31.96490 894.64026 0 0 0
31.97370 890.36572 0 0 0
31.98250 890.01862 0 0 0
31.99130 887.92078 0 0 0
32.00011 884.45483 0 0 0
32.00891 888.44495 0 0 0
32.01771 892.27032 0 0 0
32.02651 886.12164 0 0 0
32.03532 886.38239 0 0 0
32.04412 888.20331 0 0 0
32.05292 879.78766 0 0 0
32.06172 875.39734 0 0 0
32.07052 874.47308 0 0 0
32.07933 872.15668 0 0 0
32.08813 874.5174 0 0 0
32.09693 872.61481 0 0 0
32.10573 867.82288 0 0 0
32.11454 869.08429 0 0 0
32.12334 866.61475 0 0 0
32.13214 860.63263 0 0 0
32.14094 860.28235 0 0 0
32.14974 861.32697 0 0 0
32.15855 853.30426 0 0 0
32.16735 855.19873 0 0 0
32.17615 859.58344 0 0 0
32.18495 856.95593 0 0 0
32.19375 857.33441 0 0 0
32.20256 853.90204 0 0 0
32.21136 852.1225 0 0 0
32.22016 850.84106 0 0 0
32.22896 843.22974 0 0 0
32.23776 844.97205 0 0 0
32.24657 846.61334 0 0 0
32.25537 843.44525 0 0 0
32.26417 837.19647 0 0 0
32.27297 836.49817 0 0 0
32.28178 837.93835 0 0 0
32.29058 838.10132 0 0 0
32.29938 847.30511 0 0 0
32.30818 845.07568 0 0 0
32.31698 840.06787 0 0 0
32.32579 840.64484 0 0 0
32.33459 838.69525 0 0 0
32.34339 841.52222 0 0 0
32.35219 841.0083 0 0 0
32.36099 837.44977 0 0 0
32.36980 840.18018 0 0 0
32.37860 838.75897 0 0 0
32.38740 832.7572 0 0 0
32.39620 831.99561 0 0 0
32.40500 838.8324 0 0 0
32.41381 839.50665 0 0 0
32.42261 833.78186 0 0 0
32.43141 835.47186 0 0 0
32.44021 833.03058 0 0 0
32.44902 831.89862 0 0 0
32.45782 830.76257 0 0 0
32.46662 825.44452 0 0 0
32.47542 823.48285 0 0 0
32.48422 825.81671 0 0 0
32.49303 825.46667 0 0 0
32.50183 826.14313 0 0 0
32.51063 823.18079 0 0 0
32.51943 818.48737 0 0 0
32.52823 814.98169 0 0 0
32.53704 817.47504 0 0 0
32.54584 820.56122 0 0 0
32.55464 816.60547 0 0 0
32.56344 812.5437 0 0 0
32.57225 809.33435 0 0 0
32.58105 811.77307 0 0 0
32.58985 812.18054 0 0 0
32.59865 815.93329 0 0 0
32.60745 811.97614 0 0 0
32.61626 799.00928 0 0 0
32.62506 787.83643 0 0 0
32.63386 790.42114 0 0 0
32.64266 801.21674 0 0 0
32.65146 788.83099 0 0 0
32.66027 778.01733 0 0 0
32.66907 786.60138 0 0 0
32.67787 799.3681 0 0 0
32.68667 785.07129 0 0 0
32.69547 770.30432 0 0 0
32.70428 773.47174 0 0 0
32.71308 755.5285 0 0 0
32.72188 747.36987 0 0 0
32.73068 736.16522 0 0 0
32.73949 716.57007 0 0 0
32.74829 712.3963 0 0 0
32.75709 713.71631 0 0 0
32.76589 698.51801 0 0 0
32.77469 667.95599 0 0 0
32.78350 654.12897 0 0 0
32.79230 633.44147 0 0 0
32.80110 582.91174 0 0 0
32.80990 541.93915 0 0 0
32.81870 491.97998 0 0 0
32.82751 409.21506 0 0 0
32.83631 267.10397 0 0 0
32.84511 174.26707 0 0 0
32.85391 176.1627 0 0 0
32.86271 173.17639 0 0 0
32.87152 175.69005 0 0 0
32.88032 184.68993 0 0 0
32.88912 188.14772 0 0 0
32.89792 182.15393 0 0 0
32.90673 177.06616 0 0 0
32.91553 172.06816 0 0 0
32.92433 172.394 0 0 0
32.93313 172.97485 0 0 0
32.94193 181.16756 0 0 0
32.95074 194.29156 0 0 0
32.95954 196.80643 0 0 0
32.96834 193.27148 0 0 0
32.97714 186.02409 0 0 0
32.98594 178.67714 0 0 0
32.99475 172.69899 0 0 0
33.00355 172.99156 0 0 0
33.01235 173.62813 0 0 0
33.02115 175.20329 0 0 0
33.02996 178.35146 0 0 0
33.03876 182.70953 0 0 0
33.04756 176.53073 0 0 0
33.05636 172.19521 0 0 0
33.06516 175.18298 0 0 0
33.07397 177.73102 0 0 0
33.08277 183.87369 0 0 0
33.09157 189.21638 0 0 0
33.10037 191.24321 0 0 0
33.10917 188.87312 0 0 0
33.11798 183.84673 0 0 0
33.12678 179.15053 0 0 0
33.13558 176.87126 0 0 0
33.14438 176.36266 0 0 0
33.15318 179.90584 0 0 0
33.16199 182.55548 0 0 0
33.17079 188.46622 0 0 0
33.17959 184.54442 0 0 0
33.18839 177.27992 0 0 0
33.19720 181.78514 0 0 0
33.20600 189.48807 0 0 0
33.21480 192.42723 0 0 0
33.22360 188.6788 0 0 0
33.23240 184.05016 0 0 0
33.24121 186.39108 0 0 0
33.25001 189.70752 0 0 0
33.25881 189.56166 0 0 0
33.26761 194.88988 0 0 0
33.27641 194.27211 0 0 0
33.28522 187.83928 0 0 0
33.29402 189.17667 0 0 0
33.30282 190.4048 0 0 0
33.31162 177.43436 0 0 0
33.32042 170.49788 0 0 0
33.32923 177.72356 0 0 0
33.33803 186.27414 0 0 0
33.34683 186.88991 0 0 0
33.35563 189.98981 0 0 0
33.36444 190.27823 0 0 0
33.37324 191.31578 0 0 0
33.38204 189.72113 0 0 0
33.39084 187.55043 0 0 0
33.39964 185.56723 0 0 0
33.40845 188.82907 0 0 0
33.41725 189.77917 0 0 0
33.42605 193.34972 0 0 0
33.43485 200.35954 0 0 0
33.44365 204.15109 0 0 0
33.45246 199.22974 0 0 0
33.46126 190.23061 0 0 0
33.47006 180.79474 0 0 0
33.47886 175.66185 0 0 0
33.48766 172.06987 0 0 0
33.49647 178.02226 0 0 0
33.50527 187.46042 0 0 0
33.51407 194.39137 0 0 0
33.52287 191.04837 0 0 0
33.53168 182.06209 0 0 0
33.54048 188.2565 0 0 0
33.54928 189.67319 0 0 0
33.55808 188.90111 0 0 0
33.56688 186.52983 0 0 0
33.57569 180.6263 0 0 0
33.58449 180.67659 0 0 0
33.59329 177.53244 0 0 0
33.60209 179.82965 0 0 0
33.61089 187.85979 0 0 0
33.61970 199.28242 0 0 0
33.62850 202.00029 0 0 0
33.63730 194.44501 0 0 0
33.64610 188.34393 0 0 0
33.65491 187.09412 0 0 0
33.66371 200.45641 0 0 0
33.67251 209.60194 0 0 0
33.68131 199.18593 0 0 0
33.69011 186.36934 0 0 0
33.69892 187.93947 0 0 0
33.70772 181.28584 0 0 0
33.71652 177.27596 0 0 0
33.72532 181.3093 0 0 0
33.73412 194.22166 0 0 0
33.74293 208.41068 0 0 0
33.75173 208.44896 0 0 0
33.76053 203.69138 0 0 0
33.76933 199.65161 0 0 0
33.77813 199.18166 0 0 0
33.78694 188.16962 0 0 0
33.79574 173.65688 0 0 0
33.80454 183.15858 0 0 0
33.81334 197.75453 0 0 0
33.82215 196.41722 0 0 0
33.83095 185.7683 0 0 0
33.83975 180.89584 0 0 0
33.84855 182.26009 0 0 0
33.85735 193.93216 0 0 0
33.86616 205.21295 0 0 0
33.87496 207.97018 0 0 0
33.88376 200.07216 0 0 0
33.89256 190.43166 0 0 0
33.90136 189.85977 0 0 0
33.91017 182.10101 0 0 0
33.91897 173.64275 0 0 0
33.92777 181.22383 0 0 0
33.93657 187.6996 0 0 0
33.94537 194.98264 0 0 0
33.95418 202.19301 0 0 0
33.96298 202.95641 0 0 0
33.97178 194.47495 0 0 0
33.98058 173.35287 0 0 0
33.98939 164.13893 0 0 0
33.99819 182.22252 0 0 0
34.00699 194.8671 0 0 0
34.01579 200.89986 0 0 0
34.02459 203.25493 0 0 0
34.03340 211.19887 0 0 0
34.04220 202.38454 0 0 0
34.05100 194.33078 0 0 0
34.05980 202.1931 0 0 0
34.06860 206.29779 0 0 0
34.07741 200.84523 0 0 0
34.08621 193.21495 0 0 0
34.09501 192.67471 0 0 0
34.10381 187.68958 0 0 0
34.11262 184.13866 0 0 0
34.12142 188.92491 0 0 0
34.13022 196.63286 0 0 0
34.13902 198.23033 0 0 0
34.14782 191.52338 0 0 0
34.15663 197.74399 0 0 0
34.16543 209.33781 0 0 0
34.17423 211.04504 0 0 0
34.18303 201.70731 0 0 0
34.19183 195.58406 0 0 0
34.20064 208.36484 0 0 0
34.20944 213.44939 0 0 0
34.21824 212.34647 0 0 0
34.22704 211.56346 0 0 0
34.23584 204.26448 0 0 0
34.24465 198.81664 0 0 0
34.25345 203.7067 0 0 0
34.26225 208.01276 0 0 0
34.27105 211.00537 0 0 0
34.27986 217.11926 0 0 0
34.28866 212.83574 0 0 0
34.29746 204.58424 0 0 0
34.30626 198.70111 0 0 0
34.31506 186.7305 0 0 0
34.32387 202.16437 0 0 0
34.33267 211.9642 0 0 0
34.34147 213.36917 0 0 0
34.35027 205.41351 0 0 0
34.35907 198.43245 0 0 0
34.36788 203.3703 0 0 0
34.37668 208.40617 0 0 0
34.38548 214.21803 0 0 0
34.39428 212.58118 0 0 0
34.40308 214.88866 0 0 0
34.41189 214.60857 0 0 0
34.42069 207.0173 0 0 0
34.42949 202.25224 0 0 0
34.43829 198.66182 0 0 0
34.44710 201.68936 0 0 0
34.45590 203.81201 0 0 0
34.46470 206.94772 0 0 0
34.47350 216.71216 0 0 0
34.48230 217.41965 0 0 0
34.49111 215.51128 0 0 0
34.49991 213.14783 0 0 0
34.50871 213.01527 0 0 0
34.51751 205.66287 0 0 0
34.52631 195.60046 0 0 0
34.53512 202.56949 0 0 0
34.54392 206.8647 0 0 0
34.55272 213.98212 0 0 0
34.56152 219.75664 0 0 0
34.57033 213.52391 0 0 0
34.57913 202.17856 0 0 0
34.58793 201.73566 0 0 0
34.59673 204.52904 0 0 0
34.60553 205.73389 0 0 0
34.61434 201.90143 0 0 0
34.62314 211.2426 0 0 0
34.63194 214.25099 0 0 0
34.64074 207.81303 0 0 0
34.64954 198.25287 0 0 0
34.65835 196.22932 0 0 0
34.66715 204.48323 0 0 0
34.67595 215.12207 0 0 0
34.68475 200.34093 0 0 0
34.69355 190.61642 0 0 0
34.70236 193.30804 0 0 0
34.71116 195.68875 0 0 0
34.71996 206.53178 0 0 0
34.72876 218.0359 0 0 0
34.73757 205.80197 0 0 0
34.74637 203.6324 0 0 0
34.75517 212.22218 0 0 0
34.76397 202.2177 0 0 0
34.77277 192.15602 0 0 0
34.78158 179.26105 0 0 0
34.79038 197.90556 0 0 0
34.79918 216.33095 0 0 0
34.80798 217.80537 0 0 0
34.81678 203.53833 0 0 0
34.82559 203.16113 0 0 0
34.83439 211.60715 0 0 0
34.84319 194.31726 0 0 0
34.85199 173.78868 0 0 0
34.86079 176.14064 0 0 0
34.86960 198.12627 0 0 0
34.87840 205.30415 0 0 0
34.88720 183.01541 0 0 0
34.89600 184.13409 0 0 0
34.90481 187.49982 0 0 0
34.91361 210.94772 0 0 0
34.92241 213.95883 0 0 0
34.93121 212.7661 0 0 0
34.94001 218.55975 0 0 0
34.94882 218.80724 0 0 0
34.95762 213.80035 0 0 0
34.96642 210.96149 0 0 0
34.97522 212.97971 0 0 0
34.98402 212.16232 0 0 0
34.99283 208.06824 0 0 0
35.00163 207.25722 0 0 0
35.01043 208.31638 0 0 0
35.01923 209.95157 0 0 0
35.02804 211.90083 0 0 0
35.03684 210.02353 0 0 0
35.04564 202.75928 0 0 0
35.05444 205.11824 0 0 0
35.06324 212.80656 0 0 0
35.07205 211.18062 0 0 0
35.08085 201.46068 0 0 0
35.08965 200.18391 0 0 0
35.09845 203.39186 0 0 0
35.10725 201.35805 0 0 0
35.11606 195.51189 0 0 0
35.12486 198.6909 0 0 0
35.13366 214.57098 0 0 0
35.14246 218.79665 0 0 0
35.15126 212.29727 0 0 0
35.16007 205.73442 0 0 0
35.16887 204.32521 0 0 0
35.17767 208.79582 0 0 0
35.18647 213.8922 0 0 0
35.19528 214.23019 0 0 0
35.20408 208.38385 0 0 0
loop_
_gsas_i100_meas
2.04
23.65
5.71
2.92
4.56
1.61
60.86
17.02
30.46
100.00
36.59
20.35
0.19
0.53
17.75
84.51
0.45
52.96
30.11
40.38
7.46
0.54
2.43
9.20
1.55
45.38
6.54
33.51
8.35
0.67
4.24
0.45
0.00
7.84
1.38
0.17
2.78
2.66
11.89
25.81
16.85
4.43
8.50
0.06
2.31
0.05
0.33
0.86
20.18
0.22
5.34
7.99
10.05
0.75
4.30
8.28
0.95
9.48
6.14
0.00
10.83
28.80
0.55
0.01
4.66
1.53
3.43
3.91
0.88
0.02
2.47
1.28
2.03
7.03
0.93
2.85
0.10
5.09
3.88
0.23
1.39
3.86
0.01
5.03
0.07
10.34
26.80
12.82
2.86
0.33
1.77
4.68
2.05
0.35
0.66
2.21
8.74
0.65
1.90
4.48
0.23
0.10
1.59
1.37
0.14
0.40
12.05
0.60
3.14
6.88
14.39
0.59
3.39
9.19
3.96
5.35
0.39
0.22
0.00
0.78
1.39
0.17
0.27
3.68
0.01
1.82
12.93
1.11
3.01
0.13
0.26
0.45
0.04
0.04
2.18
4.03
0.62
0.18
0.08
0.22
1.21
0.34
0.24
9.81
10.68
0.16
0.74
0.06
0.00
5.16
1.22
2.82
0.04
0.28
0.46
2.08
0.71
4.48
6.74
0.03
1.58
5.35
0.43
0.25
1.08
1.56
0.00
0.57
0.04
3.20
1.56
1.13
1.28
0.01
0.46
0.05
0.24
0.47
0.57
0.03
0.08
0.62
