#------------------------------------------------------------------------------
#$Date: 2021-02-05 01:04:31 +0200 (Fri, 05 Feb 2021) $
#$Revision: 261628 $
#$URL: file:///home/coder/svn-repositories/cod/cif/7/24/18/7241824.cif $
#------------------------------------------------------------------------------
#
# This file is available in the Crystallography Open Database (COD),
# http://www.crystallography.net/
#
# All data on this site have been placed in the public domain by the
# contributors.
#
data_7241824
loop_
_publ_author_name
'Gu\'nka, Piotr A.'
'Hanfland, Michael'
'Chen, Yu-Sheng'
'Zachara, Janusz'
_publ_section_title
;
 High-pressure and low-temperature structural study of claudetite I, a
 monoclinic layered As2O3 polymorph
;
_journal_issue                   3
_journal_name_full               CrystEngComm
_journal_page_first              638
_journal_page_last               644
_journal_paper_doi               10.1039/D0CE01401J
_journal_volume                  23
_journal_year                    2021
_chemical_formula_moiety         'As2 O3'
_chemical_formula_sum            'As2 O3'
_chemical_formula_weight         197.84
_chemical_name_common            'claudetite I'
_chemical_name_systematic
;
arsenic(III) oxide
;
_space_group_IT_number           14
_space_group_name_Hall           '-P 2yn'
_space_group_name_H-M_alt        'P 1 21/n 1'
_symmetry_cell_setting           monoclinic
_symmetry_space_group_name_H-M   'P 1 21/n 1'
_audit_creation_date             2020-10-21T11:02
_audit_creation_method           'created in GSAS-II'
_audit_update_record
;
2020-10-22 deposited with the CCDC.	2020-12-10 downloaded from the CCDC.
;
_cell_angle_alpha                90
_cell_angle_beta                 94.2890(21)
_cell_angle_gamma                90
_cell_formula_units_Z            4
_cell_length_a                   5.32240(25)
_cell_length_b                   12.94547(19)
_cell_length_c                   4.53602(17)
_cell_measurement_pressure       1.00e5(5)
_cell_measurement_temperature    293
_cell_volume                     311.661(19)
_computing_data_reduction        Fit2D
_computing_structure_refinement
'GSAS-II (Toby & Von Dreele, J. Appl. Cryst. 46, 544-549, 2013)'
_diffrn_ambient_pressure         1.00e5(5)
_diffrn_ambient_temperature      293
_diffrn_detector                 'Mar555 flat panel'
_diffrn_detector_type            'Mar555 flat panel'
_diffrn_measurement_device_type  'ESRF ID09A beamline'
_diffrn_radiation_monochromator  Si
_diffrn_radiation_polarisn_ratio 0.9900
_diffrn_radiation_probe          x-ray
_diffrn_radiation_wavelength     0.41421
_diffrn_source                   'ESRF ID09A'
_diffrn_source_type              synchrotron
_exptl_crystal_colour            colourless
_exptl_crystal_density_diffrn    4.2164
_exptl_crystal_description       'white powder'
_pd_block_id                     2020-10-21T11:02|clau1_002rietveld||id09b
_pd_calc_method                  'Rietveld Refinement'
_pd_meas_number_of_points        4000
_pd_phase_name                   claudetiteI
_pd_prep_pressure                100.0(1)
_pd_prep_temperature             293
_pd_proc_info_datetime           2020-10-21T11:02
_pd_proc_ls_background_function
;
Background function: "chebyschev" function with 15 terms:
    719.6(14), 433(5), 267(14), -840(16), -3.24(3)e3, 2265(6), 
    13898(8), -733(15), -31186(26), -6949(13), 38018(31), 10611(3), 
    -23754(9), -4528(21), 5.92(4)e3, 
;
_pd_proc_ls_pref_orient_corr
;
Simple spherical harmonic correction Order = 6
    Coefficients:  0:0:C(4,4) = 0.339(15); 0:0:C(6,6) = 0.050(16); 
    0:0:C(6,-2) = 0.185(18); 0:0:C(2,-2) = 0.079(10); 0:0:C(4,-4) = -0.296(14); 
    0:0:C(2,2) = -0.232(10); 0:0:C(4,0) = -0.093(13); 0:0:C(6,-6) = 0.592(19); 
    0:0:C(6,4) = 0.183(19); 0:0:C(4,2) = -0.170(15); 0:0:C(6,2) = -0.150(16); 
    0:0:C(6,-4) = -0.301(17); 0:0:C(6,0) = -0.165(17); 0:0:C(2,0) = 0.418(11); 
    0:0:C(4,-2) = -0.176(13); 
;
_pd_proc_ls_profile_function
;
Finger-Cox-Jephcoat function parameters U, V, W, X, Y, SH/L:
  peak variance(Gauss) = Utan(Th)^2^+Vtan(Th)+W:
  peak HW(Lorentz) = X/cos(Th)+Ytan(Th); SH/L = S/L+H/L
  U, V, W in (centideg)^2^, X & Y in centideg
    95(27), -9(5), 1.45(21), 0.07(8), 12.8(22), 0.002, 
  Crystallite size in microns with "isotropic" model:
  parameters: Size, G/L mix
    1.000, 1.000, 
  Microstrain, "isotropic" model (10^6^ * delta Q/Q)
    parameters: Mustrain, G/L mix
    1000.000, 1.000, 

;
_pd_proc_ls_prof_R_factor        0.01733
_pd_proc_ls_prof_wR_expected     0.03490
_pd_proc_ls_prof_wR_factor       0.02758
_refine_ls_goodness_of_fit_all   0.815
_refine_ls_matrix_type           full
_refine_ls_number_parameters     57
_refine_ls_R_Fsqd_factor         0.11010
_refine_ls_shift/su_max          0.0022
_refine_ls_wR_factor_obs         0.02807
_reflns_d_resolution_high        1.103
_reflns_d_resolution_low         6.473
_reflns_limit_h_max              4
_reflns_limit_h_min              0
_reflns_limit_k_max              11
_reflns_limit_k_min              0
_reflns_limit_l_max              4
_reflns_limit_l_min              -4
_reflns_number_total             243
_cod_data_source_file            d0ce01401j3.cif
_cod_data_source_block           clau1_002rietveld
_cod_depositor_comments
'Adding full bibliography for 7241824--7241862.cif.'
_cod_original_cell_volume        311.661(8)
_cod_database_code               7241824
_refine_ls_r_f_factor            0.05597
_gsas_proc_ls_prof_r_b_factor    0.03199
_gsas_proc_ls_prof_wr_b_factor   0.04683
loop_
_space_group_symop_id
_space_group_symop_operation_xyz
1 x,y,z
2 1/2-x,1/2+y,1/2-z
3 -x,-y,-z
4 1/2+x,1/2-y,1/2+z
loop_
_atom_site_label
_atom_site_type_symbol
_atom_site_fract_x
_atom_site_fract_y
_atom_site_fract_z
_atom_site_occupancy
_atom_site_adp_type
_atom_site_U_iso_or_equiv
_atom_site_symmetry_multiplicity
As1 As 0.2552(6) 0.10103(17) 0.0459(7) 1.000 Uiso 0.0100(12) 4
As2 As 0.3577(5) 0.34869(18) 0.0046(7) 1.000 Uiso 0.0100 4
O3 O 0.4472(19) 0.2182(5) 0.065(4) 1.000 Uiso 0.0100 4
O4 O 0.6464(17) 0.3948(8) 0.1664(19) 1.000 Uiso 0.0100 4
O5 O -0.0406(19) 0.1538(9) 0.1457(22) 1.000 Uiso 0.0100 4
loop_
_atom_type_symbol
_atom_type_number_in_cell
_atom_type_scat_Cromer_Mann_a1
_atom_type_scat_Cromer_Mann_a2
_atom_type_scat_Cromer_Mann_a3
_atom_type_scat_Cromer_Mann_a4
_atom_type_scat_Cromer_Mann_b1
_atom_type_scat_Cromer_Mann_b2
_atom_type_scat_Cromer_Mann_b3
_atom_type_scat_Cromer_Mann_b4
_atom_type_scat_Cromer_Mann_c
_atom_type_scat_length_neutron
_atom_type_scat_source
_atom_type_scat_dispersion_real
_atom_type_scat_dispersion_imag
_atom_type_scat_dispersion_source
As 8 16.6723 6.0701 3.4313 4.2779 2.6345 0.2647 12.9479 47.7972 2.531 0.658
https://subversion.xray.aps.anl.gov/pyGSAS/trunk/atmdata.py 0.283 0.775
https://subversion.xray.aps.anl.gov/pyGSAS/trunk/atmdata.py
O 12 3.0485 2.2868 1.5463 0.867 13.2771 5.7011 0.3239 32.9089 0.2508 0.5805
https://subversion.xray.aps.anl.gov/pyGSAS/trunk/atmdata.py 0.002 0.002
https://subversion.xray.aps.anl.gov/pyGSAS/trunk/atmdata.py
loop_
_geom_angle_atom_site_label_1
_geom_angle_atom_site_label_2
_geom_angle_atom_site_label_3
_geom_angle
_geom_angle_site_symmetry_1
_geom_angle_site_symmetry_2
_geom_angle_site_symmetry_3
_geom_angle_publ_flag
O3 As1 O4 99.3(7) 1_555 1_555 4_454 yes
O3 As1 O5 99.7(6) 1_555 1_555 1_555 yes
O4 As1 O5 90.3(5) 4_454 1_555 1_555 yes
O3 As2 O4 92.4(5) 1_555 1_555 1_555 yes
O3 As2 O5 91.6(7) 1_555 1_555 4_554 yes
O4 As2 O5 94.2(4) 1_555 1_555 4_554 yes
As1 O3 As2 129.9(6) 1_555 1_555 1_555 yes
As1 O4 As2 128.8(6) 4_555 1_555 1_555 yes
As1 O5 As2 124.2(6) 1_555 1_555 4_455 yes
loop_
_geom_bond_atom_site_label_1
_geom_bond_atom_site_label_2
_geom_bond_distance
_geom_bond_site_symmetry_1
_geom_bond_site_symmetry_2
_geom_bond_publ_flag
As1 O3 1.827(7) 1_555 1_555 yes
As1 O4 1.775(7) 1_555 4_454 yes
As1 O5 1.805(7) 1_555 1_555 yes
As2 O3 1.771(7) 1_555 1_555 yes
As2 O4 1.758(6) 1_555 1_555 yes
As2 O5 1.754(7) 1_555 4_554 yes
loop_
_pd_meas_2theta_scan
_pd_meas_intensity_total
_pd_calc_intensity_total
_pd_proc_intensity_bkg_calc
_pd_proc_ls_weight
0.00440 112.48222 0 0 0
0.01321 116.30567 0 0 0
0.02202 111.30463 0 0 0
0.03083 108.51447 0 0 0
0.03963 110.3642 0 0 0
0.04844 110.79842 0 0 0
0.05725 108.39515 0 0 0
0.06605 109.88969 0 0 0
0.07486 110.47028 0 0 0
0.08367 109.18808 0 0 0
0.09248 107.97395 0 0 0
0.10128 106.85294 0 0 0
0.11009 106.69209 0 0 0
0.11890 105.95932 0 0 0
0.12770 106.75715 0 0 0
0.13651 105.65688 0 0 0
0.14532 104.47795 0 0 0
0.15413 102.01604 0 0 0
0.16293 101.06598 0 0 0
0.17174 101.83437 0 0 0
0.18055 102.71764 0 0 0
0.18935 103.09509 0 0 0
0.19816 102.49524 0 0 0
0.20697 102.71703 0 0 0
0.21578 103.62587 0 0 0
0.22458 104.33103 0 0 0
0.23339 104.41171 0 0 0
0.24220 104.30595 0 0 0
0.25100 105.43118 0 0 0
0.25981 105.17514 0 0 0
0.26862 104.57137 0 0 0
0.27743 104.971 0 0 0
0.28623 106.49978 0 0 0
0.29504 108.76981 0 0 0
0.30385 109.37727 0 0 0
0.31265 111.34004 0 0 0
0.32146 112.17069 0 0 0
0.33027 112.7641 0 0 0
0.33908 112.7595 0 0 0
0.34788 113.7769 0 0 0
0.35669 113.19993 0 0 0
0.36550 111.53065 0 0 0
0.37430 110.39194 0 0 0
0.38311 110.13676 0 0 0
0.39192 109.50337 0 0 0
0.40073 109.22469 0 0 0
0.40953 108.58839 0 0 0
0.41834 109.37825 0 0 0
0.42715 109.45313 0 0 0
0.43595 109.98988 0 0 0
0.44476 109.73452 0 0 0
0.45357 110.22009 0 0 0
0.46238 110.19973 0 0 0
0.47118 109.77168 0 0 0
0.47999 109.26047 0 0 0
0.48880 110.64912 0 0 0
0.49760 111.40394 0 0 0
0.50641 110.3673 0 0 0
0.51522 108.53237 0 0 0
0.52403 107.45467 0 0 0
0.53283 107.65173 0 0 0
0.54164 108.51413 0 0 0
0.55045 109.64779 0 0 0
0.55925 110.70145 0 0 0
0.56806 109.85759 0 0 0
0.57687 109.35724 0 0 0
0.58568 109.44918 0 0 0
0.59448 109.28895 0 0 0
0.60329 108.91742 0 0 0
0.61210 109.0974 0 0 0
0.62091 109.73083 0 0 0
0.62971 109.71072 0 0 0
0.63852 109.24915 0 0 0
0.64733 109.77335 0 0 0
0.65613 109.79389 0 0 0
0.66494 108.79398 0 0 0
0.67375 108.7117 0 0 0
0.68256 109.52682 0 0 0
0.69136 110.09549 0 0 0
0.70017 109.92444 0 0 0
0.70898 110.03132 0 0 0
0.71778 110.66582 0 0 0
0.72659 111.20568 0 0 0
0.73540 110.07769 0 0 0
0.74421 109.37204 0 0 0
0.75301 109.73442 0 0 0
0.76182 110.45668 0 0 0
0.77063 110.96053 0 0 0
0.77943 111.16006 0 0 0
0.78824 111.17166 0 0 0
0.79705 111.36613 0 0 0
0.80586 113.1573 0 0 0
0.81466 113.98482 0 0 0
0.82347 114.46471 0 0 0
0.83228 113.88754 0 0 0
0.84108 113.91002 0 0 0
0.84989 114.84789 0 0 0
0.85870 115.80869 0 0 0
0.86751 116.13934 0 0 0
0.87631 114.85296 0 0 0
0.88512 114.72288 0 0 0
0.89393 116.18875 0 0 0
0.90273 118.77361 0 0 0
0.91154 119.95021 0 0 0
0.92035 120.64028 0 0 0
0.92916 121.44234 0 0 0
0.93796 122.21942 0 0 0
0.94677 123.8651 0 0 0
0.95558 125.81299 0 0 0
0.96438 126.11246 0 0 0
0.97319 126.72291 0 0 0
0.98200 128.96698 0 0 0
0.99081 133.74268 0 0 0
0.99961 135.61382 0 0 0
1.00842 141.97896 0 0 0
1.01723 146.29048 0 0 0
1.02603 150.74579 0 0 0
1.03484 158.77386 0 0 0
1.04365 167.86676 0 0 0
1.05246 176.43437 0 0 0
1.06126 180.81412 0 0 0
1.07007 190.27771 0 0 0
1.07888 194.45973 0 0 0
1.08768 199.31361 0 0 0
1.09649 205.02046 0 0 0
1.10530 213.57292 0 0 0
1.11411 221.51949 0 0 0
1.12291 228.07314 0 0 0
1.13172 233.59694 0 0 0
1.14053 238.03165 0 0 0
1.14933 241.86369 0 0 0
1.15814 245.4321 0 0 0
1.16695 247.1245 0 0 0
1.17576 248.19524 0 0 0
1.18456 250.17017 0 0 0
1.19337 253.22296 0 0 0
1.20218 254.91165 0 0 0
1.21099 256.15219 0 0 0
1.21979 257.84891 0 0 0
1.22860 260.30896 0 0 0
1.23741 263.19458 0 0 0
1.24621 265.57394 0 0 0
1.25502 267.08829 0 0 0
1.26383 267.8197 0 0 0
1.27264 269.61649 0 0 0
1.28144 270.29715 0 0 0
1.29025 272.311 0 0 0
1.29906 274.14996 0 0 0
1.30786 277.36865 0 0 0
1.31667 279.46997 0 0 0
1.32548 280.49225 0 0 0
1.33429 281.17572 0 0 0
1.34309 282.65219 0 0 0
1.35190 284.97284 0 0 0
1.36071 287.26523 0 0 0
1.36951 288.86255 0 0 0
1.37832 289.75226 0 0 0
1.38713 289.83444 0 0 0
1.39594 291.57071 0 0 0
1.40474 293.66415 0 0 0
1.41355 294.58304 0 0 0
1.42236 295.41147 0 0 0
1.43116 296.92767 0 0 0
1.43997 298.42892 0 0 0
1.44878 299.25137 0 0 0
1.45759 301.01144 0 0 0
1.46639 301.46603 0 0 0
1.47520 302.75183 0 0 0
1.48401 303.72531 0 0 0
1.49281 304.99078 0 0 0
1.50162 306.4194 0 0 0
1.51043 308.37457 0 0 0
1.51924 309.50891 0 0 0
1.52804 308.82486 0 0 0
1.53685 309.07251 0 0 0
1.54566 310.36349 0 0 0
1.55446 311.29724 0 0 0
1.56327 310.98633 0 0 0
1.57208 311.56879 0 0 0
1.58089 313.2175 0 0 0
1.58969 315.29944 0 0 0
1.59850 316.6254 0 0 0
1.60731 317.08685 0 0 0
1.61611 317.50778 0 0 0
1.62492 319.25604 0 0 0
1.63373 320.22104 0 0 0
1.64254 320.80334 0 0 0
1.65134 320.57755 0 0 0
1.66015 321.83273 0 0 0
1.66896 323.98242 0 0 0
1.67776 324.97598 0 0 0
1.68657 324.95621 0 0 0
1.69538 325.2583 0 0 0
1.70419 326.51965 0 0 0
1.71299 327.61151 0 0 0
1.72180 328.34949 0 0 0
1.73061 328.1651 0 0 0
1.73941 328.44974 0 0 0
1.74822 329.31335 0 0 0
1.75703 331.11179 0 0 0
1.76584 332.08939 0 0 0
1.77464 332.47668 0 0 0
1.78345 332.48825 0 0 0
1.79226 332.80817 0 0 0
1.80107 333.64688 0 0 0
1.80987 335.25604 0 0 0
1.81868 336.46991 0 0 0
1.82749 336.05246 0 0 0
1.83629 336.81342 0 0 0
1.84510 338.09167 0 0 0
1.85391 339.64178 0 0 0
1.86272 340.40958 0 0 0
1.87152 340.4422 0 0 0
1.88033 340.82239 0 0 0
1.88914 341.90329 0 0 0
1.89794 342.03806 0 0 0
1.90675 341.92096 0 0 0
1.91556 342.67264 0 0 0
1.92437 343.83743 0 0 0
1.93317 345.23264 0 0 0
1.94198 346.16861 0 0 0
1.95079 345.96115 0 0 0
1.95959 345.43555 0 0 0
1.96840 347.08267 0 0 0
1.97721 348.39752 0 0 0
1.98602 349.25174 0 0 0
1.99482 349.65558 0 0 0
2.00363 350.60266 0 0 0
2.01244 350.61923 0 0 0
2.02124 351.10455 0 0 0
2.03005 351.4133 0 0 0
2.03886 352.40396 0 0 0
2.04767 352.57147 0 0 0
2.05647 354.16302 0 0 0
2.06528 355.35641 0 0 0
2.07409 355.8226 0 0 0
2.08289 355.44519 0 0 0
2.09170 355.90472 0 0 0
2.10051 356.39951 0 0 0
2.10932 357.71939 0 0 0
2.11812 358.26569 0 0 0
2.12693 359.42377 0 0 0
2.13574 360.08398 0 0 0
2.14454 359.97128 0 0 0
2.15335 360.29861 0 0 0
2.16216 360.13913 0 0 0
2.17097 360.02911 0 0 0
2.17977 360.40091 0 0 0
2.18858 361.35706 0 0 0
2.19739 362.79147 0 0 0
2.20619 363.00452 0 0 0
2.21500 363.20416 0 0 0
2.22381 364.30927 0 0 0
2.23262 364.77844 0 0 0
2.24142 365.24051 0 0 0
2.25023 367.31784 0 0 0
2.25904 368.50739 0 0 0
2.26784 368.14899 0 0 0
2.27665 367.16666 0 0 0
2.28546 366.56 0 0 0
2.29427 366.98718 0 0 0
2.30307 367.21689 0 0 0
2.31188 368.17081 0 0 0
2.32069 368.74326 0 0 0
2.32950 369.60309 0 0 0
2.33830 370.52563 0 0 0
2.34711 371.6539 0 0 0
2.35592 372.46909 0 0 0
2.36472 372.74655 0 0 0
2.37353 373.0892 0 0 0
2.38234 373.79782 0 0 0
2.39115 374.01367 0 0 0
2.39995 373.76001 0 0 0
2.40876 373.18982 0 0 0
2.41757 373.67429 378.871918 378.842516 0.002676127
2.42637 374.86856 378.870354 378.840532 0.002667602
2.43518 376.57489 378.889174 378.858924 0.002655514
2.44399 376.77969 378.927756 378.897069 0.002654071
2.45280 376.82166 378.985489 378.954355 0.002653775
2.46160 377.48538 379.061776 379.030185 0.002649109
2.47041 377.90826 379.156032 379.123974 0.002646145
2.47922 378.11084 379.267683 379.235148 0.002644727
2.48802 378.8204 379.396165 379.363142 0.002639773
2.49683 379.5433 379.540937 379.507415 0.002634745
2.50564 379.95276 379.701459 379.667427 0.002631906
2.51445 379.95642 379.877203 379.842648 0.002631881
2.52325 379.99768 380.067658 380.032569 0.002631595
2.53206 380.81665 380.27232 380.236684 0.002625936
2.54087 381.2916 380.490698 380.454502 0.002622665
2.54967 381.58624 380.722309 380.685541 0.00262064
2.55848 381.51175 380.966685 380.929329 0.002621151
2.56729 381.85858 381.223361 381.185404 0.002618771
2.57610 383.07483 381.491894 381.453322 0.002610456
2.58490 383.5723 381.771842 381.732639 0.00260707
2.59371 384.21545 382.062775 382.022926 0.002602706
2.60252 385.40637 382.364273 382.323762 0.002594664
2.61132 385.7666 382.675916 382.634726 0.002592241
2.62013 386.20389 382.997325 382.955439 0.002589306
2.62894 386.28513 383.328096 383.285496 0.002588761
2.63775 386.42645 383.66785 383.624517 0.002587815
2.64655 386.76382 384.016207 383.972123 0.002585557
2.65536 386.4635 384.372813 384.327958 0.002587566
2.66417 386.46521 384.737306 384.69166 0.002587555
2.67297 387.27985 385.109342 385.062882 0.002582112
2.68178 387.60672 385.48858 385.441286 0.002579935
2.69059 387.34171 385.87469 385.826539 0.0025817
2.69940 387.46066 386.267347 386.218315 0.002580907
2.70820 388.18167 386.666243 386.616306 0.002576113
2.71701 388.26431 387.07107 387.020202 0.002575565
2.72582 388.74841 387.481527 387.429703 0.002572358
2.73462 389.32642 387.89731 387.844502 0.002568539
2.74343 390.04016 388.318163 388.264343 0.002563839
2.75224 390.21814 388.743797 388.688934 0.002562669
2.76105 390.77945 389.173941 389.118006 0.002558988
2.76985 391.5899 389.608334 389.551295 0.002553692
2.77866 391.99615 390.046715 389.988539 0.002551045
2.78747 391.31955 390.488847 390.4295 0.002555456
2.79627 392.11627 390.934482 390.873928 0.002550264
2.80508 393.5798 391.415756 391.321588 0.002540781
2.81389 394.11267 391.867983 391.772249 0.002537345
2.82270 393.82028 392.323027 392.225682 0.002539229
2.83150 394.01343 392.780681 392.681681 0.002537985
2.84031 395.00259 393.240731 393.140027 0.002531629
2.84912 395.06912 393.702973 393.600516 0.002531203
2.85792 395.09329 394.167195 394.062932 0.002531048
2.86673 395.58722 394.633234 394.527113 0.002527888
2.87554 395.63208 395.100889 394.992853 0.002527601
2.88435 396.31039 395.56998 395.45997 0.002523275
2.89315 396.85013 396.040332 395.928286 0.002519843
2.90196 397.24286 396.511769 396.397624 0.002517352
2.91077 397.03461 396.984138 396.867827 0.002518672
2.91958 397.43475 397.457274 397.338727 0.002516136
2.92838 398.52789 397.931024 397.810167 0.002509235
2.93719 399.83649 398.405238 398.281996 0.002501022
2.94600 400.12573 398.879773 398.754065 0.002499214
2.95480 400.28265 399.354484 399.226226 0.002498235
2.96361 399.9902 399.829249 399.698353 0.002500061
2.97242 400.21228 400.303921 400.170295 0.002498674
2.98123 400.13202 400.778397 400.641944 0.002499175
2.99003 399.65323 401.252542 401.113159 0.002502169
2.99884 399.83798 401.726251 401.583831 0.002501013
3.00765 401.03128 402.199407 402.053838 0.002493571
3.01645 401.11267 402.671903 402.523067 0.002493065
3.02526 401.36731 403.143639 402.991409 0.002491483
3.03407 402.47757 403.61451 403.458755 0.002484611
3.04288 403.98859 404.084434 403.925015 0.002475317
3.05168 404.65985 404.553317 404.390086 0.002471211
3.06049 404.90927 405.021072 404.853875 0.002469689
3.06930 404.42014 405.48762 405.316293 0.002472676
3.07810 403.7175 405.952884 405.777252 0.00247698
3.08691 404.14752 406.416787 406.236666 0.002474344
3.09572 404.92276 406.879259 406.694453 0.002469607
3.10453 405.46954 407.340253 407.150555 0.002466277
3.11333 405.26843 407.799693 407.604882 0.0024675
3.12214 406.18411 408.257533 408.057375 0.002461938
3.13095 406.84558 408.713717 408.507963 0.002457935
3.13975 406.99243 409.168198 408.95658 0.002457048
3.14856 407.24417 409.620932 409.403166 0.002455529
3.15737 407.44122 410.071882 409.847665 0.002454342
3.16618 407.95477 410.521007 410.290014 0.002451252
3.17498 407.80722 410.96829 410.730172 0.002452139
3.18379 408.09833 411.413699 411.168085 0.00245039
3.19260 408.31299 411.857216 411.603704 0.002449102
3.20140 407.85391 412.298827 412.036987 0.002451858
3.21021 407.77411 412.738521 412.467889 0.002452338
3.21902 407.58331 413.176281 412.896358 0.002453486
3.22783 407.49063 413.61214 413.322385 0.002454044
3.23663 407.83469 414.046091 413.745921 0.002451974
3.24544 410.00888 414.478146 414.166928 0.002438972
3.25425 411.66467 414.908338 414.585385 0.002429162
3.26305 412.19507 415.336694 415.001259 0.002426036
3.27186 412.11365 415.763253 415.414524 0.002426515
3.28067 412.31427 416.188066 415.825157 0.002425334
3.28948 412.61801 416.611193 416.233133 0.002423549
3.29828 412.75839 417.032703 416.63843 0.002422725
3.30709 412.82318 417.452691 417.041037 0.002422345
3.31590 412.93835 417.871252 417.440934 0.002421669
3.32470 413.38403 418.288506 417.838105 0.002419058
3.33351 413.23022 418.704589 418.232539 0.002419959
3.34232 413.25909 419.119648 418.62421 0.002419789
3.35113 413.94754 419.533894 419.013135 0.002415765
3.35993 414.59723 419.947531 419.399294 0.002411979
3.36874 415.50534 420.360808 419.782679 0.002406708
3.37755 416.07568 420.77401 420.163281 0.002403409
3.38635 416.49924 421.187488 420.541107 0.002400965
3.39516 416.60046 421.601634 420.916148 0.002400381
3.40397 416.94803 422.016912 421.288406 0.00239838
3.41278 416.94635 422.433874 421.65788 0.00239839
3.42158 417.46585 422.853167 422.024573 0.002395406
3.43039 417.74084 423.275559 422.388484 0.002393829
3.43920 417.81732 423.701988 422.749626 0.00239339
3.44801 418.07834 424.133557 423.108001 0.002391896
3.45681 418.63071 424.571617 423.463615 0.00238874
3.46562 419.40518 425.017802 423.816465 0.002384329
3.47443 420.15005 425.480341 424.166583 0.002380102
3.48323 420.26089 425.949441 424.513969 0.002379474
3.49204 420.50439 426.434375 424.858634 0.002378096
3.50085 420.68771 426.939154 425.200589 0.00237706
3.50966 421.32834 427.468891 425.539845 0.002373446
3.51846 421.92389 428.030262 425.876422 0.002370096
3.52727 422.34335 428.632053 426.210333 0.002367742
3.53608 423.21033 429.285996 426.541593 0.002362891
3.54488 423.61053 430.008113 426.87022 0.002360659
3.55369 424.78412 430.820684 427.196226 0.002354137
3.56250 425.65994 431.755337 427.519638 0.002349293
3.57131 427.41455 432.858265 427.840471 0.002339649
3.58011 429.26352 434.198862 428.158737 0.002329571
3.58892 431.12531 435.885091 428.474469 0.002319511
3.59773 433.93143 438.092885 428.787687 0.002304512
3.60653 438.1496 441.142292 429.09841 0.002282325
3.61534 447.38004 445.859897 429.406659 0.002235236
3.62415 467.46854 455.537653 429.712458 0.002139181
3.63296 508.64386 482.831443 430.015831 0.001966012
3.64176 625.05249 558.847089 430.316798 0.001599866
3.65057 831.89264 714.793115 430.61539 0.001202078
3.65938 1075.6227 910.292943 430.91163 0.000929694
3.66818 1083.4489 979.838695 431.205542 0.000922978
3.67699 890.82428 835.838358 431.497154 0.001122556
3.68580 658.60846 643.814208 431.786487 0.001518353
3.69461 530.88635 521.756458 432.073577 0.001883642
3.70341 485.63205 470.70454 432.358439 0.002059172
3.71222 470.47076 453.671756 432.641114 0.002125531
3.72103 461.78925 447.33409 432.921622 0.00216549
3.72983 458.22253 444.051983 433.199996 0.002182346
3.73864 453.66064 441.986891 433.476262 0.002204291
3.74745 448.5162 440.607805 433.750448 0.002229574
3.75626 443.94589 439.66894 434.022584 0.002252527
3.76506 440.62915 439.026905 434.292696 0.002269482
3.77387 438.698 438.591717 434.56082 0.002279472
3.78268 437.12378 438.304704 434.826982 0.002287682
3.79148 436.69791 438.126401 435.091213 0.002289912
3.80029 436.29224 438.029421 435.353543 0.002292042
3.80910 436.32217 437.994387 435.614001 0.002291884
3.81791 436.20172 438.007219 435.872616 0.002292517
3.82671 436.50336 438.057534 436.129419 0.002290933
3.83552 435.8725 438.137541 436.384448 0.002294249
3.84433 436.00082 438.2413 436.637725 0.002293574
3.85313 436.71951 438.364223 436.889288 0.002289799
3.86194 437.2012 438.502717 437.139165 0.002287276
3.87075 437.25467 438.653956 437.387387 0.002286997
3.87956 436.91663 438.815674 437.633984 0.002288766
3.88836 436.47037 438.986051 437.878988 0.002291106
3.89717 436.20218 439.163612 438.122427 0.002292515
3.90598 436.5892 439.347155 438.364339 0.002290483
3.91478 437.12128 439.535681 438.604751 0.002287695
3.92359 436.93588 439.728374 438.843695 0.002288665
3.93240 436.15192 439.924549 439.081201 0.002292779
3.94121 436.91132 440.123638 439.317302 0.002288794
3.95001 437.31607 440.325154 439.55202 0.002286676
3.95882 437.48035 440.52871 439.785401 0.002285817
3.96763 437.52597 440.733958 440.01747 0.002285579
3.97643 438.34604 440.94061 440.248255 0.002281303
3.98524 438.60886 441.148424 440.47779 0.002279936
3.99405 438.60587 441.357196 440.706106 0.002279951
4.00286 438.85614 441.566751 440.933236 0.002278651
4.01166 438.45407 441.776922 441.15919 0.002280741
4.02047 437.46597 441.98761 441.384027 0.002285892
4.02928 436.91705 442.198698 441.607766 0.002288764
4.03808 438.07187 442.410095 441.830437 0.00228273
4.04689 438.47552 442.621728 442.052069 0.002280629
4.05570 439.30978 442.833532 442.27269 0.002276298
4.06451 439.40015 443.045459 442.492335 0.00227583
4.07331 440.10291 443.257467 442.71103 0.002272196
4.08212 440.11734 443.469523 442.928806 0.002272121
4.09093 439.98187 443.681601 443.145691 0.002272821
4.09974 440.28519 443.893682 443.361714 0.002271255
4.10854 441.18948 444.105752 443.576902 0.0022666
4.11735 441.56351 444.317809 443.791289 0.00226468
4.12616 441.60855 444.529847 444.004899 0.002264449
4.13496 441.73303 444.741869 444.217763 0.002263811
4.14377 442.23636 444.953881 444.429907 0.002261234
4.15258 442.27063 445.165892 444.64136 0.002261059
4.16139 442.67218 445.377915 444.852147 0.002259008
4.17019 443.46527 445.58997 445.062299 0.002254968
4.17900 443.91696 445.802074 445.271842 0.002252674
4.18781 443.47849 446.01425 445.480803 0.002254901
4.19661 443.48773 446.226524 445.689209 0.002254854
4.20542 443.92294 446.438921 445.897083 0.002252643
4.21423 443.71945 446.651477 446.104457 0.002253676
4.22304 443.43619 446.864223 446.311353 0.002255116
4.23184 443.67346 447.077195 446.517799 0.00225391
4.24065 444.60202 447.290432 446.723819 0.002249203
4.24946 445.46225 447.508523 446.929427 0.002244859
4.25826 445.89975 447.722456 447.134672 0.002242657
4.26707 446.34015 447.936785 447.339563 0.002240444
4.27588 447.19666 448.151566 447.544131 0.002236153
4.28469 447.6813 448.366852 447.748397 0.002233732
4.29349 447.64441 448.582698 447.952385 0.002233916
4.30230 447.07944 448.799168 448.156118 0.002236739
4.31111 446.99011 449.016326 448.359621 0.002237186
4.31991 447.43912 449.234241 448.562913 0.002234941
4.32872 447.82169 449.452992 448.766023 0.002233032
4.33753 448.56244 449.672656 448.968971 0.002229344
4.34634 449.66028 449.89332 449.171778 0.002223901
4.35514 450.60547 450.115077 449.374467 0.002219236
4.36395 450.65591 450.338027 449.577061 0.002218988
4.37276 450.22202 450.562275 449.779577 0.002221126
4.38156 449.89859 450.787945 449.982042 0.002222723
4.39037 449.96298 451.015158 450.184474 0.002222405
4.39918 450.67123 451.244054 450.386894 0.002218912
4.40799 451.87006 451.474783 450.589322 0.002213026
4.41679 452.25851 451.707508 450.791776 0.002211125
4.42560 452.05688 451.942414 450.99428 0.002212111
4.43441 452.01352 452.179697 451.196853 0.002212323
4.44321 451.7265 452.419578 451.399511 0.002213729
4.45202 452.02856 452.662299 451.602276 0.00221225
4.46083 452.98318 452.918251 451.805165 0.002207587
4.46964 452.64645 453.167569 452.008194 0.00220923
4.47844 452.67801 453.42064 452.211386 0.002209076
4.48725 453.20761 453.677833 452.414756 0.002206494
4.49606 454.21521 453.93956 452.618311 0.0022016
4.50486 454.60016 454.206328 452.82209 0.002199735
4.51367 454.9599 454.478664 453.0261 0.002197996
4.52248 455.0101 454.757189 453.230356 0.002197753
4.53129 455.89822 455.042603 453.434873 0.002193472
4.54009 455.99478 455.335723 453.639672 0.002193008
4.54890 456.36411 455.637482 453.844765 0.002191233
4.55771 457.07086 455.948965 454.050168 0.002187845
4.56651 456.91162 456.271426 454.255898 0.002188607
4.57532 456.76004 456.606347 454.461967 0.002189333
4.58413 457.75388 456.955449 454.66839 0.00218458
4.59294 458.36325 457.320791 454.875185 0.002181676
4.60174 458.99191 457.704819 455.082363 0.002178688
4.61055 459.63675 458.110444 455.289939 0.002175631
4.61936 460.66983 458.541207 455.497927 0.002170752
4.62817 461.22543 459.001375 455.706336 0.002168137
4.63697 460.3381 459.496212 455.915185 0.002172316
4.64578 459.61865 460.032214 456.124484 0.002175717
4.65459 459.79993 460.617452 456.334246 0.002174859
4.66339 461.11258 461.262136 456.544484 0.002168668
4.67220 462.01706 461.979279 456.755208 0.002164422
4.68101 462.47263 462.785605 456.966428 0.00216229
4.68982 462.68073 463.758555 457.178161 0.002161318
4.69862 463.23181 464.81669 457.390414 0.002158746
4.70743 464.1221 466.054262 457.603201 0.002154605
4.71624 465.64651 467.525302 457.816529 0.002147552
4.72504 467.33688 469.305483 458.030412 0.002139784
4.73385 468.83636 471.503669 458.244845 0.00213294
4.74266 470.29788 474.280933 458.459861 0.002126312
4.75147 472.5401 477.882519 458.675463 0.002116223
4.76027 475.67303 482.697374 458.891657 0.002102284
4.76908 481.47485 489.38606 459.108452 0.002076952
4.77789 491.26663 499.341884 459.325858 0.002035555
4.78669 511.45453 517.031698 459.54388 0.001955208
4.79550 557.13934 559.522523 459.762533 0.001794883
4.80431 672.66864 676.537298 459.981821 0.001486616
4.81312 1008.7213 947.699136 460.201753 0.000991354
4.82192 1429.5303 1383.82932 460.422336 0.00069953
4.83073 1890.0562 1755.133336 460.643578 0.000529085
4.83954 1790.3644 1660.12819 460.865484 0.000558546
4.84834 1335.8956 1220.133236 461.088066 0.000748561
4.85715 831.63068 832.047222 461.311328 0.001202457
4.86596 620.72571 623.692534 461.535276 0.001611018
4.87477 546.98053 541.742523 461.759917 0.001828219
4.88357 516.53534 511.935375 461.985258 0.001935976
4.89238 503.26843 498.372699 462.211301 0.001987011
4.90119 495.44946 490.271313 462.438058 0.002018369
4.90999 490.71423 484.794964 462.665531 0.002037846
4.91880 486.58618 480.914654 462.893725 0.002055134
4.92761 483.40472 478.103644 463.122647 0.00206866
4.93642 480.30695 476.004306 463.352297 0.002082002
4.94522 477.90643 474.420098 463.582687 0.00209246
4.95403 476.31171 473.211334 463.813817 0.002099465
4.96284 474.88538 472.282335 464.045693 0.002105771
4.97164 473.71075 471.566137 464.278318 0.002110993
4.98045 472.97244 471.014591 464.511683 0.002114288
4.98926 472.10464 470.592438 464.745818 0.002118174
4.99807 471.95538 470.273433 464.980711 0.002118844
5.00687 471.94336 470.037681 465.21637 0.002118898
5.01568 471.617 469.869933 465.452797 0.002120365
5.02449 471.86136 469.758271 465.689993 0.002119267
5.03329 471.63358 469.693358 465.927963 0.00212029
5.04210 471.58255 469.667734 466.166707 0.00212052
5.05091 471.27353 469.675404 466.406227 0.00212191
5.05972 470.78094 469.71154 466.64653 0.00212413
5.06852 470.3186 469.772168 466.887615 0.002126218
5.07733 470.82767 469.854021 467.129485 0.002123919
5.08614 471.8905 469.954407 467.37214 0.002119136
5.09495 472.85397 470.190139 467.615583 0.002114818
5.10375 473.70599 470.322126 467.859813 0.002111014
5.11256 474.2547 470.466924 468.104835 0.002108572
5.12137 474.19238 470.623182 468.350649 0.002108849
5.13017 474.18997 470.789763 468.597256 0.002108859
5.13898 473.78046 471.023684 468.844657 0.002110682
5.14779 473.69702 471.208592 469.092848 0.002111054
5.15660 473.01385 471.401321 469.341837 0.002114103
5.16540 473.24313 471.601269 469.591622 0.002113079
5.17421 473.63989 471.807911 469.842201 0.002111309
5.18302 474.19449 472.020811 470.093576 0.002108839
5.19182 474.53943 472.239603 470.345747 0.002107306
5.20063 474.97144 472.463965 470.59871 0.00210539
5.20944 474.93637 472.693651 470.852471 0.002105545
5.21824 475.23538 472.928436 471.107013 0.00210422
5.22705 475.85556 473.168187 471.362363 0.002101478
5.23586 476.86569 473.412767 471.618506 0.002097027
5.24467 476.76498 473.662101 471.875442 0.002097469
5.25347 476.13901 473.916154 472.13317 0.002100227
5.26228 475.17487 474.17493 472.391686 0.002104488
5.27109 476.159 474.438479 472.650995 0.002100139
5.27990 477.06085 474.706898 472.911092 0.002096169
5.28870 476.7168 474.980329 473.171976 0.002097681
5.29751 476.70029 475.25897 473.433646 0.002097754
5.30632 477.68265 475.543084 473.696099 0.00209344
5.31512 478.62839 475.833008 473.959332 0.002089304
5.32393 478.51706 476.133105 474.223349 0.00208979
5.33274 478.31387 476.436044 474.488144 0.002090677
5.34155 479.26453 476.755996 474.753716 0.00208653
5.35035 480.28018 477.074604 475.020063 0.002082118
5.35916 480.228 477.402388 475.287178 0.002082344
5.36797 480.0321 477.740587 475.555067 0.002083194
5.37677 479.81757 478.090716 475.823724 0.002084125
5.38558 479.88513 478.454693 476.093146 0.002083832
5.39439 479.69482 478.834964 476.363331 0.002084659
5.40320 479.76501 479.234641 476.634275 0.002084354
5.41200 480.58429 479.657757 476.905974 0.0020808
5.42081 480.84198 480.10966 477.178431 0.002079685
5.42962 481.27573 480.597436 477.451639 0.002077811
5.43842 481.75784 481.130725 477.725596 0.002075732
5.44723 482.2478 481.722938 478.000299 0.002073623
5.45604 481.7915 482.393038 478.275744 0.002075587
5.46485 481.96066 483.168572 478.551913 0.002074858
5.47365 483.14761 484.090974 478.828831 0.002069761
5.48246 484.62006 485.22452 479.106485 0.002063472
5.49127 485.1004 486.674435 479.384868 0.002061429
5.50007 485.6723 488.640249 479.663976 0.002059002
5.50888 485.66479 491.660993 479.943808 0.002059033
5.51769 486.73419 497.685464 480.224358 0.002054509
5.52650 492.53888 512.901566 480.50562 0.002030297
5.53530 513.06287 549.743497 480.787597 0.001949079
5.54411 573.89752 617.481629 481.070281 0.001742471
5.55292 660.59039 696.43244 481.35367 0.001513797
5.56172 698.37848 719.707194 481.637758 0.001431888
5.57053 639.48956 658.658378 481.92254 0.001563747
5.57934 553.22845 580.861935 482.208017 0.001807572
5.58815 506.87405 529.920417 482.494181 0.001972877
5.59695 493.41541 506.829428 482.78103 0.00202669
5.60576 490.14163 498.382063 483.068559 0.002040227
5.61457 489.28333 495.217678 483.356764 0.002043806
5.62337 489.3233 493.787682 483.645636 0.002043639
5.63218 488.82669 493.107155 483.93518 0.002045715
5.64099 489.14395 492.883382 484.225386 0.002044388
5.64980 489.99844 492.994813 484.516251 0.002040823
5.65860 491.22272 493.384721 484.807771 0.002035736
5.66741 491.71826 494.03499 485.09994 0.002033685
5.67622 492.12662 494.958302 485.392751 0.002031997
5.68503 493.2186 496.197885 485.686207 0.002027499
5.69383 495.25156 497.835149 485.9803 0.002019176
5.70264 496.73169 500.007001 486.275007 0.002013159
5.71145 498.54636 502.940318 486.570359 0.002005832
5.72025 501.67297 507.033055 486.866333 0.00199333
5.72906 507.60095 513.166974 487.162923 0.001970051
5.73787 520.20349 524.155335 487.460129 0.001922325
5.74667 547.18787 549.949843 487.757944 0.001827526
5.75548 610.42334 616.655826 488.056364 0.001638207
5.76429 749.22058 761.632018 488.355383 0.00133472
5.77310 968.59106 984.437778 488.654996 0.001032427
5.78190 1147.512 1166.904576 488.955197 0.000871451
5.79071 1090.5229 1112.979793 489.255986 0.000916991
5.79952 860.70532 890.599536 489.557355 0.001161838
5.80833 659.06293 693.75765 489.8593 0.001517306
5.81713 563.93787 584.489404 490.161816 0.001773245
5.82594 530.11627 539.109305 490.464898 0.001886379
5.83475 516.40381 521.816603 490.768538 0.001936469
5.84355 509.51498 513.897458 491.072737 0.001962651
5.85236 505.89505 509.248045 491.377488 0.001976695
5.86117 503.50797 506.161834 491.682786 0.001986066
5.86998 501.84976 504.021636 491.988625 0.001992628
5.87878 501.27084 502.507276 492.294997 0.00199493
5.88759 500.40274 501.424969 492.601905 0.00199839
5.89640 500.3223 500.650254 492.90934 0.001998712
5.90520 499.72629 500.10016 493.217296 0.002001095
5.91401 499.37582 499.718043 493.52577 0.0020025
5.92282 499.36502 499.464071 493.834756 0.002002543
5.93163 498.87097 499.30951 494.144246 0.002004526
5.94043 498.42722 499.233403 494.454242 0.002006311
5.94924 498.56973 499.220073 494.764717 0.002005737
5.95805 498.70535 499.257648 495.075703 0.002005192
5.96685 498.32901 499.336961 495.387176 0.002006706
5.97566 498.51733 499.45092 495.699131 0.002005948
5.98447 499.2478 499.593941 496.011565 0.002003013
5.99328 499.6636 499.76154 496.324467 0.002001347
6.00208 500.16241 499.950165 496.637841 0.001999351
6.01089 500.82681 500.156922 496.951678 0.001996698
6.01970 501.04242 500.379463 497.265973 0.001995839
6.02850 501.22406 500.615843 497.580721 0.001995116
6.03731 501.629 500.864481 497.895917 0.001993505
6.04612 501.79245 501.124068 498.211553 0.001992856
6.05493 502.22537 501.393511 498.527631 0.001991138
6.06373 502.93884 501.671917 498.844142 0.001988313
6.07254 503.7438 501.958545 499.161082 0.001985136
6.08135 503.69421 502.252777 499.478446 0.001985332
6.09015 503.48257 502.554118 499.796225 0.001986166
6.09896 503.93036 502.862183 500.114422 0.001984401
6.10777 504.43661 503.176654 500.433029 0.00198241
6.11658 504.65515 503.497308 500.752039 0.001981551
6.12538 504.53412 503.824 501.07145 0.001982027
6.13419 504.03772 504.156645 501.391255 0.001983979
6.14300 504.29059 504.495237 501.711447 0.001982984
6.15180 505.89389 504.839859 502.032027 0.001976699
6.16061 506.84631 505.190651 502.352989 0.001972985
6.16942 507.22333 505.547847 502.674326 0.001971518
6.17823 507.47455 505.911784 502.996034 0.001970542
6.18703 507.72314 506.282907 503.318108 0.001969577
6.19584 508.09689 506.66177 503.640526 0.001968129
6.20465 508.40952 507.049153 503.963315 0.001966918
6.21345 508.90439 507.445991 504.286461 0.001965006
6.22226 508.87177 507.853476 504.609954 0.001965132
6.23107 509.30017 508.348951 504.93379 0.001963479
6.23988 509.60303 508.783282 505.257965 0.001962312
6.24868 510.13876 509.234245 505.582473 0.001960251
6.25749 510.57474 509.743281 505.907307 0.001958577
6.26630 511.16028 510.238641 506.23247 0.001956334
6.27510 511.42166 510.763998 506.557952 0.001955334
6.28391 512.1687 511.327209 506.88375 0.001952482
6.29272 513.12415 511.939242 507.20986 0.001948846
6.30153 514.02881 512.615639 507.536272 0.001945416
6.31033 514.49506 513.379079 507.86299 0.001943653
6.31914 515.10248 514.263727 508.190006 0.001941361
6.32795 515.70093 515.322808 508.517315 0.001939108
6.33676 517.03552 516.645129 508.844913 0.001934103
6.34556 518.39276 518.40936 509.172796 0.001929039
6.35437 520.16791 521.129795 509.500955 0.001922456
6.36318 523.32556 526.571729 509.829393 0.001910856
6.37198 529.94464 539.662147 510.158104 0.00188699
6.38079 550.37543 568.766132 510.487081 0.001816942
6.38960 601.86621 617.801855 510.816321 0.001661499
6.39841 657.45557 669.319774 511.14582 0.001521015
6.40721 674.81073 677.054639 511.475569 0.001481897
6.41602 631.39661 631.943139 511.805573 0.001583791
6.42483 574.37488 580.588009 512.135822 0.001741023
6.43363 540.93677 547.76417 512.466295 0.001848645
6.44244 529.87256 532.754772 512.797024 0.001887246
6.45125 526.68359 527.116458 513.127987 0.001898673
6.46006 525.50995 524.993246 513.459179 0.001902914
6.46886 525.24243 524.084522 513.790592 0.001903883
6.47767 525.26678 523.715439 514.122231 0.001903794
6.48648 525.73199 523.672955 514.454087 0.00190211
6.49528 525.95502 523.864248 514.786157 0.001901303
6.50409 525.93854 524.2418 515.118435 0.001901363
6.51290 526.58649 524.783589 515.450916 0.001899023
6.52171 526.84814 525.485913 515.783601 0.00189808
6.53051 527.22046 526.361497 516.116484 0.00189674
6.53932 528.24945 527.440723 516.44956 0.001893045
6.54813 529.43347 528.78366 516.782826 0.001888811
6.55693 530.54895 530.465985 517.116278 0.00188484
6.56574 532.09308 532.640595 517.449908 0.00187937
6.57455 534.33734 535.573138 517.783721 0.001871477
6.58336 537.66687 539.897854 518.117707 0.001859888
6.59216 543.33795 547.682349 518.451864 0.001840475
6.60097 555.49237 565.510147 518.786188 0.001800205
6.60978 592.38568 608.165961 519.120676 0.001688089
6.61858 675.01544 692.53691 519.455319 0.001481448
6.62739 832.03857 810.419805 519.790122 0.001201867
6.63620 938.22467 891.426191 520.125076 0.001065843
6.64501 923.40161 846.020548 520.46018 0.001082952
6.65381 799.29486 729.872347 520.795428 0.001251103
6.66262 682.64252 633.509648 521.130814 0.001464896
6.67143 607.96289 580.758858 521.466342 0.001644837
6.68023 575.31482 558.711311 521.801985 0.001738179
6.68904 559.56372 550.407091 522.137778 0.001787107
6.69785 552.7981 546.972873 522.473698 0.001808979
6.70666 549.83777 545.402436 522.809742 0.001818718
6.71546 548.29919 544.835362 523.145907 0.001823822
6.72427 547.72156 544.931648 523.482184 0.001825745
6.73308 547.06702 545.562904 523.818579 0.00182793
6.74188 547.05682 546.664855 524.155084 0.001827964
6.75069 547.80243 548.22509 524.491697 0.001825476
6.75950 550.38818 550.273575 524.828412 0.001816899
6.76831 552.32428 552.883161 525.165228 0.001810531
6.77711 554.04755 556.17696 525.502137 0.001804899
6.78592 556.74689 560.347596 525.839144 0.001796148
6.79473 559.8891 565.688538 526.176241 0.001786068
6.80354 564.4184 572.653127 526.513425 0.001771735
6.81234 570.93134 581.961928 526.850693 0.001751524
6.82115 581.37299 594.860725 527.188038 0.001720066
6.82996 598.26361 614.056487 527.525465 0.001671504
6.83876 632.98828 647.779294 527.862966 0.001579808
6.84757 712.61938 722.891315 528.200539 0.001403274
6.85638 919.46484 905.951835 528.53818 0.001087589
6.86519 1345.2594 1291.378091 528.875886 0.000743351
6.87399 1940.9197 1890.460659 529.213651 0.00051522
6.88280 2383.4077 2435.479566 529.551479 0.000419567
6.89161 2275.4932 2390.322825 529.889362 0.000439465
6.90041 1756.7449 1812.029171 530.227299 0.000569235
6.90922 1227.3333 1234.991831 530.565287 0.000814775
6.91803 909.66217 881.212511 530.903302 0.001099309
6.92684 747.11334 719.192808 531.24138 0.001338485
6.93564 677.22925 654.359085 531.579497 0.001476605
6.94445 639.26306 625.935945 531.917655 0.001564301
6.95326 620.1076 610.611372 532.25585 0.001612623
6.96206 608.55542 601.38088 532.594077 0.001643236
6.97087 602.17645 595.931982 532.932334 0.001660643
6.97968 598.6217 593.241822 533.270618 0.001670504
6.98849 596.41809 592.813231 533.608922 0.001676676
6.99729 597.41388 594.477955 533.947252 0.001673881
7.00610 601.26508 598.347503 534.285601 0.00166316
7.01491 606.61139 604.84043 534.623966 0.001648502
7.02371 616.22333 614.829534 534.962344 0.001622788
7.03252 634.27802 630.194719 535.300729 0.001576596
7.04133 668.86945 656.23177 535.639126 0.00149506
7.05014 734.64813 710.425796 535.977528 0.001361196
7.05894 865.53717 841.054929 536.315933 0.001155352
7.06775 1132.5563 1133.13816 536.654337 0.000882958
7.07656 1577.9392 1640.993836 536.992739 0.000633738
7.08536 2128.4832 2226.915707 537.331132 0.000469818
7.09417 2322.6594 2429.510726 537.669521 0.000430541
7.10298 1954.406 2016.141994 538.0079 0.000511664
7.11179 1363.2424 1456.601391 538.346265 0.000733545
7.12059 1020.1639 1103.330873 538.684616 0.000980235
7.12940 974.92389 1011.116074 539.022948 0.001025721
7.13821 1080.1416 1082.334396 539.361256 0.000925805
7.14701 1169.5583 1145.972855 539.699545 0.000855024
7.15582 1102.3156 1057.224763 540.037809 0.000907181
7.16463 922.72272 888.615342 540.376025 0.001083749
7.17344 746.09814 752.739675 540.714231 0.001340306
7.18224 671.41168 677.148548 541.052404 0.001489399
7.19105 640.26624 644.233873 541.390542 0.00156185
7.19986 627.2865 631.650805 541.728638 0.001594168
7.20866 623.25854 627.442989 542.066699 0.001604471
7.21747 622.76355 627.478135 542.404717 0.001605746
7.22628 625.70135 630.663335 542.742691 0.001598207
7.23509 633.04266 636.87902 543.080618 0.001579672
7.24389 643.05231 646.476196 543.418493 0.001555083
7.25270 658.79956 660.255993 543.756319 0.001517912
7.26151 680.43329 679.643928 544.094092 0.001469652
7.27031 715.39496 707.147912 544.431809 0.001397829
7.27912 770.37408 747.98928 544.769468 0.001298071
7.28793 866.86499 816.959047 545.107067 0.001153582
7.29674 1035.3916 961.140619 545.444599 0.000965818
7.30554 1364.7189 1300.834 545.78207 0.000732752
7.31435 1979.6577 2025.315266 546.119474 0.000505138
7.32316 2971.7141 3215.848433 546.456809 0.000336506
7.33197 4256.4424 4484.741421 546.794073 0.000234938
7.34077 4666.79 4795.526484 547.131263 0.00021428
7.34958 3959.062 3935.887405 547.468374 0.000252585
7.35839 3026.7603 3063.720962 547.805411 0.000330386
7.36719 2781.1667 2805.244435 548.142368 0.000359561
7.37600 2890.1755 2917.674604 548.479243 0.000346
7.38481 2728.6121 2693.289218 548.816035 0.000366487
7.39362 2118.5813 2039.459588 549.152736 0.000472014
7.40242 1448.2976 1414.890408 549.489339 0.000690466
7.41123 1004.0429 1021.412934 549.825862 0.000995973
7.42004 821.48486 827.97063 550.162297 0.001217308
7.42884 742.27026 740.857324 550.498638 0.001347218
7.43765 703.77863 696.633126 550.834883 0.001420901
7.44646 683.02435 669.203239 551.17103 0.001464077
7.45526 667.66504 649.991951 551.507074 0.001497757
7.46407 655.18738 635.849835 551.843019 0.001526281
7.47288 644.56281 625.202561 552.17886 0.001551439
7.48169 634.48041 617.102025 552.514595 0.001576093
7.49049 624.87738 610.943883 552.850223 0.001600314
7.49930 617.19708 606.345143 553.18574 0.001620228
7.50811 611.6203 603.08282 553.521143 0.001635001
7.51692 608.20056 601.072753 553.856436 0.001644194
7.52572 606.14215 600.402484 554.191614 0.001649778
7.53453 607.40839 601.541651 554.526675 0.001646339
7.54334 612.44214 606.076096 554.861616 0.001632807
7.55214 628.13867 618.242548 555.196437 0.001592005
7.56095 665.33075 646.067379 555.531132 0.001503012
7.56976 735.95062 698.949955 555.865706 0.001358787
7.57857 824.7796 778.878003 556.200154 0.001212445
7.58737 903.16217 865.738143 556.534475 0.001107221
7.59618 960.21924 935.954055 556.868665 0.001041429
7.60499 983.08136 961.583133 557.20272 0.00101721
7.61379 910.39941 891.165125 557.536646 0.001098419
7.62260 783.0694 774.134654 557.870438 0.001277026
7.63141 678.69104 680.865258 558.204092 0.001473424
7.64022 626.78528 627.73264 558.537609 0.001595443
7.64902 606.4057 603.161457 558.870966 0.001649061
7.65783 596.71661 592.270709 559.204201 0.001675837
7.66664 592.29645 586.664918 559.537289 0.001688344
7.67544 589.89722 583.126651 559.870236 0.001695211
7.68425 587.9668 580.645501 560.203036 0.001700776
7.69306 586.46069 578.826086 560.535688 0.001705144
7.70187 585.50452 577.460252 560.868191 0.001707929
7.71067 584.77112 576.424936 561.200542 0.001710071
7.71948 583.32605 575.624621 561.532736 0.001714307
7.72829 582.31915 575.006973 561.86478 0.001717271
7.73709 581.2558 574.515672 562.196668 0.001720413
7.74590 580.75806 574.153174 562.528398 0.001721887
7.75471 580.02252 573.882113 562.859969 0.001724071
7.76352 579.25873 573.686369 563.191376 0.001726344
7.77232 578.51697 573.553656 563.522624 0.001728558
7.78113 578.50531 573.474486 563.853709 0.001728593
7.78994 578.25018 573.441455 564.184629 0.001729355
7.79874 578.79291 573.448728 564.515382 0.001727734
7.80755 579.1225 573.491735 564.845967 0.00172675
7.81636 578.97632 573.566854 565.176379 0.001727186
7.82517 578.42334 573.671293 565.506624 0.001728838
7.83397 578.65759 573.802942 565.836696 0.001728138
7.84278 578.57959 573.96031 566.166595 0.001728371
7.85159 578.24377 574.142486 566.496319 0.001729374
7.86039 578.5575 574.349122 566.825867 0.001728437
7.86920 579.10077 574.580474 567.155233 0.001726815
7.87801 579.30634 574.837515 567.484424 0.001726202
7.88682 579.53876 575.122007 567.813415 0.00172551
7.89562 579.26428 575.43682 568.142244 0.001726328
7.90443 579.47162 575.786143 568.470889 0.00172571
7.91324 580.16211 576.176124 568.79935 0.001723656
7.92204 580.5155 576.615597 569.127625 0.001722607
7.93085 580.9082 577.169098 569.45571 0.001721442
7.93966 581.37067 577.752583 569.783611 0.001720073
7.94847 582.29486 578.445523 570.111322 0.001717343
7.95727 582.60693 579.292101 570.438842 0.001716423
7.96608 583.32971 580.36549 570.766171 0.001714296
7.97489 584.43384 581.810348 571.093303 0.001711058
7.98369 586.86072 584.013807 571.420244 0.001703982
7.99250 591.44373 588.186399 571.74699 0.001690778
8.00131 600.79279 597.418294 572.07354 0.001664467
8.01012 618.86383 617.055166 572.399892 0.001615864
8.01892 648.59326 650.768073 572.726045 0.001541798
8.02773 674.54773 691.205068 573.051995 0.001482475
8.03654 682.40607 710.157573 573.377747 0.001465403
8.04535 663.25415 686.384132 573.703298 0.001507718
8.05415 632.74286 646.342984 574.028645 0.001580421
8.06296 608.42963 615.267325 574.353789 0.001643575
8.07177 596.61084 598.165694 574.678727 0.001676134
8.08057 590.61987 590.612074 575.003456 0.001693136
8.08938 587.85291 587.512749 575.327981 0.001701106
8.09819 586.86798 586.122425 575.652298 0.001703961
8.10700 586.52057 585.384411 575.976405 0.00170497
8.11580 585.31342 584.988142 576.300303 0.001708486
8.12461 584.86945 584.80506 576.623986 0.001709783
8.13342 585.46216 584.767686 576.947461 0.001708052
8.14222 586.28949 584.834814 577.270723 0.001705642
8.15103 586.50018 584.979715 577.593772 0.001705029
8.15984 586.56549 585.184528 577.916606 0.001704839
8.16865 586.48804 585.437022 578.239225 0.001705065
8.17745 586.76038 585.728755 578.561623 0.001704273
8.18626 587.05029 586.053836 578.883809 0.001703432
8.19507 587.1084 586.408116 579.205776 0.001703263
8.20387 587.62543 586.788771 579.527525 0.001701764
8.21268 587.8299 587.193948 579.849055 0.001701172
8.22149 588.10675 587.622502 580.170364 0.001700372
8.23030 588.22205 588.07389 580.491449 0.001700038
8.23910 588.86285 588.548111 580.812316 0.001698188
8.24791 589.18811 589.045543 581.132961 0.001697251
8.25672 589.65521 589.568463 581.453346 0.001695906
8.26552 590.29987 590.115089 581.773544 0.001694054
8.27433 591.34064 590.688492 582.093518 0.001691073
8.28314 591.88898 591.290622 582.413267 0.001689506
8.29195 591.98499 591.923875 582.732791 0.001689232
8.30075 591.87811 592.591101 583.052085 0.001689537
8.30956 592.28833 593.295775 583.371156 0.001688367
8.31837 592.17078 594.041909 583.689999 0.001688702
8.32717 592.44604 594.834235 584.008615 0.001687917
8.33598 593.28857 595.678443 584.327003 0.00168552
8.34479 594.25806 596.581142 584.645162 0.001682771
8.35360 595.10938 597.550158 584.963089 0.001680363
8.36240 596.11157 598.594958 585.280789 0.001677538
8.37121 596.19446 599.726692 585.598259 0.001677305
8.38002 596.93311 600.958759 585.915499 0.00167523
8.38882 598.08899 602.307551 586.232508 0.001671992
8.39763 598.88776 603.79283 586.549282 0.001669762
8.40644 599.90955 605.438826 586.865828 0.001666918
8.41525 601.41321 607.275808 587.182142 0.00166275
8.42405 603.21063 609.341272 587.498224 0.001657796
8.43286 604.39825 611.682623 587.814074 0.001654538
8.44167 606.04004 614.360176 588.12969 0.001650056
8.45047 608.09314 617.45236 588.44507 0.001644485
8.45928 610.71539 621.061324 588.760221 0.001637424
8.46809 613.40668 625.322756 589.075138 0.00163024
8.47690 617.58112 630.421095 589.389821 0.00161922
8.48570 622.4798 636.610433 589.70427 0.001606478
8.49451 628.63312 644.245488 590.018486 0.001590753
8.50332 636.9054 653.843429 590.332464 0.001570092
8.51212 648.98645 666.16979 590.646211 0.001540864
8.52093 666.427 682.41209 590.959724 0.001500539
8.52974 692.30768 704.610326 591.273002 0.001444444
8.53855 736.52008 737.157734 591.586047 0.001357736
8.54735 817.1908 792.294434 591.898853 0.001223704
8.55616 966.54529 904.598247 592.211429 0.001034613
8.56497 1229.2375 1149.393366 592.52377 0.000813512
8.57378 1703.9801 1627.049421 592.835877 0.000586861
8.58258 2394.2805 2364.504896 593.14775 0.000417662
8.59139 3096.5247 3138.806814 593.459389 0.000322943
8.60020 3404.6365 3413.261897 593.770791 0.000293717
8.60900 3226.8372 3122.532713 594.081962 0.000309901
8.61781 2842.7678 2766.874934 594.392899 0.00035177
8.62662 2391.6772 2405.493725 594.703604 0.000418117
8.63543 1850.5865 1896.450322 595.014075 0.000540369
8.64423 1334.6312 1403.165605 595.324309 0.000749271
8.65304 1008.6112 1060.494519 595.634315 0.000991462
8.66185 851.55261 868.566759 595.944088 0.001174326
8.67065 773.83795 774.02683 596.253629 0.00129226
8.67946 729.56073 726.732168 596.562939 0.001370688
8.68827 702.75299 699.347679 596.872017 0.001422975
8.69708 683.17902 681.012289 597.18086 0.001463745
8.70588 669.84961 667.749733 597.489477 0.001492872
8.71469 659.52301 657.806634 597.797864 0.001516247
8.72350 651.3161 650.192239 598.10602 0.001535353
8.73230 643.82336 644.271824 598.413948 0.001553221
8.74111 638.07709 639.618208 598.721613 0.001567209
8.74992 633.52051 635.932911 599.029084 0.001578481
8.75873 630.66626 633.00601 599.336328 0.001585625
8.76753 628.62469 630.684959 599.643341 0.001590774
8.77634 626.75012 628.858781 599.950131 0.001595532
8.78515 625.14771 627.446242 600.256696 0.001599622
8.79395 623.50787 626.387673 600.563036 0.001603829
8.80276 622.44476 625.632065 600.869152 0.001606568
8.81157 621.10736 625.168633 601.175044 0.001610028
8.82038 620.38293 624.972197 601.48071 0.001611908
8.82918 620.49603 625.03749 601.786157 0.001611614
8.83799 621.10895 625.371385 602.091383 0.001610023
8.84680 620.83496 625.994332 602.396389 0.001610734
8.85560 620.71527 626.943745 602.701175 0.001611045
8.86441 621.42883 628.281278 603.005742 0.001609195
8.87322 623.10596 630.104384 603.310088 0.001604863
8.88203 624.81879 632.595675 603.614221 0.001600464
8.89083 627.18402 636.025556 603.918138 0.001594428
8.89964 631.68622 641.203448 604.22184 0.001583064
8.90845 639.78961 650.315958 604.525328 0.001563014
8.91725 655.41522 668.425976 604.8286 0.00152575
8.92606 682.6911 703.316213 605.131664 0.001464791
8.93487 729.39258 759.579196 605.434516 0.001371004
8.94368 787.76691 825.791488 605.73716 0.001269411
8.95248 815.60101 861.498189 606.039594 0.00122609
8.96129 814.18201 837.902055 606.341822 0.001228227
8.97010 797.50635 796.19146 606.64384 0.001253909
8.97890 810.10638 783.525015 606.945657 0.001234406
8.98771 896.75385 833.766744 607.24727 0.001115133
8.99652 1102.3081 985.842628 607.548681 0.000907187
9.00533 1426.2053 1269.79287 607.849891 0.000701161
9.01413 1775.2535 1642.72844 608.150901 0.0005633
9.02294 1900.5244 1894.539013 608.45171 0.000526171
9.03175 1691.9626 1766.118822 608.752325 0.00059103
9.04055 1315.236 1401.17934 609.052745 0.00076032
9.04936 1017.7021 1069.937622 609.35297 0.000982606
9.05817 840.58691 863.260205 609.653003 0.001189645
9.06698 756.11169 761.751022 609.952842 0.001322556
9.07578 715.97247 718.812722 610.252495 0.001396702
9.08459 701.41736 702.90005 610.551959 0.001425685
9.09340 704.03955 703.474337 610.851238 0.001420375
9.10221 721.8537 725.381345 611.150331 0.001385322
9.11101 768.07471 783.316057 611.449242 0.001301957
9.11982 853.27435 888.785021 611.747967 0.001171956
9.12863 944.78174 1023.369842 612.046516 0.001058446
9.13743 1022.8769 1105.038126 612.344888 0.000977635
9.14624 981.59564 1045.32995 612.643083 0.001018749
9.15505 887.90961 907.4015 612.941103 0.001126241
9.16386 792.15894 786.314017 613.238951 0.001262373
9.17266 717.28131 711.206183 613.536624 0.001394153
9.18147 683.263 673.489579 613.834132 0.001463565
9.19028 662.91949 656.003988 614.131473 0.001508479
9.19908 650.71857 647.112734 614.428649 0.001536763
9.20789 644.0307 641.705482 614.725661 0.001552721
9.21670 639.01318 637.97272 615.022509 0.001564913
9.22550 635.90063 635.241327 615.319171 0.001572573
9.23431 634.5224 633.184516 615.615705 0.001575988
9.24312 632.38165 631.607895 615.912081 0.001581324
9.25193 630.5838 630.383812 616.208308 0.001585832
9.26073 629.57306 629.425399 616.504383 0.001588378
9.26954 628.48773 628.671546 616.800309 0.001591121
9.27835 627.77393 628.078151 617.096089 0.00159293
9.28716 627.90485 627.612864 617.391724 0.001592598
9.29596 628.37781 627.251982 617.687214 0.001591399
9.30477 628.8338 626.975695 617.982566 0.001590245
9.31358 628.15717 626.770228 618.277781 0.001591958
9.32238 627.79413 626.624288 618.572861 0.001592879
9.33119 627.96466 626.52888 618.867807 0.001592446
9.34000 628.56586 626.476766 619.162619 0.001590923
9.34881 629.52612 626.462121 619.457306 0.001588496
9.35761 631.69824 626.480164 619.751867 0.001583034
9.36642 633.12811 626.526952 620.046305 0.001579459
9.37523 633.40155 626.599264 620.340621 0.001578777
9.38403 633.78943 626.694418 620.634818 0.001577811
9.39284 634.49225 626.810182 620.928896 0.001576063
9.40165 634.81274 626.944748 621.222864 0.001575268
9.41046 634.19647 627.096609 621.51672 0.001576798
9.41926 633.64624 627.264555 621.810468 0.001578168
9.42807 633.06085 627.447661 622.104111 0.001579627
9.43688 631.79614 627.645179 622.397649 0.001582789
9.44568 631.74286 627.856645 622.691084 0.001582923
9.45449 631.54828 628.081798 622.984425 0.00158341
9.46330 631.10419 628.320623 623.27767 0.001584524
9.47211 631.021 628.573341 623.570823 0.001584733
9.48091 631.22528 628.840452 623.863886 0.00158422
9.48972 631.31891 629.122783 624.156858 0.001583986
9.49853 631.5119 629.419912 624.44975 0.001583501
9.50733 631.96484 629.736868 624.742561 0.001582367
9.51614 631.82721 630.074325 625.035293 0.001582711
9.52495 631.61951 630.43543 625.32795 0.001583232
9.53376 632.2616 630.82443 625.620534 0.001581624
9.54256 632.95703 631.247063 625.913045 0.001579886
9.55137 633.99518 631.711217 626.205492 0.001577299
9.56018 633.66132 632.227756 626.497876 0.00157813
9.56898 633.92651 632.81198 626.790199 0.00157747
9.57779 634.6795 633.485957 627.082464 0.001575598
9.58660 635.75134 634.282131 627.374671 0.001572942
9.59541 636.01471 635.250073 627.66683 0.001572291
9.60421 636.64819 636.473424 627.95894 0.001570726
9.61302 638.10138 638.110389 628.251005 0.001567149
9.62183 640.10107 640.574468 628.543028 0.001562253
9.63064 643.23846 645.020415 628.835011 0.001554633
9.63944 649.39178 654.186437 629.126955 0.001539902
9.64825 661.39288 672.605066 629.41887 0.001511961
9.65706 679.31689 703.9036 629.710755 0.001472067
9.66586 704.01129 744.096373 630.002614 0.001420432
9.67467 720.45679 772.235365 630.294449 0.001388008
9.68348 718.88123 761.039268 630.586265 0.00139105
9.69229 697.505 723.165754 630.878062 0.001433681
9.70109 673.84369 687.128773 631.169848 0.001484024
9.70990 658.15063 663.630678 631.461591 0.001519409
9.71871 650.88354 651.483022 631.753362 0.001536373
9.72751 647.12787 645.991698 632.045129 0.00154529
9.73632 645.38818 643.50038 632.336896 0.001549455
9.74513 644.22845 642.236889 632.628667 0.001552244
9.75393 643.49298 641.539848 632.920446 0.001554019
9.76274 642.84497 641.165973 633.212232 0.001555585
9.77155 643.37427 641.021292 633.504035 0.001554305
9.78036 643.88916 641.045543 633.795856 0.001553062
9.78916 644.07031 641.207954 634.087698 0.001552626
9.79797 643.91919 641.494333 634.379564 0.00155299
9.80678 644.76538 641.904057 634.671459 0.001550952
9.81559 645.26239 642.450344 634.963383 0.001549757
9.82439 645.45428 643.165109 635.255345 0.001549296
9.83320 646.21625 644.115927 635.547346 0.00154747
9.84201 648.2417 645.468437 635.83939 0.001542634
9.85081 651.05298 647.688007 636.131479 0.001535973
9.85962 656.73541 651.978831 636.423616 0.001522683
9.86843 666.42389 660.686297 636.715809 0.001500546
9.87724 684.65674 676.558986 637.008059 0.001460586
9.88604 711.21069 699.769931 637.30037 0.001406053
9.89485 736.927 722.753443 637.592746 0.001356987
9.90366 740.30804 727.764496 637.88519 0.001350789
9.91246 717.03247 709.716671 638.177703 0.001394637
9.92127 688.24884 685.895364 638.470295 0.001452963
9.93008 670.28375 667.945417 638.762966 0.001491905
9.93889 661.30176 657.743658 639.05572 0.001512169
9.94769 656.86328 652.990096 639.348562 0.001522387
9.95650 653.99988 651.010517 639.641494 0.001529052
9.96531 652.49738 650.231038 639.934518 0.001532573
9.97411 652.08691 649.969887 640.227643 0.001533538
9.98292 651.93597 649.972975 640.520871 0.001533893
9.99173 653.01825 650.164218 640.814205 0.001531351
10.00054 653.32263 650.499654 641.107649 0.001530637
10.00934 653.84235 650.959655 641.4012 0.001529421
10.01815 653.43457 651.524847 641.694868 0.001530375
10.02696 653.81201 652.195878 641.988692 0.001529492
10.03576 653.97565 652.975984 642.282607 0.001529109
10.04457 654.83417 653.847906 642.576652 0.001527104
10.05338 655.39276 654.881552 642.87083 0.001525803
10.06219 656.18799 656.073373 643.165145 0.001523954
10.07099 657.46729 657.456657 643.459602 0.001520988
10.07980 659.16113 659.077595 643.754236 0.00151708
10.08861 661.03925 661.000892 644.048987 0.001512769
10.09741 663.03668 663.315602 644.34389 0.001508212
10.10622 666.55084 666.152715 644.638949 0.001500261
10.11503 670.29755 669.710201 644.93417 0.001491875
10.12384 676.27307 674.268914 645.229589 0.001478693
10.13264 683.35034 680.330927 645.525142 0.001463378
10.14145 695.43268 688.922625 645.820869 0.001437954
10.15026 714.34491 702.693331 646.116772 0.001399884
10.15907 748.85236 728.660511 646.412855 0.001335377
10.16787 809.55255 782.015432 646.709123 0.00123525
10.17668 920.17706 885.092894 647.005613 0.001086747
10.18549 1120.1703 1051.705868 647.302262 0.000892721
10.19429 1345.2633 1253.853706 647.599074 0.000743349
10.20310 1487.2618 1380.567887 647.89612 0.000672377
10.21191 1427.9819 1317.847852 648.19337 0.000700289
10.22072 1231.2028 1147.241388 648.490862 0.000812214
10.22952 1034.9642 1002.462652 648.788533 0.000966217
10.23833 936.71112 929.756232 649.08642 0.001067565
10.24714 886.24329 904.018895 649.384528 0.001128358
10.25594 845.03845 870.094901 649.68286 0.001183378
10.26475 796.31537 814.362184 649.98142 0.001255784
10.27356 754.9682 761.525843 650.280247 0.001324559
10.28237 726.32446 724.672655 650.579275 0.001376795
10.29117 708.39075 703.521549 650.878545 0.00141165
10.29998 698.41675 692.65987 651.178058 0.00143181
10.30879 691.41388 687.117863 651.477819 0.001446312
10.31759 687.30084 684.109992 651.777867 0.001454967
10.32640 684.12854 682.455331 652.078137 0.001461714
10.33521 682.46442 681.691916 652.378667 0.001465278
10.34402 681.09265 681.612658 652.679461 0.001468229
10.35282 679.97552 682.136617 652.980523 0.001470641
10.36163 679.6568 683.220606 653.281857 0.001471331
10.37044 679.68457 684.875774 653.583501 0.001471271
10.37924 680.10455 687.142007 653.885391 0.001470362
10.38805 680.60596 690.118211 654.187564 0.001469279
10.39686 680.85846 693.957753 654.490025 0.001468734
10.40567 682.33008 698.882731 654.792778 0.001465566
10.41447 684.20386 705.242387 655.095861 0.001461553
10.42328 686.20123 713.559808 655.399208 0.001457298
10.43209 688.87518 724.685085 655.702859 0.001451642
10.44089 694.60376 740.225777 656.006817 0.00143967
10.44970 704.9317 763.996615 656.311086 0.001418577
10.45851 729.25427 806.198837 656.615669 0.001371264
10.46732 783.38293 891.262175 656.920606 0.001276515
10.47612 933.65015 1062.323702 657.225831 0.001071065
10.48493 1267.4258 1363.881172 657.531382 0.000789001
10.49374 1800.4108 1787.677801 657.837264 0.000555429
10.50254 2312.2991 2183.888989 658.143479 0.00043247
10.51135 2357.1006 2240.740662 658.450067 0.00042425
10.52016 1960.2271 1903.922142 658.756962 0.000510145
10.52897 1413.6575 1482.547287 659.064202 0.000707385
10.53777 1087.9415 1178.032026 659.37179 0.000919167
10.54658 957.33734 1033.196227 659.679732 0.001044564
10.55539 993.34564 1019.072906 659.98803 0.001006699
10.56419 1093.405 1082.1648 660.296723 0.000914574
10.57300 1173.0052 1146.086452 660.605745 0.000852511
10.58181 1139.0627 1122.518176 660.915134 0.000877915
10.59062 1013.4179 1019.707789 661.224895 0.00098676
10.59942 886.21497 913.876204 661.53503 0.001128394
10.60823 811.31366 843.161064 661.845579 0.001232569
10.61704 781.71613 812.945184 662.156474 0.001279237
10.62584 784.94177 820.09775 662.467756 0.00127398
10.63465 826.927 869.105366 662.779426 0.001209297
10.64346 937.73572 973.976306 663.091488 0.001066399
10.65227 1197.5603 1144.134849 663.403983 0.000835031
10.66107 1526.3436 1354.066001 663.716841 0.00065516
10.66988 1725.1094 1515.703076 664.030103 0.000579673
10.67869 1707.9049 1571.435654 664.343735 0.000585513
10.68749 1539.3911 1529.508407 664.657813 0.000649607
10.69630 1293.1869 1363.135756 664.972304 0.000773283
10.70511 1068.325 1141.084125 665.287248 0.000936045
10.71392 904.78589 958.735628 665.602576 0.001105234
10.72272 808.79797 841.782278 665.918328 0.001236403
10.73153 761.47748 777.558379 666.234506 0.001313236
10.74034 736.65527 744.69451 666.551115 0.001357487
10.74915 722.60046 727.059114 666.868192 0.001383891
10.75795 713.68835 716.288837 667.185671 0.001401172
10.76676 707.56207 708.910664 667.503589 0.001413304
10.77557 703.7417 703.541876 667.82195 0.001420976
10.78437 700.59143 699.538725 668.140757 0.001427365
10.79318 698.48346 696.542135 668.460013 0.001431673
10.80199 696.19543 694.33893 668.779758 0.001436378
10.81080 694.54755 692.834321 669.099922 0.001439786
10.81960 694.68408 692.09977 669.420545 0.001439503
10.82841 696.46527 692.534804 669.741629 0.001435822
10.83722 698.28229 695.061592 670.063177 0.001432086
10.84602 701.46979 700.976729 670.38523 0.001425578
10.85483 707.10095 710.959918 670.707716 0.001414225
10.86364 712.62152 723.036089 671.030676 0.001403269
10.87245 717.09906 730.159919 671.354111 0.001394507
10.88125 716.79291 725.011674 671.678026 0.001395103
10.89006 711.04535 712.489085 672.002423 0.00140638
10.89887 704.19293 700.75366 672.327341 0.001420065
10.90767 697.96619 692.835839 672.652709 0.001432734
10.91648 694.31433 688.461889 672.978567 0.00144027
10.92529 692.37646 686.306634 673.304918 0.001444301
10.93409 691.54358 685.257256 673.631765 0.00144604
10.94290 691.1734 684.692317 673.959146 0.001446815
10.95171 691.15723 684.373885 674.286991 0.001446849
10.96052 690.85046 684.205563 674.615339 0.001447491
10.96932 691.13812 684.145985 674.944192 0.001446889
10.97813 692.54181 684.173955 675.273553 0.001443956
10.98694 694.07623 684.278444 675.603425 0.001440764
10.99575 694.66455 684.452768 675.933847 0.001439544
11.00455 695.9209 684.687604 676.264747 0.001436945
11.01336 697.01782 684.962726 676.596164 0.001434684
11.02217 698.07739 685.252844 676.928101 0.001432506
11.03097 697.49359 685.566464 677.26056 0.001433705
11.03978 696.46039 685.938174 677.593582 0.001435832
11.04859 695.39819 686.381595 677.927091 0.001438025
11.05740 695.65698 686.917143 678.261129 0.00143749
11.06620 696.31378 687.572932 678.595698 0.001436134
11.07501 696.73401 688.421269 678.9308 0.001435268
11.08382 696.77039 689.653415 679.266436 0.001435193
11.09262 697.11584 691.703763 679.602647 0.001434482
11.10143 699.30469 695.249126 679.939358 0.001429992
11.11024 702.95221 700.92305 680.27661 0.001422572
11.11905 709.15692 708.446784 680.614404 0.001410125
11.12785 715.94751 715.288813 680.952742 0.00139675
11.13666 718.98065 716.645931 681.291664 0.001390858
11.14547 714.88879 712.039721 681.631096 0.001398819
11.15428 708.76324 706.248465 681.971077 0.001410908
11.16308 704.83215 702.271822 682.311569 0.001418778
11.17189 704.24255 700.661899 682.652653 0.001419965
11.18070 704.88135 700.966748 682.99433 0.001418678
11.18950 706.00293 702.641595 683.336523 0.001416425
11.19831 708.27527 705.552576 683.679274 0.00141188
11.20712 712.16614 710.283441 684.022582 0.001404167
11.21592 719.51068 718.720982 684.36645 0.001389833
11.22473 733.526 734.880583 684.710879 0.001363278
11.23354 762.55115 764.58436 685.05591 0.001311387
11.24235 808.96692 811.816723 685.401465 0.001236144
11.25115 864.73975 871.098961 685.747584 0.001156417
11.25996 911.89795 916.438368 686.09427 0.001096614
11.26877 927.54907 911.75943 686.441522 0.00107811
11.27758 878.92358 868.793396 686.789381 0.001137755
11.28638 840.91211 829.867017 687.13777 0.001189185
11.29519 825.79694 821.047398 687.486729 0.001210951
11.30400 851.52478 854.319754 687.836259 0.001174364
11.31280 924.70654 930.497873 688.186359 0.001081424
11.32161 1013.1225 1030.516967 688.537033 0.000987047
11.33042 1061.8285 1098.096265 688.888319 0.000941772
11.33923 1021.7939 1068.854072 689.240139 0.000978671
11.34803 928.52533 969.839036 689.592533 0.001076977
11.35684 839.44305 869.706779 689.945503 0.001191266
11.36565 784.22687 798.778051 690.299048 0.001275141
11.37445 753.81226 757.949787 690.653209 0.00132659
11.38326 738.54077 737.32128 691.007906 0.001354021
11.39207 729.5484 727.185665 691.363181 0.001370711
11.40087 724.26508 721.846477 691.719032 0.00138071
11.40968 721.7356 718.806302 692.075461 0.001385549
11.41849 720.6947 717.163352 692.432467 0.00138755
11.42730 720.35602 716.59121 692.790092 0.001388202
11.43610 720.52753 716.900142 693.148255 0.001387872
11.44491 720.9198 717.789624 693.506995 0.001387117
11.45372 721.62024 718.681366 693.866314 0.00138577
11.46252 722.15918 719.245445 694.226211 0.001384736
11.47133 722.57635 719.963322 694.586726 0.001383937
11.48014 723.2561 721.371527 694.947779 0.001382636
11.48895 725.41479 723.739837 695.309409 0.001378522
11.49775 729.31659 727.245652 695.671617 0.001371147
11.50656 734.57416 732.155064 696.034402 0.001361333
11.51537 742.56781 739.065389 696.397763 0.001346678
11.52418 754.78204 749.477266 696.761743 0.001324886
11.53298 776.40112 767.230295 697.126257 0.001287994
11.54179 815.70569 801.023893 697.491346 0.001225932
11.55060 880.53754 865.860266 697.85701 0.00113567
11.55940 985.56036 977.836625 698.223248 0.001014651
11.56821 1139.5282 1138.077852 698.590102 0.000877556
11.57702 1303.1742 1305.274354 698.957487 0.000767357
11.58583 1394.2841 1375.129187 699.325444 0.000717214
11.59463 1355.7198 1292.018943 699.693972 0.000737616
11.60344 1229.0593 1157.294879 700.06307 0.00081363
11.61225 1132.5156 1073.39072 700.432737 0.00088299
11.62106 1118.1947 1073.698179 700.803015 0.000894299
11.62986 1151.418 1136.948764 701.173819 0.000868494
11.63867 1169.3625 1190.490813 701.545188 0.000855167
11.64748 1120.6617 1150.646706 701.91708 0.00089233
11.65628 1016.3038 1037.070947 702.289578 0.000983958
11.66509 915.83099 922.491813 702.662681 0.001091905
11.67390 845.17401 840.563328 703.036302 0.001183188
11.68270 803.50061 793.207986 703.410483 0.001244554
11.69151 782.37653 769.755696 703.785223 0.001278157
11.70032 771.47723 758.326229 704.160519 0.001296215
11.70913 762.66547 750.446819 704.536413 0.001311191
11.71793 753.4375 743.032968 704.912818 0.00132725
11.72674 744.66833 736.692725 705.289774 0.00134288
11.73555 738.38489 731.99842 705.667281 0.001354307
11.74435 734.00104 728.869471 706.045336 0.001362396
11.75316 731.2334 726.937276 706.423938 0.001367552
11.76197 729.57526 725.833699 706.803127 0.001370661
11.77078 729.02283 725.328189 707.182816 0.001371699
11.77958 728.56476 725.3211 707.563045 0.001372562
11.78839 727.55243 725.807294 707.943812 0.001374471
11.79720 727.1803 726.895164 708.325116 0.001375175
11.80601 728.57245 728.886878 708.706998 0.001372547
11.81481 731.55524 732.588325 709.089368 0.001366951
11.82362 737.6554 739.88943 709.472268 0.001355647
11.83243 749.63318 754.246343 709.855694 0.001333986
11.84123 774.22284 779.912048 710.239646 0.001291618
11.85004 821.66577 818.714751 710.62412 0.00121704
11.85885 887.30548 864.075604 711.009157 0.001127008
11.86765 936.15741 893.754126 711.394668 0.001068196
11.87646 927.28717 885.807016 711.780693 0.001078415
11.88527 870.57727 853.717227 712.16723 0.001148663
11.89408 808.17993 818.830712 712.554276 0.001237348
11.90288 769.18494 787.510208 712.941873 0.001300077
11.91169 748.11713 763.082408 713.329928 0.001336689
11.92050 737.6394 746.891787 713.718485 0.001355676
11.92930 731.76062 737.227646 714.107538 0.001366567
11.93811 729.27893 731.8211 714.497086 0.001371217
11.94692 728.57275 728.841003 714.887125 0.001372547
11.95573 727.57153 727.156349 715.277697 0.001374435
11.96453 727.08398 726.159877 715.668709 0.001375357
11.97334 726.71307 725.570187 716.060203 0.001376059
11.98215 727.01202 725.266491 716.452175 0.001375493
11.99095 727.83496 725.209991 716.844623 0.001373938
11.99976 728.63885 725.438706 717.237586 0.001372422
12.00857 729.21661 726.076075 717.630973 0.001371335
12.01738 730.37805 727.521855 718.024824 0.001369154
12.02618 732.97113 730.135578 718.419136 0.00136431
12.03499 736.5108 734.056723 718.813905 0.001357753
12.04380 739.69238 738.627629 719.209128 0.001351913
12.05261 741.89941 741.536537 719.604845 0.001347892
12.06141 741.30493 740.349276 720.000963 0.001348973
12.07022 738.85559 736.430674 720.397524 0.001353444
12.07903 736.17261 732.529249 720.794522 0.001358377
12.08783 734.44141 729.82144 721.191955 0.001361579
12.09664 733.54895 728.353418 721.589862 0.001363236
12.10545 732.80817 727.742296 721.988151 0.001364614
12.11426 732.40106 727.596637 722.386862 0.001365372
12.12306 732.28625 727.674176 722.78599 0.001365586
12.13187 733.06519 727.862771 723.185486 0.001364135
12.14068 733.73566 728.116545 723.585436 0.001362889
12.14948 734.3949 728.423639 723.985837 0.001361665
12.15829 735.23273 728.769182 724.386593 0.001360114
12.16710 736.51434 729.194077 724.787744 0.001357747
12.17591 737.6441 729.649599 725.189287 0.001355667
12.18471 739.12671 730.179782 725.591217 0.001352948
12.19352 740.08032 730.784928 725.993574 0.001351205
12.20233 740.55414 731.422127 726.396264 0.00135034
12.21113 740.24536 731.989191 726.799326 0.001350903
12.21994 739.83527 732.441804 727.202756 0.001351652
12.22875 739.45044 732.901763 727.606549 0.001352356
12.23756 740.26959 733.528056 728.010747 0.001350859
12.24636 741.56622 734.503609 728.415252 0.001348497
12.25517 743.08356 736.114091 728.820106 0.001345744
12.26398 745.26453 738.729505 729.225303 0.001341805
12.27278 749.26984 742.57244 729.630839 0.001334633
12.28159 754.72308 747.235978 730.036708 0.001324989
12.29040 757.96918 750.975683 730.442951 0.001319315
12.29921 757.43036 751.247243 730.84947 0.001320253
12.30801 754.02069 748.42668 731.256308 0.001326224
12.31682 750.07452 745.163415 731.663458 0.001333201
12.32563 747.61749 742.944962 732.070915 0.001337582
12.33443 746.37805 742.06504 732.478719 0.001339804
12.34324 746.63605 742.346074 732.886774 0.001339341
12.35205 748.95789 743.669177 733.295119 0.001335189
12.36086 754.31537 746.343309 733.70375 0.001325705
12.36966 763.97827 751.253738 734.11266 0.001308938
12.37847 780.94183 759.605722 734.521843 0.001280505
12.38728 808.54401 772.071901 734.931342 0.001236791
12.39608 845.86853 787.314239 735.341057 0.001182217
12.40489 877.46539 800.046445 735.751028 0.001139646
12.41370 889.8125 804.452098 736.161251 0.001123832
12.42251 884.71991 804.612657 736.571719 0.001130301
12.43131 877.68359 807.264065 736.982472 0.001139363
12.44012 876.33563 810.40296 737.393413 0.001141115
12.44893 864.66071 805.277866 737.804581 0.001156523
12.45773 835.96112 790.982645 738.21597 0.001196228
12.46654 804.90894 775.514484 738.627574 0.001242377
12.47535 779.50494 763.739445 739.039388 0.001282866
12.48416 765.716 756.44081 739.451451 0.001305967
12.49296 758.8103 752.575308 739.863665 0.001317852
12.50177 755.71393 750.725894 740.27607 0.001323252
12.51058 754.14404 749.923086 740.688659 0.001326007
12.51938 752.74561 749.619198 741.101426 0.00132847
12.52819 751.39673 749.584814 741.514412 0.001330855
12.53700 751.50946 749.719777 741.927516 0.001330655
12.54581 751.12219 749.978139 742.34078 0.001331341
12.55461 750.70361 750.332922 742.754196 0.001332084
12.56342 750.44952 750.767448 743.167759 0.001332535
12.57223 750.77161 751.271393 743.581462 0.001331963
12.58104 750.88153 751.838677 743.995344 0.001331768
12.58984 751.46356 752.466316 744.409306 0.001330737
12.59865 752.03137 753.157614 744.823388 0.001329732
12.60746 752.03455 753.907695 745.237584 0.001329726
12.61626 752.08801 754.724042 745.651886 0.001329632
12.62507 752.6828 755.613105 746.066288 0.001328581
12.63388 753.51794 756.576482 746.480784 0.001327108
12.64269 753.50031 757.639872 746.895366 0.001327139
12.65149 754.80664 758.811365 747.310028 0.001324843
12.66030 756.258 760.110234 747.724762 0.0013223
12.66911 757.65759 761.561391 748.139563 0.001319857
12.67791 758.51813 763.197474 748.55447 0.00131836
12.68672 760.59314 765.060405 748.969381 0.001314763
12.69553 762.46008 767.205985 749.384339 0.001311544
12.70434 764.06354 769.709542 749.799334 0.001308792
12.71314 765.82263 772.672835 750.214361 0.001305785
12.72195 768.37299 776.237468 750.629459 0.001301451
12.73076 771.81451 780.604175 751.044527 0.001295648
12.73956 775.81494 786.06867 751.459606 0.001288967
12.74837 781.0658 793.098666 751.874687 0.001280302
12.75718 789.4176 802.555857 752.289764 0.001266757
12.76599 803.44531 816.329007 752.70483 0.00124464
12.77479 825.8656 838.901177 753.119925 0.001210851
12.78360 864.69989 879.999234 753.534947 0.001156471
12.79241 933.77997 956.462507 753.949937 0.001070916
12.80121 1056.6105 1088.27888 754.364886 0.000946423
12.81002 1253.9011 1284.218695 754.779788 0.000797511
12.81883 1500.2803 1515.27568 755.194682 0.000666542
12.82764 1673.9633 1680.707823 755.609468 0.000597385
12.83644 1636.1666 1657.788565 756.024184 0.000611185
12.84525 1435.9658 1479.948929 756.438824 0.000696395
12.85406 1207.2592 1282.799556 756.85338 0.000828323
12.86286 1051.5685 1137.397814 757.267844 0.00095096
12.87167 966.57007 1042.406973 757.682257 0.001034586
12.88048 914.03595 970.563914 758.096517 0.001094049
12.88929 871.76715 912.266904 758.510664 0.001147095
12.89809 839.81195 869.281224 758.924689 0.001190743
12.90690 819.14288 840.779883 759.338587 0.001220788
12.91571 808.44995 823.975121 759.752395 0.001236935
12.92451 804.2038 815.779543 760.166014 0.001243466
12.93332 805.52313 813.987594 760.579481 0.001241429
12.94213 811.69684 817.751566 760.992791 0.001231987
12.95094 823.57703 827.285155 761.405934 0.001214216
12.95974 837.75421 843.056587 761.818905 0.001193668
12.96855 852.28156 865.417175 762.231741 0.001173321
12.97736 868.55157 896.890908 762.644343 0.001151342
12.98616 887.26721 937.979511 763.056748 0.001127056
12.99497 904.64807 974.644233 763.46895 0.001105402
13.00378 905.62921 977.59114 763.880941 0.001104205
13.01259 886.92212 940.027983 764.292761 0.001127495
13.02139 856.81873 889.578802 764.704308 0.001167108
13.03020 828.00153 847.354473 765.115621 0.001207727
13.03901 808.10382 819.099 765.526693 0.001237465
13.04781 796.01575 802.801836 765.937516 0.001256257
13.05662 789.03528 794.144221 766.348129 0.00126737
13.06543 784.66571 789.530129 766.758432 0.001274428
13.07424 781.76001 786.883863 767.168463 0.001279165
13.08304 781.00671 785.265644 767.578215 0.001280399
13.09185 780.61517 784.317828 767.98768 0.001281041
13.10066 779.69116 783.954413 768.396852 0.001282559
13.10947 779.34937 784.225503 768.805721 0.001283122
13.11827 782.49939 785.208777 769.214281 0.001277956
13.12708 785.6344 786.843282 769.622524 0.001272857
13.13589 786.90668 788.673809 770.030442 0.001270799
13.14469 786.82068 789.640168 770.438028 0.001270938
13.15350 785.32861 789.020533 770.845321 0.001273352
13.16231 783.14197 787.609575 771.25222 0.001276908
13.17112 781.93011 786.407446 771.658764 0.001278887
13.17992 781.46564 785.821228 772.064946 0.001279647
13.18873 781.23077 785.859387 772.470758 0.001280032
13.19754 781.18335 786.40711 772.876192 0.001280109
13.20634 781.26038 787.356084 773.281288 0.001279983
13.21515 782.09393 788.676387 773.685945 0.001278619
13.22396 783.35962 790.442241 774.090202 0.001276553
13.23277 785.81494 792.891417 774.494051 0.001272564
13.24157 789.55688 796.604091 774.897486 0.001266533
13.25038 795.39667 802.81627 775.300543 0.001257234
13.25919 804.53833 813.675988 775.703125 0.001242949
13.26799 818.81073 831.888506 776.10527 0.001221283
13.27680 840.25061 859.238223 776.50697 0.001190121
13.28561 865.87073 893.843028 776.908218 0.001154907
13.29442 892.96533 925.778932 777.309006 0.001119864
13.30322 921.03143 940.149537 777.709373 0.001085739
13.31203 945.52313 938.354433 778.10922 0.001057616
13.32084 963.08063 931.921504 778.508585 0.001038335
13.32964 962.37036 918.669354 778.907462 0.001039101
13.33845 935.67725 893.500737 779.305842 0.001068745
13.34726 896.85455 865.021609 779.703763 0.001115008
13.35607 861.92444 842.451351 780.101129 0.001160195
13.36487 840.00232 828.58213 780.497977 0.001190473
13.37368 830.5426 823.210769 780.894299 0.001204032
13.38249 831.36627 825.899599 781.290088 0.001202839
13.39129 840.15936 837.173973 781.685338 0.00119025
13.40010 855.53857 857.793723 782.080086 0.001168854
13.40891 875.0614 886.11865 782.474236 0.001142777
13.41772 888.94867 913.774 782.867824 0.001124924
13.42652 897.20367 923.481148 783.260844 0.001114574
13.43533 885.17719 906.845538 783.653289 0.001129717
13.44414 868.29004 878.288706 784.045196 0.001151689
13.45294 850.89539 852.632025 784.436469 0.001175233
13.46175 836.28125 835.136076 784.827147 0.00119577
13.47056 827.99805 825.522687 785.217221 0.001207732
13.47937 823.362 821.502425 785.606685 0.001214533
13.48817 821.6004 820.85819 785.995532 0.001217137
13.49698 822.91315 822.257568 786.3838 0.001215195
13.50579 825.11121 825.200355 786.771393 0.001211958
13.51459 830.0094 829.773848 787.158349 0.001204806
13.52340 837.81763 836.549404 787.544661 0.001193577
13.53221 850.10358 846.614591 787.930322 0.001176327
13.54102 868.40045 861.568989 788.31537 0.001151542
13.54982 895.89349 883.572283 788.699709 0.001116204
13.55863 940.30774 915.851603 789.083378 0.001063482
13.56744 1005.3618 963.789866 789.46637 0.000994667
13.57625 1096.0135 1038.38406 789.848679 0.000912398
13.58505 1232.0002 1160.694759 790.230297 0.000811688
13.59386 1415.1028 1347.999659 790.611218 0.000706662
13.60267 1649.3783 1584.164285 790.991437 0.000606289
13.61147 1873.1737 1785.512141 791.370946 0.000533853
13.62028 1951.0372 1815.504321 791.749739 0.000512548
13.62909 1795.8512 1647.438517 792.12781 0.000556839
13.63790 1507.5698 1403.588801 792.505196 0.000663319
13.64670 1250.8917 1189.675562 792.881805 0.00079943
13.65551 1086.2723 1040.796573 793.257673 0.000920579
13.66432 990.69482 951.539868 793.632794 0.001009393
13.67312 935.0462 902.668128 794.007163 0.001069466
13.68193 901.26068 876.261811 794.380815 0.001109557
13.69074 879.01038 861.030661 794.75366 0.001137643
13.69955 863.28247 851.370209 795.125734 0.001158369
13.70835 851.80981 844.821892 795.497032 0.001173971
13.71716 843.86371 840.292609 795.867548 0.001185025
13.72597 837.81354 837.235572 796.237275 0.001193583
13.73477 833.62097 835.342413 796.60625 0.001199586
13.74358 831.24353 834.441188 796.974384 0.001203017
13.75239 830.48944 834.462919 797.341712 0.001204109
13.76120 830.05609 835.426964 797.70823 0.001204738
13.77000 831.25262 837.455938 798.073932 0.001203004
13.77881 834.67322 840.823796 798.438853 0.001198074
13.78762 840.27161 846.125101 798.802906 0.001190091
13.79642 848.79272 854.646974 799.166126 0.001178144
13.80523 864.35303 868.972121 799.528508 0.001156935
13.81404 889.98523 893.265205 799.890047 0.001123614
13.82284 932.66724 931.779057 800.250737 0.001072194
13.83165 987.55774 985.417549 800.610615 0.001012599
13.84046 1049.2355 1046.679411 800.969594 0.000953075
13.84927 1096.3788 1095.09095 801.327709 0.000912094
13.85807 1129.625 1116.854481 801.684955 0.00088525
13.86688 1154.5968 1136.935485 802.041328 0.000866103
13.87569 1207.7521 1187.768435 802.396862 0.000827984
13.88450 1277.3929 1272.360414 802.751473 0.000782844
13.89330 1340.704 1352.939991 803.105197 0.000745877
13.90211 1346.484 1367.301028 803.458027 0.000742675
13.91092 1303.2363 1314.742555 803.809961 0.000767321
13.91972 1250.6512 1257.605048 804.160992 0.000799583
13.92853 1236.2118 1229.772658 804.511158 0.000808923
13.93734 1224.7888 1214.311436 804.860372 0.000816467
13.94615 1204.8998 1169.927892 805.208672 0.000829945
13.95495 1135.5703 1093.403418 805.556052 0.000880615
13.96376 1049.8303 1015.080093 805.902508 0.000952535
13.97257 983.08246 952.786663 806.248076 0.001017209
13.98137 929.92542 909.979072 806.592672 0.001075355
13.99018 898.78845 883.854646 806.936333 0.001112609
13.99899 880.7749 869.354798 807.279053 0.001135364
14.00780 869.94019 862.233034 807.62083 0.001149504
14.01660 865.43329 860.364591 807.961659 0.001155491
14.02541 865.8891 863.663526 808.301575 0.001154882
14.03422 872.54712 873.374982 808.640497 0.00114607
14.04303 887.45789 890.778383 808.97846 0.001126814
14.05183 909.28882 915.178973 809.31546 0.001099761
14.06064 938.51929 940.917229 809.651495 0.001065508
14.06945 962.51105 955.585655 809.986598 0.001038949
14.07825 970.75708 952.591047 810.320652 0.001030124
14.08706 966.63428 945.15302 810.653768 0.001034517
14.09587 971.52979 949.788037 810.985904 0.001029305
14.10467 982.70038 973.204271 811.317058 0.001017604
14.11348 1003.1409 1010.311189 811.647264 0.000996869
14.12229 1015.8583 1040.839387 811.976443 0.000984389
14.13110 1004.9056 1037.486154 812.304631 0.000995118
14.13990 977.79645 1001.566694 812.631825 0.001022708
14.14871 944.10815 959.866346 812.958021 0.001059201
14.15752 914.78119 931.117577 813.283217 0.001093158
14.16633 904.37378 922.235261 813.607447 0.001105737
14.17513 907.53741 933.672302 813.930635 0.001101883
14.18394 921.66675 961.152255 814.252815 0.001084991
14.19275 942.45685 995.919876 814.573984 0.001061057
14.20155 968.66046 1028.230397 814.894141 0.001032353
14.21036 987.73108 1043.077995 815.21332 0.001012421
14.21917 984.59827 1023.29814 815.531445 0.001015643
14.22798 953.64709 978.334808 815.84855 0.001048606
14.23678 912.21149 931.807211 816.164635 0.001096237
14.24559 879.8078 895.996064 816.479696 0.001136612
14.25440 860.71106 872.853693 816.793732 0.00116183
14.26320 850.37036 859.947026 817.106776 0.001175958
14.27201 845.72528 853.994873 817.418756 0.001182417
14.28082 844.54706 852.781113 817.729705 0.001184067
14.28962 845.62677 855.481187 818.039622 0.001182555
14.29843 849.51563 861.935646 818.348505 0.001177141
14.30724 854.50275 871.45111 818.656389 0.001170271
14.31605 858.88336 881.292492 818.963201 0.001164302
14.32485 860.20807 885.785528 819.268975 0.001162509
14.33366 858.88538 881.407556 819.57371 0.0011643
14.34247 854.74353 872.401226 819.877405 0.001169942
14.35127 849.9046 864.328083 820.180059 0.001176603
14.36008 846.38263 859.796152 820.481705 0.001181499
14.36889 846.46289 859.564715 820.782274 0.001181387
14.37770 849.45355 863.857277 821.081798 0.001177227
14.38650 857.31848 873.280444 821.380279 0.001166428
14.39531 870.54791 889.095667 821.677714 0.001148702
14.40412 892.52094 912.962531 821.974136 0.001120422
14.41293 924.68414 946.704021 822.269479 0.00108145
14.42173 961.401 989.440842 822.563775 0.001040149
14.43054 992.25824 1032.446978 822.857024 0.001007802
14.43935 1010.4632 1060.843299 823.149226 0.000989645
14.44815 1011.5972 1065.35768 823.44038 0.000988536
14.45696 1009.6226 1058.358813 823.730519 0.000990469
14.46577 1011.5408 1060.627569 824.019578 0.000988591
14.47458 1027.8075 1075.369859 824.307589 0.000972945
14.48338 1039.2327 1083.510956 824.594553 0.000962248
14.49219 1026.1302 1064.534021 824.88047 0.000974535
14.50100 991.45117 1029.728968 825.165372 0.001008623
14.50981 960.27441 1003.590021 825.449195 0.001041369
14.51861 946.62231 997.106501 825.731972 0.001056388
14.52742 949.62946 1005.972729 826.013703 0.001053042
14.53623 956.53876 1012.253656 826.29439 0.001045436
14.54503 956.02448 997.140966 826.574033 0.001045998
14.55384 941.51013 963.350328 826.852663 0.001062123
14.56265 916.79034 926.684249 827.130188 0.001090762
14.57145 892.8595 897.080075 827.406704 0.001119997
14.58026 874.99072 876.921693 827.682178 0.001142869
14.58907 863.20587 864.720957 827.956614 0.001158472
14.59788 856.229 857.853941 828.230042 0.001167912
14.60668 851.53619 854.066776 828.502402 0.001174348
14.61549 848.71851 851.986027 828.773726 0.001178247
14.62430 847.50574 850.938567 829.044017 0.001179933
14.63310 848.14758 850.683472 829.313274 0.00117904
14.64191 850.38409 851.266464 829.581532 0.001175939
14.65072 854.2738 853.035853 829.848729 0.001170585
14.65953 860.68164 856.751936 830.114898 0.00116187
14.66833 870.82642 863.63558 830.380042 0.001148334
14.67714 888.11249 875.044046 830.644163 0.001125983
14.68595 916.26746 891.654038 830.907261 0.001091384
14.69476 955.05688 911.903109 831.169369 0.001047058
14.70356 1004.0815 929.786644 831.43043 0.000995935
14.71237 1036.3096 937.40595 831.690475 0.000964963
14.72118 1035.1206 933.958965 831.949508 0.000966071
14.72998 998.54303 922.466255 832.207529 0.001001459
14.73879 962.5127 906.362332 832.464572 0.001038947
14.74760 925.81451 891.927431 832.72058 0.00108013
14.75641 906.45941 883.745011 832.975584 0.001103193
14.76521 898.5589 883.386229 833.229589 0.001112893
14.77402 901.1358 890.585704 833.482596 0.001109711
14.78283 910.80627 903.267625 833.734608 0.001097928
14.79163 924.34692 916.690671 833.985657 0.001081845
14.80044 934.76221 924.386966 834.235688 0.001069791
14.80925 937.59271 921.268432 834.484734 0.001066561
14.81805 930.35291 908.504032 834.732798 0.001074861
14.82686 915.04016 893.490567 834.979882 0.001092848
14.83567 898.77551 881.695722 835.226018 0.001112625
14.84448 886.66534 874.916277 835.471154 0.001127821
14.85328 880.75537 873.305051 835.71532 0.001135389
14.86209 880.22913 877.059912 835.958521 0.001136068
14.87090 885.92621 887.538895 836.20076 0.001128762
14.87970 900.02234 907.460982 836.442041 0.001111084
14.88851 922.46606 939.758218 836.682395 0.001084051
14.89732 952.98212 984.668557 836.921771 0.001049338
14.90613 987.44897 1035.007489 837.1602 0.001012711
14.91493 1018.3495 1072.347537 837.397686 0.000981981
14.92374 1031.3015 1075.985002 837.634234 0.000969649
14.93255 1013.6144 1042.822024 837.869874 0.000986568
14.94136 969.89197 992.767269 838.104557 0.001031043
14.95016 926.29669 946.633098 838.338314 0.001079568
14.95897 896.7511 912.850134 838.571149 0.001115137
14.96778 880.01221 891.563371 838.803066 0.001136348
14.97658 870.58539 879.615618 839.034071 0.001148652
14.98539 865.31311 873.485027 839.264194 0.001155651
14.99420 862.21033 870.629129 839.493387 0.00115981
15.00301 861.2384 869.631391 839.72168 0.001161119
15.01181 861.6886 869.866963 839.94908 0.001160512
15.02062 863.08881 871.138632 840.17559 0.001158629
15.02943 865.81018 873.497418 840.401242 0.001154988
15.03824 869.08386 877.244444 840.625988 0.001150637
15.04704 875.4021 883.152779 840.849834 0.001142332
15.05585 884.92841 892.98815 841.072836 0.001130035
15.06466 900.3924 910.292558 841.294974 0.001110627
15.07346 921.57892 940.865267 841.516253 0.001085094
15.08227 953.05249 991.727289 841.736702 0.00104926
15.09108 996.89526 1067.314217 841.956279 0.001003114
15.09988 1054.4197 1162.770577 842.175012 0.000948389
15.10869 1110.4482 1253.270114 842.392908 0.000900537
15.11750 1143.9366 1289.348624 842.609971 0.000874174
15.12631 1134.4183 1243.124446 842.826233 0.000881509
15.13511 1092.514 1151.687231 843.041649 0.00091532
15.14392 1037.9366 1062.204804 843.25625 0.00096345
15.15273 996.98486 996.168051 843.470041 0.001003024
15.16153 971.53461 957.675051 843.683029 0.001029299
15.17034 961.5589 943.117649 843.895219 0.001039978
15.17915 966.42688 946.501161 844.106642 0.001034739
15.18796 982.87573 961.102593 844.317254 0.001017423
15.19676 1000.1418 977.638364 844.527087 0.000999858
15.20557 1002.1228 982.859693 844.736146 0.000997882
15.21438 986.15009 970.13532 844.944438 0.001014044
15.22319 962.59662 948.242647 845.151992 0.001038857
15.23199 941.04547 927.786579 845.358767 0.001062648
15.24080 925.68884 913.124529 845.564794 0.001080277
15.24961 917.06036 904.376976 845.770078 0.001090441
15.25841 913.25067 900.235615 845.974627 0.00109499
15.26722 914.22205 899.651979 846.178446 0.001093826
15.27603 920.02826 902.129494 846.381565 0.001086923
15.28483 930.37634 907.787975 846.583944 0.001074834
15.29364 946.71863 917.559082 846.785614 0.00105628
15.30245 974.2403 933.549138 846.98658 0.001026441
15.31126 1015.5159 959.6394 847.18685 0.000984721
15.32006 1075.4622 1002.14046 847.386454 0.000929833
15.32887 1156.2634 1069.823149 847.585351 0.000864855
15.33768 1259.9205 1172.415591 847.783572 0.000793701
15.34648 1382.671 1315.756246 847.981125 0.000723238
15.35529 1538.5809 1491.266951 848.178015 0.00064995
15.36410 1717.7085 1672.20822 848.374271 0.000582171
15.37291 1884.0289 1805.52917 848.569858 0.000530777
15.38171 1959.394 1805.353033 848.764803 0.000510362
15.39052 1857.526 1655.31767 848.959113 0.00053835
15.39933 1617.1736 1445.207651 849.152797 0.000618363
15.40813 1391.2638 1254.475506 849.345861 0.000718771
15.41694 1217.364 1113.312745 849.538334 0.000821447
15.42575 1108.9473 1021.808789 849.730179 0.000901756
15.43456 1038.5549 967.447955 849.921426 0.000962876
15.44336 992.86786 936.141373 850.112082 0.001007183
15.45217 961.5423 917.460361 850.302154 0.001039996
15.46098 939.96826 905.363698 850.491672 0.001063866
15.46979 923.74414 896.845471 850.680599 0.001082551
15.47859 911.24152 890.483091 850.868965 0.001097404
15.48740 902.11682 885.569744 851.056776 0.001108504
15.49621 895.11469 881.700807 851.244041 0.001117175
15.50501 889.64008 878.605886 851.430767 0.00112405
15.51382 884.95166 876.126171 851.616982 0.001130005
15.52263 880.80548 874.123821 851.802652 0.001135324
15.53144 877.8551 872.50487 851.987785 0.00113914
15.54024 876.05524 871.20134 852.172429 0.001141481
15.54905 873.97711 870.165238 852.356573 0.001144195
15.55786 871.84106 869.365721 852.540244 0.001146998
15.56666 869.89417 868.782455 852.723407 0.001149565
15.57547 868.93951 868.440651 852.906093 0.001150828
15.58428 869.25916 868.350648 853.088308 0.001150405
15.59309 869.54547 868.555269 853.27006 0.001150026
15.60189 869.38239 869.09096 853.451357 0.001150242
15.61070 870.039 869.976046 853.632227 0.001149374
15.61951 870.74188 871.198393 853.812637 0.001148446
15.62831 872.06128 872.825474 853.992615 0.001146708
15.63712 874.26196 875.361523 854.172168 0.001143822
15.64593 877.24347 879.782349 854.351306 0.001139934
15.65474 881.34589 887.014342 854.530055 0.001134628
15.66354 885.56946 897.276412 854.708384 0.001129217
15.67235 889.49615 909.331304 854.886319 0.001124232
15.68116 892.37781 920.035483 855.063869 0.001120602
15.68996 892.02155 924.230008 855.241043 0.001121049
15.69877 888.40063 918.444818 855.417846 0.001125618
15.70758 882.39221 906.463805 855.594309 0.001133283
15.71639 877.69806 894.253227 855.770397 0.001139344
15.72519 874.10291 884.801868 855.94614 0.00114403
15.73400 872.95734 878.729433 856.121545 0.001145531
15.74281 873.28613 875.613461 856.29662 0.0011451
15.75161 875.39056 874.843883 856.471392 0.001142347
15.76042 878.7063 876.11191 856.64583 0.001138037
15.76923 883.7514 879.480139 856.819962 0.00113154
15.77804 891.25079 885.09959 856.993794 0.001122019
15.78684 901.36108 892.669997 857.167336 0.001109433
15.79565 912.99847 900.667168 857.340595 0.001095292
15.80446 921.38788 905.688917 857.513598 0.001085319
15.81326 924.29675 904.852601 857.686314 0.001081904
15.82207 920.40692 900.188145 857.858771 0.001086476
15.83088 912.28827 896.234831 858.030975 0.001096145
15.83969 907.37842 896.306206 858.202936 0.001102076
15.84849 908.29285 902.353482 858.374679 0.001100966
15.85730 917.26447 915.097665 858.546175 0.001090198
15.86611 931.95502 933.366283 858.71745 0.001073013
15.87491 950.83319 952.488809 858.888512 0.001051709
15.88372 963.47742 962.857523 859.059368 0.001037907
15.89253 962.49567 956.52246 859.230027 0.001038966
15.90134 947.02441 938.197873 859.400515 0.001055939
15.91014 926.31549 917.965803 859.570801 0.001079546
15.91895 908.59174 901.434607 859.740912 0.001100604
15.92776 896.68512 890.023576 859.910856 0.001115219
15.93656 889.52283 883.08198 860.080641 0.001124198
15.94537 883.84546 879.251107 860.250293 0.00113142
15.95418 879.96808 877.288273 860.41978 0.001136405
15.96299 877.48389 876.359671 860.589131 0.001139622
15.97179 875.76251 876.026524 860.758353 0.001141862
15.98060 875.39063 876.085886 860.927452 0.001142347
15.98941 875.6062 876.457154 861.096436 0.001142066
15.99822 875.74731 877.114973 861.265332 0.001141882
16.00702 876.29047 878.070971 861.434109 0.001141174
16.01583 877.1983 879.366082 861.602775 0.001139993
16.02464 878.7583 881.087265 861.771393 0.001137969
16.03344 881.36847 883.406596 861.939894 0.001134599
16.04225 885.0766 886.684425 862.108382 0.001129846
16.05106 890.04602 891.643354 862.276749 0.001123537
16.05987 896.48242 899.596098 862.445097 0.001115471
16.06867 906.99799 912.494218 862.613357 0.001102538
16.07748 921.33716 932.511853 862.781613 0.001085379
16.08629 940.60284 960.836673 862.949814 0.001063148
16.09510 963.30396 995.755598 863.118006 0.001038094
16.10390 986.37445 1029.706083 863.286138 0.001013814
16.11271 1000.8154 1048.221869 863.454293 0.000999185
16.12151 1002.34 1043.011552 863.622401 0.000997665
16.13032 992.75323 1025.857453 863.790547 0.0010073
16.13913 984.20752 1014.960608 863.958679 0.001016046
16.14794 987.54883 1022.332108 864.126842 0.001012608
16.15674 1008.4953 1053.94132 864.294985 0.000991576
16.16555 1053.0496 1110.320472 864.463192 0.000949623
16.17436 1117.4672 1182.932181 864.631393 0.000894881
16.18317 1196.6842 1251.552743 864.799689 0.000835642
16.19197 1272.2151 1291.5201 864.967972 0.000786031
16.20078 1304.9026 1284.886468 865.136345 0.000766341
16.20959 1267.5385 1235.606264 865.304736 0.000788931
16.21840 1183.2659 1163.935188 865.47323 0.000845119
16.22720 1085.6788 1088.084488 865.641754 0.000921083
16.23601 1007.541 1022.837062 865.810412 0.000992515
16.24482 954.43958 974.906367 865.979094 0.001047735
16.25362 926.00458 943.214795 866.147902 0.001079908
16.26243 909.26318 923.740219 866.316766 0.001099792
16.27124 900.98279 912.417718 866.485729 0.001109899
16.28005 897.22339 906.339198 866.654855 0.00111455
16.28885 897.08356 903.960699 866.824034 0.001114723
16.29766 899.9032 904.795799 866.993368 0.001111231
16.30646 905.56372 908.888215 867.162786 0.001104285
16.31527 913.68616 916.160228 867.332371 0.001094468
16.32408 926.04767 925.557092 867.502069 0.001079858
16.33289 939.08368 933.89309 867.671925 0.001064868
16.34169 945.9762 936.149097 867.841887 0.001057109
16.35050 940.64191 930.734768 868.012036 0.001063104
16.35931 926.94818 921.563097 868.182301 0.001078809
16.36812 911.59167 912.237954 868.352764 0.001096982
16.37692 902.15216 904.067196 868.523371 0.00110846
16.38573 895.53058 897.668101 868.694168 0.001116656
16.39454 891.05481 893.277758 868.865099 0.001122265
16.40335 888.07721 890.62795 869.036248 0.001126028
16.41215 886.35779 889.288435 869.207542 0.001128213
16.42096 886.25696 888.900402 869.379063 0.001128341
16.42977 886.91431 889.246882 869.550757 0.001127505
16.43857 888.18292 890.252343 869.722667 0.001125894
16.44738 890.93378 892.014536 869.89474 0.001122418
16.45619 894.50586 894.826783 870.067057 0.001117936
16.46499 899.29254 899.211211 870.239546 0.001111985
16.47380 907.19592 905.936538 870.412306 0.001102298
16.48261 918.46906 915.983637 870.585226 0.001088768
16.49142 935.73602 930.463701 870.758407 0.001068677
16.50022 958.90173 950.169377 870.931774 0.00104286
16.50903 989.66522 975.13727 871.10541 0.001010443
16.51784 1024.8527 1005.943996 871.279259 0.00097575
16.52665 1065.5686 1043.98784 871.453365 0.000938466
16.53545 1103.5244 1085.235984 871.627671 0.000906187
16.54426 1133.8783 1116.340702 871.80226 0.000881929
16.55307 1131.5503 1124.550935 871.977056 0.000883743
16.56187 1102.0597 1106.615123 872.152141 0.000907392
16.57068 1061.1241 1067.523022 872.32746 0.000942397
16.57949 1021.2459 1022.075381 872.503054 0.000979196
16.58829 988.04773 983.859999 872.678867 0.001012097
16.59710 970.31415 958.278512 872.854982 0.001030594
16.60591 960.08893 945.284388 873.031321 0.00104157
16.61472 962.37866 942.159939 873.207966 0.001039092
16.62352 966.85236 944.624862 873.384861 0.001034284
16.63233 969.47235 946.9236 873.562048 0.001031489
16.64114 962.02563 943.994583 873.739469 0.001039473
16.64995 948.51245 936.266042 873.917206 0.001054282
16.65875 934.30847 927.964176 874.095181 0.00107031
16.66756 925.63623 922.341746 874.273497 0.001080338
16.67637 922.34937 921.243212 874.452034 0.001084188
16.68518 926.36475 926.129148 874.630896 0.001079488
16.69398 935.80505 938.630698 874.810003 0.001068599
16.70279 960.07324 960.317104 874.989437 0.001041587
16.71160 992.45404 991.481788 875.16914 0.001007603
16.72040 1049.2054 1028.897536 875.349153 0.000953102
16.72921 1086.8447 1062.622479 875.529417 0.000920095
16.73802 1110.5452 1077.387432 875.710014 0.000900459
16.74682 1094.3241 1065.892111 875.890863 0.000913806
16.75563 1055.3146 1037.706153 876.072006 0.000947585
16.76444 1012.0709 1006.819176 876.253506 0.000988073
16.77324 983.22052 980.322926 876.435241 0.001017066
16.78205 962.05627 960.906728 876.617312 0.00103944
16.79086 953.01178 950.362003 876.79964 0.001049305
16.79967 950.16193 949.580341 876.982306 0.001052452
16.80847 959.05054 959.139215 877.165248 0.001042698
16.81728 972.53577 979.696386 877.348509 0.00102824
16.82609 999.0719 1011.177024 877.532027 0.001000929
16.83490 1026.854 1050.694255 877.715883 0.000973848
16.84370 1057.5048 1090.76269 877.899995 0.000945622
16.85251 1077.4122 1123.235321 878.084446 0.00092815
16.86132 1086.5358 1140.045202 878.269172 0.000920356
16.87013 1072.167 1128.847943 878.454216 0.000932691
16.87893 1044.7072 1089.258102 878.639513 0.000957206
16.88774 1009.741 1039.212776 878.825147 0.000990353
16.89654 978.09863 994.457637 879.011033 0.001022392
16.90535 955.21179 960.8944 879.197275 0.001046888
16.91416 939.04395 938.614926 879.383745 0.001064913
16.92297 928.24335 925.19635 879.570548 0.001077304
16.93177 921.79327 917.782571 879.757598 0.001084842
16.94058 918.43353 914.150358 879.944978 0.00108881
16.94939 918.12079 913.07457 880.132623 0.001089181
16.95820 919.47186 914.268108 880.320573 0.001087581
16.96700 924.85498 918.256373 880.508764 0.001081251
16.97581 935.44189 926.245455 880.697278 0.001069013
16.98462 953.97168 939.82925 880.886028 0.001048249
16.99342 984.49915 960.379133 881.075097 0.001015745
17.00223 1030.1414 987.724815 881.264419 0.000970741
17.01104 1078.6698 1018.052641 881.454035 0.000927068
17.01985 1107.0278 1043.162469 881.643877 0.00090332
17.02865 1104.1339 1054.991094 881.834029 0.000905687
17.03746 1075.3732 1048.903942 882.024401 0.00092991
17.04627 1036.4202 1025.515142 882.215078 0.00096486
17.05507 999.66949 994.162689 882.405992 0.001000331
17.06388 969.70746 965.049182 882.597182 0.001031239
17.07269 948.46649 942.827753 882.788581 0.001054334
17.08150 934.62671 928.022972 882.980272 0.001069946
17.09030 926.37726 919.43544 883.172165 0.001079474
17.09911 921.39349 915.57248 883.364365 0.001085313
17.10792 919.54926 915.426684 883.556737 0.001087489
17.11673 919.42529 918.651048 883.749387 0.001087636
17.12553 921.76453 925.236727 883.942223 0.001084876
17.13434 926.74847 934.879798 884.13533 0.001079041
17.14315 933.47498 946.115051 884.328637 0.001071266
17.15196 940.71918 955.361464 884.522183 0.001063016
17.16076 944.77307 957.537962 884.715899 0.001058455
17.16957 943.20752 951.207861 884.909869 0.001060212
17.17837 937.34064 940.829567 885.103998 0.001066848
17.18718 931.1239 931.257031 885.298372 0.001073971
17.19599 927.18951 924.947642 885.492918 0.001078528
17.20480 925.92426 922.67163 885.687677 0.001080002
17.21360 927.99744 924.233715 885.882576 0.001077589
17.22241 932.60223 928.760963 886.077699 0.001072269
17.23122 937.89246 934.590395 886.272953 0.00106622
17.24002 941.49463 938.993115 886.468398 0.001062141
17.24883 942.09802 939.547265 886.664028 0.001061461
17.25764 940.13953 937.026589 886.859773 0.001063672
17.26645 937.93842 934.271699 887.055714 0.001066168
17.27525 937.66479 933.304783 887.251758 0.001066479
17.28406 940.37952 934.950591 887.447986 0.0010634
17.29287 947.2052 939.38434 887.644328 0.001055737
17.30168 955.974 946.795291 887.840819 0.001046054
17.31048 967.078 958.599353 888.037389 0.001034043
17.31929 981.63812 978.331278 888.234119 0.001018705
17.32810 1004.6193 1010.87365 888.430914 0.000995402
17.33691 1036.8979 1060.960979 888.627878 0.000964415
17.34571 1083.0319 1130.586873 888.824872 0.000923334
17.35452 1140.0563 1214.821182 889.022 0.00087715
17.36332 1206.2477 1296.841651 889.219166 0.000829017
17.37213 1262.1199 1352.016359 889.416453 0.000792318
17.38094 1295.688 1363.137137 889.613763 0.000771791
17.38975 1289.6578 1334.371277 889.811201 0.000775399
17.39855 1259.9863 1291.776775 890.008627 0.000793659
17.40736 1234.1875 1255.760401 890.206144 0.00081025
17.41617 1213.5331 1226.340493 890.403655 0.00082404
17.42498 1190.8789 1197.117145 890.601243 0.000839716
17.43378 1161.7371 1165.765356 890.798832 0.00086078
17.44259 1123.5251 1127.849603 890.996461 0.000890056
17.45140 1083.7372 1082.315308 891.194052 0.000922733
17.46020 1041.1573 1036.79454 891.391689 0.00096047
17.46901 1004.2222 998.684127 891.589274 0.000995796
17.47782 976.90417 970.330587 891.786887 0.001023642
17.48663 958.64655 950.872453 891.984454 0.001043137
17.49543 945.39917 938.21905 892.182012 0.001057754
17.50424 936.05157 930.191576 892.379484 0.001068317
17.51305 929.45392 925.058982 892.576951 0.001075901
17.52185 925.72308 921.689989 892.774316 0.001080237
17.53066 923.54749 919.440169 892.971682 0.001082781
17.53947 922.00507 917.989805 893.168905 0.001084593
17.54828 921.22388 917.21173 893.36609 0.001085512
17.55708 920.75098 917.136729 893.563136 0.00108607
17.56589 921.71722 917.969182 893.760126 0.001084931
17.57470 924.04321 920.169586 893.95696 0.0010822
17.58351 928.77631 924.504167 894.153741 0.001076686
17.59231 937.09406 931.952553 894.350326 0.001067129
17.60112 948.34912 943.358014 894.546817 0.001054464
17.60993 966.28552 958.773498 894.743115 0.001034891
17.61873 989.11072 976.472989 894.939301 0.001011009
17.62754 1008.9464 991.495054 895.135298 0.000991133
17.63635 1015.3762 996.448309 895.33114 0.000984857
17.64515 1010.6652 989.014472 895.526752 0.000989447
17.65396 995.06335 975.311514 895.722213 0.001004961
17.66277 981.65845 961.880598 895.917423 0.001018684
17.67158 969.3222 951.119414 896.112463 0.001031649
17.68038 959.24481 942.458654 896.307255 0.001042487
17.68919 948.61627 935.016159 896.501835 0.001054167
17.69800 938.65094 928.891653 896.696124 0.001065359
17.70681 931.91083 924.268186 896.890203 0.001073064
17.71561 926.50439 921.029627 897.083972 0.001079326
17.72442 922.56213 919.004926 897.277487 0.001083938
17.73323 922.06256 918.022544 897.470739 0.001084525
17.74203 922.06342 917.914833 897.66365 0.001084524
17.75084 922.11981 918.586404 897.856299 0.001084458
17.75965 924.23914 920.093612 898.048587 0.001081971
17.76846 927.68671 922.738279 898.240614 0.00107795
17.77726 932.68152 927.168134 898.432237 0.001072177
17.78607 940.05103 934.432971 898.623555 0.001063772
17.79488 950.35565 945.829256 898.814471 0.001052238
17.80368 964.06537 962.433131 899.005061 0.001037274
17.81249 983.70111 984.240724 899.195228 0.001016569
17.82130 1006.7294 1008.908578 899.385068 0.000993316
17.83010 1030.0315 1029.951033 899.574442 0.000970844
17.83891 1042.9518 1038.244307 899.763448 0.000958817
17.84772 1036.9944 1031.980934 899.951987 0.000964325
17.85653 1015.931 1020.631699 900.140135 0.000984319
17.86533 997.48016 1014.530225 900.327818 0.001002526
17.87414 990.0575 1018.864773 900.515066 0.001010042
17.88295 992.61432 1033.788313 900.701805 0.001007441
17.89176 1002.3764 1054.252742 900.88811 0.000997629
17.90056 1012.7827 1069.478775 901.073884 0.000987379
17.90937 1016.5371 1069.241483 901.259201 0.000983732
17.91818 1015.0039 1056.374133 901.443988 0.000985218
17.92698 1012.6208 1043.210177 901.628274 0.000987536
17.93579 1017.3571 1038.762451 901.811987 0.000982939
17.94460 1028.1332 1045.205293 901.995199 0.000972637
17.95341 1044.8204 1058.11624 902.177815 0.000957102
17.96221 1058.1158 1066.455243 902.359929 0.000945076
17.97102 1061.7367 1058.91266 902.541405 0.000941853
17.97983 1048.3633 1036.476719 902.722335 0.000953868
17.98863 1028.3104 1009.553463 902.902627 0.000972469
17.99744 1002.7589 986.140933 903.082351 0.000997249
18.00625 983.73425 969.495429 903.261415 0.001016535
18.01506 970.95166 960.046592 903.439909 0.001029917
18.02386 965.66266 956.937245 903.6177 0.001035558
18.03267 964.66974 958.949715 903.79488 0.001036624
18.04148 969.26929 965.143104 903.971356 0.001031705
18.05028 977.07806 975.52257 904.147198 0.00102346
18.05909 986.76727 991.104437 904.322335 0.00101341
18.06790 1000.4268 1012.56729 904.496795 0.000999573
18.07671 1016.204 1038.056803 904.67051 0.000984054
18.08551 1032.0884 1060.906103 904.843546 0.000968909
18.09432 1045.5066 1071.267269 905.015814 0.000956474
18.10313 1048.4861 1064.659271 905.187383 0.000953756
18.11193 1037.173 1044.686926 905.358182 0.000964159
18.12074 1018.2031 1018.642137 905.52824 0.000982122
18.12955 997.198 993.933736 905.697488 0.00100281
18.13836 980.92474 974.772651 905.865994 0.001019446
18.14716 970.7298 962.188329 906.033668 0.001030153
18.15597 966.10864 955.662098 906.200597 0.00103508
18.16478 965.16516 954.492067 906.366656 0.001036092
18.17359 968.36255 958.593568 906.531929 0.001032671
18.18239 976.56036 968.805987 906.696331 0.001024002
18.19120 990.30994 986.610879 906.859925 0.001009785
18.20001 1011.4116 1013.199487 907.022628 0.000988717
18.20881 1039.5365 1048.018765 907.184486 0.000961967
18.21762 1070.9271 1086.570048 907.345486 0.00093377
18.22643 1093.4126 1117.705307 907.505565 0.000914568
18.23523 1100.6656 1126.996707 907.664786 0.000908541
18.24404 1094.371 1112.685639 907.823066 0.000913767
18.25285 1081.3257 1089.665582 907.980486 0.000924791
18.26166 1070.8505 1072.8937 908.136927 0.000933837
18.27046 1072.2897 1069.119486 908.29247 0.000932584
18.27927 1084.1125 1077.611257 908.447034 0.000922413
18.28808 1100.2363 1090.699809 908.60068 0.000908896
18.29688 1105.2487 1095.805789 908.753346 0.000904774
18.30569 1096.1219 1084.550307 908.905058 0.000912307
18.31450 1071.9113 1061.072507 909.055753 0.000932913
18.32331 1045.6342 1035.26406 909.205493 0.000956357
18.33211 1021.8088 1013.241285 909.3542 0.000978657
18.34092 1006.4297 996.640971 909.501931 0.000993611
18.34973 996.00238 985.725513 909.648629 0.001004014
18.35854 992.99463 980.864697 909.794317 0.001007055
18.36734 994.24512 982.638551 909.938938 0.001005788
18.37615 1001.6519 992.243446 910.082548 0.000998351
18.38496 1016.5385 1011.731234 910.225074 0.000983731
18.39376 1042.8831 1043.501402 910.366572 0.00095888
18.40257 1082.2068 1089.014586 910.506986 0.000924038
18.41138 1138.9657 1146.833687 910.64634 0.00087799
18.42019 1205.4569 1209.127374 910.784577 0.000829561
18.42899 1277.2466 1259.803645 910.921754 0.000782934
18.43780 1338.5153 1286.348348 911.057799 0.000747096
18.44661 1383.0458 1296.270961 911.192784 0.000723042
18.45541 1403.9783 1302.695064 911.326607 0.000712262
18.46422 1399.4169 1302.402326 911.459338 0.000714583
18.47303 1355.1353 1279.527061 911.59091 0.000737934
18.48184 1277.4878 1231.055991 911.721375 0.000782786
18.49064 1190.1837 1173.282997 911.850681 0.000840206
18.49945 1121.5627 1122.11891 911.978851 0.000891613
18.50826 1076.2474 1085.75795 912.105836 0.000929154
18.51706 1051.6942 1066.457921 912.231686 0.000950847
18.52587 1041.1472 1061.50484 912.356337 0.000960479
18.53468 1041.5648 1063.754893 912.479841 0.000960094
18.54349 1044.7245 1063.830269 912.602148 0.00095719
18.55229 1043.5428 1055.512706 912.723282 0.000958274
18.56110 1030.7968 1038.466534 912.843194 0.000970123
18.56991 1012.5211 1016.938465 912.961934 0.000987634
18.57871 993.61481 996.538984 913.079442 0.001006426
18.58752 979.87836 980.81529 913.195781 0.001020535
18.59633 971.03302 971.029043 913.310865 0.001029831
18.60514 968.48969 967.150488 913.424755 0.001032536
18.61394 970.8689 968.543388 913.537394 0.001030005
18.62275 978.78137 974.137752 913.648831 0.001021679
18.63156 990.06812 982.18837 913.759008 0.001010032
18.64037 1000.8279 989.727769 913.867985 0.000999173
18.64917 1005.7406 993.315215 913.975684 0.000994292
18.65798 1002.2005 992.747624 914.082161 0.000997804
18.66679 993.55957 991.95109 914.187366 0.001006482
18.67559 986.88422 994.77508 914.291341 0.00101329
18.68440 986.02783 1002.420087 914.394049 0.00101417
18.69321 991.74365 1012.901722 914.495487 0.001008325
18.70201 999.52081 1020.633141 914.595686 0.001000479
18.71082 1003.9456 1018.944785 914.694598 0.00099607
18.71963 999.32904 1007.138474 914.792266 0.001000671
18.72844 990.21936 990.953195 914.888653 0.001009877
18.73724 978.72595 975.759923 914.983781 0.001021736
18.74605 970.49207 964.096571 915.077614 0.001030405
18.75486 963.95209 956.584478 915.170193 0.001037396
18.76366 961.89996 952.944237 915.261476 0.001039609
18.77247 963.34375 952.670086 915.351502 0.001038051
18.78128 968.17047 955.542088 915.44024 0.001032876
18.79009 976.35516 961.941061 915.527709 0.001024217
18.79889 989.67352 973.005471 915.613878 0.001010434
18.80770 1007.6262 990.649729 915.698787 0.000992432
18.81651 1033.6329 1016.882448 915.782398 0.000967461
18.82531 1069.8326 1052.27621 915.864747 0.000934726
18.83412 1113.3798 1093.793066 915.945807 0.000898166
18.84293 1154.4126 1131.913491 916.025597 0.000866241
18.85174 1178.121 1150.304004 916.104092 0.000848809
18.86054 1172.8728 1138.187078 916.181326 0.000852607
18.86935 1138.7384 1103.561732 916.257268 0.000878165
18.87816 1090.8561 1062.139108 916.33196 0.000916711
18.88697 1046.6438 1024.340245 916.405355 0.000955435
18.89577 1012.7408 994.650342 916.477496 0.000987419
18.90458 988.90472 973.799205 916.548351 0.00101122
18.91339 972.74658 960.41376 916.617957 0.001028017
18.92219 960.96588 952.453075 916.686291 0.00104062
18.93100 953.80707 948.032863 916.753372 0.00104843
18.93981 948.92285 945.740207 916.819181 0.001053826
18.94862 945.40375 944.523904 916.883751 0.001057749
18.95742 942.8822 943.582495 916.947056 0.001060578
18.96623 941.84357 942.528066 917.009129 0.001061747
18.97504 940.27423 941.49965 917.069952 0.00106352
18.98384 938.81793 940.813033 917.129545 0.001065169
18.99265 938.82233 940.666514 917.187891 0.001065164
19.00146 939.56586 941.167427 917.245021 0.001064321
19.01027 940.63544 942.407449 917.300916 0.001063111
19.01907 942.82025 944.550268 917.355606 0.001060648
19.02788 946.07233 947.948089 917.409077 0.001057002
19.03669 951.02203 953.306852 917.461348 0.0010515
19.04549 957.75061 961.841063 917.512407 0.001044113
19.05430 968.2052 975.34699 917.562285 0.001032839
19.06311 982.86438 995.952598 917.610964 0.001017434
19.07192 1004.0878 1025.494461 917.658479 0.000995929
19.08072 1031.5616 1064.339993 917.704806 0.000969404
19.08953 1066.6223 1109.603863 917.749978 0.000937539
19.09834 1104.9795 1152.60775 917.793982 0.000904994
19.10714 1135.3298 1180.491723 917.836846 0.000880801
19.11595 1146.1616 1187.33328 917.878564 0.000872477
19.12476 1140.8756 1179.68565 917.919154 0.00087652
19.13357 1129.8154 1168.116473 917.958611 0.0008851
19.14237 1124.1648 1160.111425 917.996961 0.000889549
19.15118 1121.4965 1154.697463 918.034197 0.000891666
19.15999 1120.3671 1142.821951 918.070346 0.000892565
19.16879 1112.4979 1118.876224 918.105403 0.000898878
19.17760 1092.8627 1087.988248 918.13938 0.000915028
19.18641 1067.2297 1057.013888 918.172299 0.000937005
19.19522 1041.6077 1028.530228 918.204154 0.000960054
19.20402 1017.1688 1003.658229 918.234972 0.000983121
19.21283 997.79144 983.726981 918.264753 0.001002213
19.22164 982.01709 969.087633 918.293515 0.001018312
19.23044 970.42035 959.089644 918.321259 0.001030481
19.23925 961.57007 952.782643 918.348011 0.001039966
19.24806 955.4198 949.343 918.37377 0.00104666
19.25687 952.23322 948.152717 918.398561 0.001050163
19.26567 951.22119 948.723301 918.422386 0.00105128
19.27448 950.37421 950.531961 918.445266 0.001052217
19.28329 949.66644 952.76868 918.467204 0.001053001
19.29209 949.68451 954.17373 918.488225 0.001052981
19.30090 949.1825 953.690582 918.508332 0.001053538
19.30971 947.56683 951.679969 918.527551 0.001055335
19.31852 945.67285 949.572832 918.545883 0.001057448
19.32732 944.24115 948.71765 918.563352 0.001059051
19.33613 944.58893 950.190819 918.579965 0.001058662
19.34494 947.81281 955.030265 918.595745 0.001055061
19.35374 954.52356 964.261039 918.610701 0.001047643
19.36255 963.10834 978.624613 918.624851 0.001038305
19.37136 974.70544 997.981463 918.638208 0.001025951
19.38017 989.00391 1020.361001 918.650791 0.001011118
19.38897 1004.6531 1040.449185 918.662613 0.000995368
19.39778 1015.9291 1049.60405 918.673694 0.000984321
19.40659 1014.0031 1042.271073 918.684047 0.00098619
19.41540 998.34515 1022.871961 918.693691 0.001001658
19.42420 978.16962 1000.161928 918.70264 0.001022318
19.43301 961.84637 979.893192 918.710915 0.001039667
19.44182 950.80029 964.30823 918.718529 0.001051746
19.45062 943.80945 953.584331 918.725504 0.001059536
19.45943 939.98926 946.964618 918.731855 0.001063842
19.46824 937.57709 943.463253 918.7376 0.001066579
19.47705 936.57611 942.343682 918.742758 0.001067719
19.48585 936.94287 943.299846 918.747347 0.001067301
19.49466 938.9729 946.407326 918.751385 0.001064993
19.50347 943.87152 951.92042 918.754893 0.001059466
19.51227 952.18396 959.943695 918.757887 0.001050217
19.52108 964.34357 970.054397 918.760389 0.001036975
19.52989 978.83453 980.684832 918.762415 0.001021623
19.53870 989.86389 988.721662 918.763987 0.00101024
19.54750 992.2453 991.18449 918.765124 0.001007815
19.55631 988.91541 988.794344 918.765846 0.001011209
19.56512 983.34656 985.139426 918.766173 0.001016935
19.57392 980.39587 982.729565 918.766124 0.001019996
19.58273 980.49658 981.551104 918.765721 0.001019891
19.59154 981.18909 979.736245 918.764983 0.001019172
19.60035 978.94574 976.074484 918.763932 0.001021507
19.60915 975.20508 972.022838 918.762587 0.001025425
19.61796 972.04333 970.031782 918.760971 0.001028761
19.62677 972.15405 971.505211 918.759103 0.001028644
19.63557 975.85815 976.392268 918.757006 0.001024739
19.64438 980.76764 983.03084 918.7547 0.001019609
19.65319 984.50519 987.921146 918.752206 0.001015739
19.66200 983.71857 987.164268 918.749547 0.001016551
19.67080 978.62573 980.18132 918.746743 0.001021841
19.67961 970.84052 970.206554 918.743817 0.001030035
19.68842 962.03442 960.643236 918.74079 0.001039464
19.69722 955.13318 953.37297 918.737684 0.001046974
19.70603 951.35498 949.166585 918.73452 0.001051132
19.71484 950.13635 948.259553 918.731322 0.001052481
19.72365 951.36365 950.629908 918.728111 0.001051123
19.73245 954.35522 956.065731 918.724909 0.001047828
19.74126 958.94641 964.005676 918.721737 0.001042811
19.75007 965.10968 973.144742 918.718619 0.001036152
19.75887 970.59479 980.908939 918.715577 0.001030296
19.76768 975.23535 984.145304 918.712633 0.001025394
19.77649 976.78943 981.844664 918.709809 0.001023762
19.78530 975.77484 976.356276 918.707127 0.001024827
19.79410 974.42041 971.294231 918.70461 0.001026251
19.80291 975.43683 969.458084 918.70228 0.001025182
19.81172 980.84692 972.331367 918.700159 0.001019527
19.82052 992.6142 980.212872 918.698271 0.001007441
19.82933 1009.991 992.121063 918.696635 0.000990108
19.83814 1030.5225 1005.270818 918.695276 0.000970382
19.84695 1049.2307 1015.150366 918.694214 0.000953079
19.85575 1059.8887 1018.49299 918.693473 0.000943495
19.86456 1059.1868 1016.228595 918.693074 0.000944121
19.87337 1051.5251 1010.996847 918.693038 0.000951
19.88218 1040.8713 1004.128324 918.693389 0.000960734
19.89098 1028.4808 995.345845 918.694147 0.000972308
19.89979 1014.5272 984.404827 918.695335 0.000985681
19.90860 999.72009 972.877183 918.696973 0.00100028
19.91740 985.32428 963.036549 918.699084 0.001014894
19.92621 973.42017 956.283661 918.701687 0.001027306
19.93502 966.31702 953.094239 918.704806 0.001034857
19.94383 962.44147 953.387575 918.70846 0.001039024
19.95263 961.18323 956.615841 918.71267 0.001040384
19.96144 963.27252 961.619772 918.717456 0.001038128
19.97025 965.29382 966.295706 918.722841 0.001035954
19.97905 964.14154 967.779122 918.728841 0.001037192
19.98786 959.95654 964.495479 918.735482 0.001041714
19.99667 953.62134 957.850967 918.742776 0.001048634
20.00548 946.62799 950.381994 918.75075 0.001056381
20.01428 940.84595 943.749867 918.759417 0.001062873
20.02309 936.52002 938.602036 918.768801 0.001067783
20.03190 932.83081 934.996476 918.778917 0.001072006
20.04070 929.99261 932.705194 918.789787 0.001075277
20.04951 928.59723 931.399927 918.801424 0.001076893
20.05832 927.96967 930.785923 918.813852 0.001077621
20.06713 927.68817 930.641068 918.827082 0.001077948
20.07593 927.2655 930.87907 918.841137 0.00107844
20.08474 927.58539 931.46145 918.85603 0.001078068
20.09355 929.31677 932.498219 918.87178 0.001076059
20.10235 932.46466 934.277464 918.888398 0.001072427
20.11116 936.56525 937.24828 918.905907 0.001067731
20.11997 942.20361 941.929053 918.924314 0.001061342
20.12878 949.08984 948.759272 918.943644 0.001053641
20.13758 956.99652 957.841832 918.963899 0.001044936
20.14639 964.70856 968.582319 918.985098 0.001036582
20.15520 969.86609 979.156218 919.007261 0.00103107
20.16400 972.29749 986.217054 919.030389 0.001028492
20.17281 971.96826 986.598591 919.054509 0.00102884
20.18162 968.95795 980.682854 919.079616 0.001032037
20.19043 964.97906 971.840691 919.105735 0.001036292
20.19923 960.3399 962.835787 919.132865 0.001041298
20.20804 955.46667 954.826496 919.161029 0.001046609
20.21685 950.99329 948.301502 919.190222 0.001051532
20.22565 947.45422 943.508103 919.220472 0.00105546
20.23446 944.33087 940.383696 919.251764 0.001058951
20.24327 941.70587 938.668251 919.284126 0.001061903
20.25208 940.01837 938.144769 919.317548 0.001063809
20.26088 939.87036 938.768978 919.352052 0.001063977
20.26969 939.84991 940.725066 919.387632 0.001064
20.27850 941.25568 944.45609 919.424302 0.001062411
20.28730 944.71722 950.629102 919.462051 0.001058518
20.29611 950.08112 959.986 919.500902 0.001052542
20.30492 956.76123 973.004582 919.540838 0.001045193
20.31373 965.77679 989.434393 919.58188 0.001035436
20.32253 975.91284 1007.547249 919.624014 0.001024682
20.33134 984.46576 1023.211845 919.66725 0.001015779
20.34015 989.474 1030.520836 919.711573 0.001010638
20.34896 990.21277 1026.758866 919.757001 0.001009884
20.35776 987.60309 1016.043585 919.80351 0.001012553
20.36657 984.32074 1005.04835 919.851124 0.001015929
20.37538 983.28809 998.357623 919.899806 0.001016996
20.38418 987.97601 997.830934 919.949577 0.00101217
20.39299 1000.7913 1003.138424 920.000409 0.000999209
20.40180 1017.5257 1011.820694 920.052317 0.000982776
20.41060 1031.1398 1019.220139 920.105269 0.000969801
20.41941 1034.5448 1020.33801 920.159285 0.000966609
20.42822 1027.2559 1014.426329 920.214319 0.000973467
20.43703 1015.6441 1005.857093 920.270389 0.000984597
20.44583 1005.8987 999.683523 920.327457 0.000994136
20.45464 1003.11 999.061622 920.385535 0.0009969
20.46345 1008.6888 1005.320844 920.444588 0.000991386
20.47226 1019.5854 1018.183439 920.504613 0.000980791
20.48106 1035.558 1035.496456 920.565571 0.000965663
20.48987 1054.8619 1053.358394 920.627472 0.000947991
20.49868 1073.8956 1067.816027 920.690267 0.000931189
20.50748 1085.8724 1076.774173 920.753962 0.000920919
20.51629 1089.6611 1080.552107 920.818514 0.000917717
20.52510 1086.4778 1081.119681 920.883913 0.000920405
20.53391 1077.4869 1078.160649 920.95011 0.000928086
20.54271 1067.594 1067.985903 921.017109 0.000936686
20.55152 1055.3049 1049.35325 921.084851 0.000947593
20.56033 1038.3737 1026.679081 921.153345 0.000963044
20.56913 1017.2365 1005.231011 921.222511 0.000983056
20.57794 996.66333 987.494615 921.292358 0.001003348
20.58675 981.07166 973.681955 921.362817 0.001019294
20.59556 969.65961 963.217257 921.433886 0.00103129
20.60436 961.98657 955.637902 921.505493 0.001039516
20.61317 957.15833 950.535486 921.577641 0.001044759
20.62198 955.37897 947.420969 921.65024 0.001046705
20.63078 955.28333 945.753215 921.72327 0.00104681
20.63959 955.67316 944.938233 921.796705 0.001046383
20.64840 956.03986 944.287524 921.870464 0.001045981
20.65721 954.17773 943.223278 921.944543 0.001048023
20.66601 950.4704 941.695437 922.018839 0.001052111
20.67482 945.15234 940.09211 922.093345 0.00105803
20.68363 941.12097 938.800516 922.167972 0.001062563
20.69243 938.75183 938.0633 922.242698 0.001065244
20.70124 937.60138 938.038068 922.317442 0.001066551
20.71005 937.72949 938.870323 922.392161 0.001066406
20.71886 939.57758 940.727372 922.466767 0.001064308
20.72766 943.23267 943.796358 922.541231 0.001060184
20.73647 948.52515 948.22818 922.615455 0.001054268
20.74528 955.47607 954.001241 922.689403 0.001046599
20.75408 964.00635 960.681062 922.762981 0.001037338
20.76289 973.51428 967.358744 922.836134 0.001027206
20.77170 984.80994 973.138721 922.908762 0.001015424
20.78051 992.20544 977.456644 922.980823 0.001007856
20.78931 992.94232 979.320799 923.052205 0.001007108
20.79812 987.07806 977.418309 923.122858 0.001013091
20.80693 978.12061 972.040252 923.192677 0.001022369
20.81574 969.21362 965.324181 923.26159 0.001031764
20.82454 962.43665 959.329596 923.329487 0.001039029
20.83335 957.78528 955.202534 923.396307 0.001044075
20.84216 956.3678 953.482859 923.461927 0.001045623
20.85096 958.34589 954.467443 923.526289 0.001043465
20.85977 962.73883 958.423257 923.589249 0.001038703
20.86858 970.07874 965.66731 923.650745 0.001030844
20.87738 978.97864 976.496851 923.710643 0.001021473
20.88619 994.47742 990.932079 923.768865 0.001005553
20.89500 1011.29 1008.21655 923.825282 0.000988836
20.90381 1032.583 1026.661644 923.879796 0.000968445
20.91261 1056.0823 1044.534677 923.932273 0.000946896
20.92142 1083.4464 1060.674054 923.982619 0.000922981
20.93023 1109.7627 1073.592728 924.030693 0.000901094
20.93904 1129.6892 1080.65035 924.076391 0.000885199
20.94784 1135.1019 1078.344199 924.119574 0.000880978
20.95665 1119.8966 1065.083141 924.16012 0.00089294
20.96546 1088.2144 1043.745006 924.197885 0.000918937
20.97426 1050.7676 1020.090748 924.232751 0.000951685
20.98307 1018.3774 998.840925 924.264562 0.000981954
20.99188 993.48859 982.102727 924.293196 0.001006554
21.00069 977.12628 970.13889 924.318488 0.001023409
21.00949 966.34204 962.2359 924.340305 0.00103483
21.01830 958.76483 957.433163 924.358485 0.001043009
21.02711 954.25513 955.027232 924.372883 0.001047938
21.03591 952.15833 954.77186 924.383333 0.001050245
21.04472 950.68915 956.843308 924.389679 0.001051869
21.05353 951.91003 961.796283 924.391753 0.001050519
21.06234 955.87305 970.426223 924.389386 0.001046164
21.07114 963.17535 983.499952 924.38241 0.001038233
21.07995 976.76398 1001.276796 924.370643 0.001023789
21.08876 997.34912 1022.849431 924.353912 0.001002658
21.09756 1020.5507 1045.167842 924.332027 0.000979863
21.10637 1036.5524 1062.524318 924.304812 0.000964737
21.11518 1040.2729 1068.41685 924.272071 0.000961286
21.12399 1034.0122 1060.449753 924.2336 0.000967107
21.13279 1020.3715 1043.10302 924.189213 0.000980035
21.14160 1003.7853 1023.634791 924.138699 0.000996229
21.15041 990.69092 1007.07176 924.081867 0.001009397
21.15921 982.47095 995.273271 924.018484 0.001017842
21.16802 978.72961 987.947009 923.948362 0.001021733
21.17683 978.11853 983.650194 923.871252 0.001022371
21.18564 978.72632 980.564754 923.786956 0.001021736
21.19444 976.8432 977.339993 923.695227 0.001023706
21.20325 972.0105 973.97833 923.595868 0.001028795
21.21206 967.59601 971.214149 923.488597 0.001033489
21.22086 965.91382 969.333252 923.373223 0.001035289
21.22967 965.24884 968.091013 923.24945 0.001036002
21.23848 965.37561 967.590365 923.117068 0.001035866
21.24729 965.82269 968.735329 922.975795 0.001035387
21.25609 966.43787 972.589744 922.825422 0.001034728
21.26490 970.3924 979.712571 922.665619 0.001030511
21.27371 978.06372 989.791152 922.49619 0.001022428
21.28252 988.26648 1001.171145 922.316766 0.001011873
21.29132 997.46082 1010.586026 922.127191 0.001002546
21.30013 1002.0121 1014.811541 921.927078 0.000997992
21.30894 1001.1353 1013.684122 921.716232 0.000998866
21.31774 998.03247 1009.396284 921.494264 0.001001971
21.32655 992.7298 1003.027451 921.260953 0.001007323
21.33536 985.03491 994.216636 921.015942 0.001015192
21.34416 973.93988 983.544919 920.759011 0.001026757
21.35297 962.62463 972.9004 920.489731 0.001038827
21.36178 954.01282 963.856453 920.207908 0.001048204
21.37059 948.83752 956.990837 919.913089 0.001053921
21.37939 946.63513 952.066578 919.605047 0.001056373
21.38820 945.00262 948.356536 919.283376 0.001058198
21.39701 942.97931 945.219161 918.947852 0.001060469
21.40582 939.81836 942.554598 918.597975 0.001064035
21.41462 936.46216 940.519643 918.233557 0.001067849
21.42343 933.58472 939.070457 917.854075 0.00107114
21.43224 932.03406 937.864279 917.459296 0.001072922
21.44104 931.11511 936.419748 917.048761 0.001073981
21.44985 930.13623 934.495353 916.622242 0.001075111
21.45866 928.54138 932.316018 916.179166 0.001076958
21.46746 927.15179 930.314558 915.719349 0.001078572
21.47627 927.17505 928.819379 915.242137 0.001078545
21.48508 927.00903 928.025737 914.747458 0.001078738
21.49389 927.13409 928.061188 914.234631 0.001078593
21.50269 928.51819 928.99596 913.703482 0.001076985
21.51150 930.5257 930.838649 913.153352 0.001074661
21.52031 933.52307 933.490754 912.584005 0.001071211
21.52912 937.08398 936.798584 911.994884 0.00106714
21.53792 940.73352 940.521172 911.385758 0.001063
21.54673 943.82642 944.037729 910.755911 0.001059517
21.55554 944.73541 946.204551 910.105181 0.001058497
21.56434 944.80768 946.148705 909.432818 0.001058416
21.57315 945.18799 944.354987 908.738588 0.001057991
21.58196 945.18573 942.268178 908.021866 0.001057993
21.59077 944.33148 941.108912 907.282425 0.00105895
21.59957 944.48755 941.314257 906.519625 0.001058775
21.60838 946.98761 942.573915 905.732797 0.00105598
21.61719 950.01917 944.272394 904.92171 0.00105261
21.62599 952.37781 945.838284 904.085678 0.001050003
21.63480 953.78052 946.287298 903.224481 0.001048459
21.64361 952.2381 944.146159 902.337212 0.001050158
21.65241 947.53668 938.850592 901.423751 0.001055368
21.66122 942.21954 931.584064 900.483152 0.001061324
21.67003 936.75836 924.034172 899.515193 0.001067511
21.67884 932.00745 917.25542 898.519109 0.001072953
21.68764 929.02521 911.638887 897.49469 0
21.69645 927.56525 0 0 0
21.70526 925.93463 0 0 0
21.71407 925.12622 0 0 0
21.72287 925.42719 0 0 0
21.73168 926.19104 0 0 0
21.74049 927.19287 0 0 0
21.74929 929.34631 0 0 0
21.75810 932.19507 0 0 0
21.76691 936.05286 0 0 0
21.77572 941.87592 0 0 0
21.78452 949.95154 0 0 0
21.79333 957.89685 0 0 0
21.80214 963.40948 0 0 0
21.81094 966.54443 0 0 0
21.81975 967.76788 0 0 0
21.82856 965.27649 0 0 0
21.83737 959.59686 0 0 0
21.84617 952.09558 0 0 0
21.85498 944.79529 0 0 0
21.86379 938.88721 0 0 0
21.87260 934.67157 0 0 0
21.88140 932.2981 0 0 0
21.89021 931.26648 0 0 0
21.89901 931.79901 0 0 0
21.90782 932.29852 0 0 0
21.91663 934.29242 0 0 0
21.92544 938.05518 0 0 0
21.93424 943.08173 0 0 0
21.94305 948.10199 0 0 0
21.95186 954.61395 0 0 0
21.96067 959.91394 0 0 0
21.96947 960.92853 0 0 0
21.97828 956.14172 0 0 0
21.98709 948.3515 0 0 0
21.99590 941.40826 0 0 0
22.00470 936.21667 0 0 0
22.01351 932.50256 0 0 0
22.02232 929.8269 0 0 0
22.03112 927.26337 0 0 0
22.03993 925.18298 0 0 0
22.04874 924.46832 0 0 0
22.05755 923.82465 0 0 0
22.06635 924.10095 0 0 0
22.07516 924.21985 0 0 0
22.08396 924.65283 0 0 0
22.09277 925.4989 0 0 0
22.10158 927.57233 0 0 0
22.11039 929.65833 0 0 0
22.11919 932.18494 0 0 0
22.12800 934.87183 0 0 0
22.13681 937.45068 0 0 0
22.14562 940.32629 0 0 0
22.15442 943.31299 0 0 0
22.16323 947.16333 0 0 0
22.17204 952.6756 0 0 0
22.18085 958.51849 0 0 0
22.18965 964.72217 0 0 0
22.19846 970.22729 0 0 0
22.20727 973.41724 0 0 0
22.21607 972.82349 0 0 0
22.22488 971.82135 0 0 0
22.23369 969.23511 0 0 0
22.24250 967.7674 0 0 0
22.25130 967.34332 0 0 0
22.26011 968.52325 0 0 0
22.26892 970.1358 0 0 0
22.27772 971.27124 0 0 0
22.28653 972.65851 0 0 0
22.29534 975.83051 0 0 0
22.30415 980.26166 0 0 0
22.31295 987.42517 0 0 0
22.32176 995.09821 0 0 0
22.33057 1001.0816 0 0 0
22.33938 1003.235 0 0 0
22.34818 1003.6655 0 0 0
22.35699 1003.3737 0 0 0
22.36579 1002.1539 0 0 0
22.37460 997.56226 0 0 0
22.38341 988.49249 0 0 0
22.39222 976.06268 0 0 0
22.40102 965.24219 0 0 0
22.40983 955.7323 0 0 0
22.41864 950.29645 0 0 0
22.42745 946.13843 0 0 0
22.43625 944.54376 0 0 0
22.44506 944.8089 0 0 0
22.45387 946.75061 0 0 0
22.46268 948.77594 0 0 0
22.47148 950.99609 0 0 0
22.48029 953.24292 0 0 0
22.48910 956.33295 0 0 0
22.49790 960.04388 0 0 0
22.50671 963.74103 0 0 0
22.51552 964.70831 0 0 0
22.52432 963.06219 0 0 0
22.53313 961.60602 0 0 0
22.54194 962.98779 0 0 0
22.55075 967.23865 0 0 0
22.55955 974.86957 0 0 0
22.56836 986.89789 0 0 0
22.57717 1001.8633 0 0 0
22.58597 1019.3824 0 0 0
22.59478 1033.8069 0 0 0
22.60359 1039.6681 0 0 0
22.61240 1031.2937 0 0 0
22.62120 1012.6155 0 0 0
22.63001 996.08777 0 0 0
22.63882 984.28394 0 0 0
22.64763 978.35272 0 0 0
22.65643 976.2702 0 0 0
22.66524 976.49481 0 0 0
22.67405 976.638 0 0 0
22.68285 972.26135 0 0 0
22.69166 963.7193 0 0 0
22.70047 955.24731 0 0 0
22.70927 950.23346 0 0 0
22.71808 948.68121 0 0 0
22.72689 949.05536 0 0 0
22.73570 950.85242 0 0 0
22.74450 954.39801 0 0 0
22.75331 960.28607 0 0 0
22.76212 969.82385 0 0 0
22.77093 982.2865 0 0 0
22.77973 994.08185 0 0 0
22.78854 1006.1434 0 0 0
22.79735 1016.8892 0 0 0
22.80615 1027.1295 0 0 0
22.81496 1031.1278 0 0 0
22.82377 1027.7266 0 0 0
22.83257 1017.953 0 0 0
22.84138 1005.0193 0 0 0
22.85019 994.09351 0 0 0
22.85900 988.15375 0 0 0
22.86780 986.78589 0 0 0
22.87661 988.46436 0 0 0
22.88542 991.0827 0 0 0
22.89423 993.25757 0 0 0
22.90303 994.25134 0 0 0
22.91184 994.30579 0 0 0
22.92065 996.31018 0 0 0
22.92946 1000.9725 0 0 0
22.93826 1008.5369 0 0 0
22.94707 1015.5851 0 0 0
22.95587 1018.2459 0 0 0
22.96468 1016.9371 0 0 0
22.97349 1014.8696 0 0 0
22.98230 1012.5592 0 0 0
22.99110 1011.8702 0 0 0
22.99991 1013.0784 0 0 0
23.00872 1014.371 0 0 0
23.01753 1014.2914 0 0 0
23.02633 1011.9975 0 0 0
23.03514 1003.6478 0 0 0
23.04395 991.02936 0 0 0
23.05275 977.68494 0 0 0
23.06156 967.32526 0 0 0
23.07037 960.45483 0 0 0
23.07918 957.33246 0 0 0
23.08798 956.82483 0 0 0
23.09679 957.1546 0 0 0
23.10560 957.30957 0 0 0
23.11441 957.06396 0 0 0
23.12321 956.81244 0 0 0
23.13202 956.38666 0 0 0
23.14082 956.81427 0 0 0
23.14963 957.51385 0 0 0
23.15844 958.57434 0 0 0
23.16725 958.05463 0 0 0
23.17605 957.3006 0 0 0
23.18486 957.11884 0 0 0
23.19367 956.60651 0 0 0
23.20248 954.38934 0 0 0
23.21128 951.17969 0 0 0
23.22009 949.27545 0 0 0
23.22890 950.39673 0 0 0
23.23770 953.65619 0 0 0
23.24651 956.51483 0 0 0
23.25532 956.4682 0 0 0
23.26413 953.05707 0 0 0
23.27293 946.63324 0 0 0
23.28174 941.14423 0 0 0
23.29055 936.53687 0 0 0
23.29935 932.95343 0 0 0
23.30816 930.83087 0 0 0
23.31697 930.13269 0 0 0
23.32578 930.00946 0 0 0
23.33458 930.79688 0 0 0
23.34339 932.56897 0 0 0
23.35220 935.54919 0 0 0
23.36101 940.48804 0 0 0
23.36981 944.5802 0 0 0
23.37862 948.08777 0 0 0
23.38743 951.88196 0 0 0
23.39624 955.91797 0 0 0
23.40504 958.81787 0 0 0
23.41385 960.25873 0 0 0
23.42265 961.49115 0 0 0
23.43146 961.00415 0 0 0
23.44027 958.36066 0 0 0
23.44908 956.58728 0 0 0
23.45788 956.34467 0 0 0
23.46669 956.81366 0 0 0
23.47550 957.35529 0 0 0
23.48431 956.95947 0 0 0
23.49311 954.98822 0 0 0
23.50192 952.1394 0 0 0
23.51073 948.59027 0 0 0
23.51954 945.14233 0 0 0
23.52834 942.02136 0 0 0
23.53715 940.01788 0 0 0
23.54596 937.75275 0 0 0
23.55476 935.02692 0 0 0
23.56357 934.00031 0 0 0
23.57238 933.38416 0 0 0
23.58118 933.0307 0 0 0
23.58999 934.29492 0 0 0
23.59880 935.67395 0 0 0
23.60760 936.51703 0 0 0
23.61641 938.659 0 0 0
23.62522 942.68628 0 0 0
23.63403 947.84186 0 0 0
23.64283 953.33105 0 0 0
23.65164 959.14661 0 0 0
23.66045 963.34656 0 0 0
23.66926 963.45538 0 0 0
23.67806 961.41364 0 0 0
23.68687 957.81769 0 0 0
23.69568 952.96692 0 0 0
23.70448 948.92456 0 0 0
23.71329 945.48779 0 0 0
23.72210 941.9552 0 0 0
23.73091 938.31653 0 0 0
23.73971 935.66187 0 0 0
23.74852 934.42151 0 0 0
23.75733 933.48169 0 0 0
23.76613 933.83289 0 0 0
23.77494 935.37897 0 0 0
23.78375 937.42059 0 0 0
23.79256 940.31409 0 0 0
23.80136 942.75391 0 0 0
23.81017 943.40521 0 0 0
23.81898 943.00409 0 0 0
23.82778 942.53961 0 0 0
23.83659 942.44672 0 0 0
23.84540 944.64478 0 0 0
23.85421 948.63232 0 0 0
23.86301 952.17499 0 0 0
23.87182 955.53461 0 0 0
23.88063 959.51184 0 0 0
23.88943 965.13348 0 0 0
23.89824 971.46423 0 0 0
23.90705 976.46289 0 0 0
23.91586 980.44238 0 0 0
23.92466 978.13031 0 0 0
23.93347 971.04535 0 0 0
23.94228 963.1532 0 0 0
23.95109 953.96594 0 0 0
23.95989 944.96204 0 0 0
23.96870 938.61566 0 0 0
23.97751 933.80573 0 0 0
23.98632 930.24207 0 0 0
23.99512 927.40051 0 0 0
24.00393 924.82257 0 0 0
24.01273 922.36041 0 0 0
24.02154 920.52612 0 0 0
24.03035 919.34454 0 0 0
24.03916 918.17889 0 0 0
24.04796 917.25494 0 0 0
24.05677 916.82697 0 0 0
24.06558 917.23181 0 0 0
24.07438 917.38892 0 0 0
24.08319 917.78381 0 0 0
24.09200 918.75928 0 0 0
24.10081 919.62958 0 0 0
24.10961 921.24158 0 0 0
24.11842 923.76019 0 0 0
24.12723 926.39496 0 0 0
24.13604 929.12073 0 0 0
24.14484 934.8205 0 0 0
24.15365 942.58392 0 0 0
24.16246 951.38727 0 0 0
24.17126 961.13672 0 0 0
24.18007 973.51263 0 0 0
24.18888 987.38068 0 0 0
24.19768 1000.7859 0 0 0
24.20649 1013.2426 0 0 0
24.21530 1025.8868 0 0 0
24.22411 1038.0994 0 0 0
24.23291 1049.0723 0 0 0
24.24172 1055.0905 0 0 0
24.25053 1054.5227 0 0 0
24.25934 1045.8501 0 0 0
24.26814 1032.5792 0 0 0
24.27695 1018.5963 0 0 0
24.28576 1007.7053 0 0 0
24.29456 1001.4364 0 0 0
24.30337 998.19562 0 0 0
24.31218 999.29358 0 0 0
24.32099 1000.4849 0 0 0
24.32979 998.42029 0 0 0
24.33860 991.56427 0 0 0
24.34741 983.60956 0 0 0
24.35621 975.84546 0 0 0
24.36502 969.64954 0 0 0
24.37383 965.742 0 0 0
24.38264 963.22577 0 0 0
24.39144 961.44781 0 0 0
24.40025 961.95782 0 0 0
24.40906 963.59235 0 0 0
24.41787 963.84039 0 0 0
24.42667 962.77368 0 0 0
24.43548 961.88495 0 0 0
24.44429 961.02136 0 0 0
24.45309 959.19006 0 0 0
24.46190 958.13458 0 0 0
24.47071 958.54248 0 0 0
24.47951 960.18988 0 0 0
24.48832 964.04803 0 0 0
24.49713 970.10394 0 0 0
24.50594 977.64905 0 0 0
24.51474 987.1767 0 0 0
24.52355 997.89551 0 0 0
24.53236 1008.0452 0 0 0
24.54116 1015.7869 0 0 0
24.54997 1018.6769 0 0 0
24.55878 1017.3373 0 0 0
24.56759 1013.785 0 0 0
24.57639 1009.9136 0 0 0
24.58520 1008.1859 0 0 0
24.59401 1006.9724 0 0 0
24.60282 1004.8752 0 0 0
24.61162 1000.2505 0 0 0
24.62043 992.08691 0 0 0
24.62924 984.14819 0 0 0
24.63804 979.46936 0 0 0
24.64685 979.93005 0 0 0
24.65566 981.2746 0 0 0
24.66446 979.9292 0 0 0
24.67327 975.22784 0 0 0
24.68208 967.50623 0 0 0
24.69089 958.76971 0 0 0
24.69969 952.69104 0 0 0
24.70850 949.00635 0 0 0
24.71731 948.45502 0 0 0
24.72612 949.69202 0 0 0
24.73492 952.521 0 0 0
24.74373 956.0238 0 0 0
24.75254 961.32672 0 0 0
24.76134 967.90912 0 0 0
24.77015 973.75696 0 0 0
24.77896 978.07495 0 0 0
24.78777 980.39954 0 0 0
24.79657 981.54181 0 0 0
24.80538 983.86774 0 0 0
24.81419 986.9505 0 0 0
24.82299 991.58453 0 0 0
24.83180 995.34552 0 0 0
24.84061 994.85529 0 0 0
24.84942 990.24811 0 0 0
24.85822 983.39789 0 0 0
24.86703 975.21332 0 0 0
24.87584 968.26776 0 0 0
24.88464 963.04065 0 0 0
24.89345 957.8913 0 0 0
24.90226 953.42603 0 0 0
24.91107 949.66968 0 0 0
24.91987 946.80298 0 0 0
24.92868 944.62982 0 0 0
24.93749 942.90955 0 0 0
24.94629 940.40546 0 0 0
24.95510 937.34332 0 0 0
24.96391 933.67676 0 0 0
24.97272 928.74347 0 0 0
24.98152 924.71143 0 0 0
24.99033 921.43805 0 0 0
24.99914 918.6618 0 0 0
25.00794 917.2049 0 0 0
25.01675 917.10944 0 0 0
25.02556 917.1225 0 0 0
25.03437 917.82587 0 0 0
25.04317 920.12482 0 0 0
25.05198 922.9765 0 0 0
25.06079 926.19141 0 0 0
25.06959 930.22839 0 0 0
25.07840 934.28424 0 0 0
25.08721 939.578 0 0 0
25.09602 945.38251 0 0 0
25.10482 952.38177 0 0 0
25.11363 959.80267 0 0 0
25.12244 964.59967 0 0 0
25.13124 966.73474 0 0 0
25.14005 965.43378 0 0 0
25.14886 960.52448 0 0 0
25.15767 954.70148 0 0 0
25.16647 949.97766 0 0 0
25.17528 946.17987 0 0 0
25.18409 942.90399 0 0 0
25.19290 940.60986 0 0 0
25.20170 937.12891 0 0 0
25.21051 932.67242 0 0 0
25.21932 929.24933 0 0 0
25.22812 924.8443 0 0 0
25.23693 920.44684 0 0 0
25.24574 918.84192 0 0 0
25.25455 917.54822 0 0 0
25.26335 917.73895 0 0 0
25.27216 918.38812 0 0 0
25.28097 918.72998 0 0 0
25.28977 919.99744 0 0 0
25.29858 921.57831 0 0 0
25.30739 922.96783 0 0 0
25.31620 923.37512 0 0 0
25.32500 923.92529 0 0 0
25.33381 923.96863 0 0 0
25.34262 923.54938 0 0 0
25.35142 924.58026 0 0 0
25.36023 926.63934 0 0 0
25.36904 927.02478 0 0 0
25.37785 925.46973 0 0 0
25.38665 922.0752 0 0 0
25.39546 918.66815 0 0 0
25.40427 915.77185 0 0 0
25.41307 912.1828 0 0 0
25.42188 909.9696 0 0 0
25.43069 908.3905 0 0 0
25.43950 907.0155 0 0 0
25.44830 906.57922 0 0 0
25.45711 907.30408 0 0 0
25.46592 908.16486 0 0 0
25.47473 909.89728 0 0 0
25.48353 911.79852 0 0 0
25.49234 913.09882 0 0 0
25.50115 913.45746 0 0 0
25.50995 911.93811 0 0 0
25.51876 910.40198 0 0 0
25.52757 909.14349 0 0 0
25.53637 907.17419 0 0 0
25.54518 904.86426 0 0 0
25.55399 903.20056 0 0 0
25.56280 902.75854 0 0 0
25.57160 902.80908 0 0 0
25.58041 901.69421 0 0 0
25.58922 901.08832 0 0 0
25.59802 901.43359 0 0 0
25.60683 902.16345 0 0 0
25.61564 903.13892 0 0 0
25.62445 903.68896 0 0 0
25.63325 904.02502 0 0 0
25.64206 904.99896 0 0 0
25.65087 906.37701 0 0 0
25.65968 907.16986 0 0 0
25.66848 908.85443 0 0 0
25.67729 910.15472 0 0 0
25.68610 909.93433 0 0 0
25.69490 909.04193 0 0 0
25.70371 908.63416 0 0 0
25.71252 908.45496 0 0 0
25.72133 907.94293 0 0 0
25.73013 909.23157 0 0 0
25.73894 912.94519 0 0 0
25.74775 917.18988 0 0 0
25.75655 922.53625 0 0 0
25.76536 929.99017 0 0 0
25.77417 939.09283 0 0 0
25.78298 948.93121 0 0 0
25.79178 958.62469 0 0 0
25.80059 969.52777 0 0 0
25.80940 982.93939 0 0 0
25.81820 995.1543 0 0 0
25.82701 1007.4504 0 0 0
25.83582 1014.4941 0 0 0
25.84463 1013.1242 0 0 0
25.85343 1004.1271 0 0 0
25.86224 990.37604 0 0 0
25.87105 977.09937 0 0 0
25.87985 966.36725 0 0 0
25.88866 959.40314 0 0 0
25.89747 955.90784 0 0 0
25.90628 955.73474 0 0 0
25.91508 957.01831 0 0 0
25.92389 960.88818 0 0 0
25.93270 964.9082 0 0 0
25.94150 967.29883 0 0 0
25.95031 965.22412 0 0 0
25.95912 957.80554 0 0 0
25.96793 949.19019 0 0 0
25.97673 941.53674 0 0 0
25.98554 936.43201 0 0 0
25.99435 933.06989 0 0 0
26.00315 930.02734 0 0 0
26.01196 926.36206 0 0 0
26.02077 922.28076 0 0 0
26.02958 919.15997 0 0 0
26.03838 917.39636 0 0 0
26.04719 915.84149 0 0 0
26.05600 914.46539 0 0 0
26.06480 913.01624 0 0 0
26.07361 911.90344 0 0 0
26.08242 911.17578 0 0 0
26.09123 909.93573 0 0 0
26.10003 908.39142 0 0 0
26.10884 905.95703 0 0 0
26.11765 905.03418 0 0 0
26.12645 904.63574 0 0 0
26.13526 904.24219 0 0 0
26.14407 904.86182 0 0 0
26.15288 906.23541 0 0 0
26.16168 908.54657 0 0 0
26.17049 911.07043 0 0 0
26.17930 914.87604 0 0 0
26.18811 918.88812 0 0 0
26.19691 923.38739 0 0 0
26.20572 926.65186 0 0 0
26.21453 927.57263 0 0 0
26.22333 926.01642 0 0 0
26.23214 922.13025 0 0 0
26.24095 917.98383 0 0 0
26.24976 913.57239 0 0 0
26.25856 909.49792 0 0 0
26.26737 905.98828 0 0 0
26.27618 903.29608 0 0 0
26.28498 901.73718 0 0 0
26.29379 900.17279 0 0 0
26.30260 899.26764 0 0 0
26.31141 898.99054 0 0 0
26.32021 898.05798 0 0 0
26.32902 897.48895 0 0 0
26.33783 897.7937 0 0 0
26.34663 897.02203 0 0 0
26.35544 896.39532 0 0 0
26.36425 896.82043 0 0 0
26.37306 896.88867 0 0 0
26.38186 896.55939 0 0 0
26.39067 896.10907 0 0 0
26.39948 895.39673 0 0 0
26.40828 895.63757 0 0 0
26.41709 896.17834 0 0 0
26.42590 896.52765 0 0 0
26.43471 897.06964 0 0 0
26.44351 898.4599 0 0 0
26.45232 900.9585 0 0 0
26.46113 903.56866 0 0 0
26.46993 906.78943 0 0 0
26.47874 909.41321 0 0 0
26.48755 911.04669 0 0 0
26.49636 914.17249 0 0 0
26.50516 916.59131 0 0 0
26.51397 919.06982 0 0 0
26.52278 920.19397 0 0 0
26.53158 919.38245 0 0 0
26.54039 918.84827 0 0 0
26.54920 918.8302 0 0 0
26.55801 921.85529 0 0 0
26.56681 925.89777 0 0 0
26.57562 931.11377 0 0 0
26.58443 935.35406 0 0 0
26.59323 933.23657 0 0 0
26.60204 925.03308 0 0 0
26.61085 917.02905 0 0 0
26.61966 912.50903 0 0 0
26.62846 908.86017 0 0 0
26.63727 906.43512 0 0 0
26.64608 905.03473 0 0 0
26.65488 903.41132 0 0 0
26.66369 902.42029 0 0 0
26.67250 902.69489 0 0 0
26.68131 902.05743 0 0 0
26.69011 902.1189 0 0 0
26.69892 902.99225 0 0 0
26.70773 904.20929 0 0 0
26.71654 907.06403 0 0 0
26.72534 909.45764 0 0 0
26.73415 910.86353 0 0 0
26.74296 911.80823 0 0 0
26.75176 911.66022 0 0 0
26.76057 910.21057 0 0 0
26.76938 909.67395 0 0 0
26.77819 909.8819 0 0 0
26.78699 909.14258 0 0 0
26.79580 908.03162 0 0 0
26.80461 907.56665 0 0 0
26.81341 906.8501 0 0 0
26.82222 906.08691 0 0 0
26.83103 905.18225 0 0 0
26.83984 904.83392 0 0 0
26.84864 905.54199 0 0 0
26.85745 905.4046 0 0 0
26.86626 906.21411 0 0 0
26.87506 908.49261 0 0 0
26.88387 910.12695 0 0 0
26.89268 911.28937 0 0 0
26.90149 911.92914 0 0 0
26.91029 911.61353 0 0 0
26.91910 910.8739 0 0 0
26.92791 909.87677 0 0 0
26.93671 910.68579 0 0 0
26.94552 911.14514 0 0 0
26.95433 910.12524 0 0 0
26.96314 909.69147 0 0 0
26.97194 908.89429 0 0 0
26.98075 908.27649 0 0 0
26.98956 907.82727 0 0 0
26.99836 907.20557 0 0 0
27.00717 907.41925 0 0 0
27.01598 909.17682 0 0 0
27.02479 912.42029 0 0 0
27.03359 916.49048 0 0 0
27.04240 920.32391 0 0 0
27.05121 923.72028 0 0 0
27.06001 925.06915 0 0 0
27.06882 923.31036 0 0 0
27.07763 920.32745 0 0 0
27.08644 916.36157 0 0 0
27.09524 911.26392 0 0 0
27.10405 907.54346 0 0 0
27.11286 905.04584 0 0 0
27.12166 903.43317 0 0 0
27.13047 902.6062 0 0 0
27.13928 901.48389 0 0 0
27.14809 900.435 0 0 0
27.15689 900.935 0 0 0
27.16570 902.52777 0 0 0
27.17451 905.07721 0 0 0
27.18332 908.09961 0 0 0
27.19212 910.49994 0 0 0
27.20093 911.40692 0 0 0
27.20974 910.96399 0 0 0
27.21854 911.49902 0 0 0
27.22735 910.97046 0 0 0
27.23616 909.5827 0 0 0
27.24497 910.10626 0 0 0
27.25377 911.82135 0 0 0
27.26258 914.41882 0 0 0
27.27139 917.16754 0 0 0
27.28019 919.30542 0 0 0
27.28900 921.55096 0 0 0
27.29781 923.67303 0 0 0
27.30662 925.70526 0 0 0
27.31542 928.00018 0 0 0
27.32423 928.38623 0 0 0
27.33304 925.67291 0 0 0
27.34184 922.43915 0 0 0
27.35065 919.86877 0 0 0
27.35946 917.72949 0 0 0
27.36827 917.33228 0 0 0
27.37707 918.50299 0 0 0
27.38588 920.99963 0 0 0
27.39469 925.74402 0 0 0
27.40349 932.42096 0 0 0
27.41230 939.86615 0 0 0
27.42111 947.90668 0 0 0
27.42991 956.3158 0 0 0
27.43872 959.8667 0 0 0
27.44753 956.21375 0 0 0
27.45634 950.57892 0 0 0
27.46514 946.08429 0 0 0
27.47395 942.57776 0 0 0
27.48276 940.75647 0 0 0
27.49157 941.47766 0 0 0
27.50037 944.24921 0 0 0
27.50918 946.28937 0 0 0
27.51799 949.02716 0 0 0
27.52679 954.41486 0 0 0
27.53560 962.15308 0 0 0
27.54441 972.23944 0 0 0
27.55322 983.76563 0 0 0
27.56202 997.26526 0 0 0
27.57083 1011.327 0 0 0
27.57964 1023.077 0 0 0
27.58844 1031.504 0 0 0
27.59725 1033.7599 0 0 0
27.60606 1026.2533 0 0 0
27.61487 1010.0708 0 0 0
27.62367 991.24268 0 0 0
27.63248 973.5329 0 0 0
27.64129 956.789 0 0 0
27.65010 942.74359 0 0 0
27.65890 932.39569 0 0 0
27.66771 924.70819 0 0 0
27.67652 919.24164 0 0 0
27.68532 917.23022 0 0 0
27.69413 916.34485 0 0 0
27.70294 915.14734 0 0 0
27.71174 913.78949 0 0 0
27.72055 912.23621 0 0 0
27.72936 911.19299 0 0 0
27.73817 909.8645 0 0 0
27.74697 910.00659 0 0 0
27.75578 910.75403 0 0 0
27.76459 909.93433 0 0 0
27.77340 909.02893 0 0 0
27.78220 907.80872 0 0 0
27.79101 906.69128 0 0 0
27.79982 906.49146 0 0 0
27.80862 906.72028 0 0 0
27.81743 907.25452 0 0 0
27.82624 907.98279 0 0 0
27.83505 907.49957 0 0 0
27.84385 907.29712 0 0 0
27.85266 909.35187 0 0 0
27.86147 911.33685 0 0 0
27.87027 912.35443 0 0 0
27.87908 914.81586 0 0 0
27.88789 920.49115 0 0 0
27.89670 927.8399 0 0 0
27.90550 933.9339 0 0 0
27.91431 939.8136 0 0 0
27.92312 944.81049 0 0 0
27.93192 947.42639 0 0 0
27.94073 948.38367 0 0 0
27.94954 945.76056 0 0 0
27.95835 939.34174 0 0 0
27.96715 932.23468 0 0 0
27.97596 925.7348 0 0 0
27.98477 919.80444 0 0 0
27.99357 916.37616 0 0 0
28.00238 913.84601 0 0 0
28.01119 911.14868 0 0 0
28.02000 909.67908 0 0 0
28.02880 909.64911 0 0 0
28.03761 910.69873 0 0 0
28.04642 911.75189 0 0 0
28.05522 912.05646 0 0 0
28.06403 912.93048 0 0 0
28.07284 913.92743 0 0 0
28.08165 915.24609 0 0 0
28.09045 917.34668 0 0 0
28.09926 919.32825 0 0 0
28.10807 920.58655 0 0 0
28.11688 920.93463 0 0 0
28.12568 920.9021 0 0 0
28.13449 918.66132 0 0 0
28.14329 916.35266 0 0 0
28.15210 915.88873 0 0 0
28.16091 916.86871 0 0 0
28.16972 919.06079 0 0 0
28.17852 921.02185 0 0 0
28.18733 923.37213 0 0 0
28.19614 926.78455 0 0 0
28.20495 928.32928 0 0 0
28.21375 928.85132 0 0 0
28.22256 931.26685 0 0 0
28.23137 933.94855 0 0 0
28.24018 934.72595 0 0 0
28.24898 934.78998 0 0 0
28.25779 934.61035 0 0 0
28.26660 933.22723 0 0 0
28.27540 931.54883 0 0 0
28.28421 928.44275 0 0 0
28.29302 924.9422 0 0 0
28.30183 922.30713 0 0 0
28.31063 919.23248 0 0 0
28.31944 916.63812 0 0 0
28.32825 915.58295 0 0 0
28.33705 914.27795 0 0 0
28.34586 910.82935 0 0 0
28.35467 894.09161 0 0 0
28.36348 884.39929 0 0 0
28.37228 891.7337 0 0 0
28.38109 895.59003 0 0 0
28.38990 895.92535 0 0 0
28.39870 896.85669 0 0 0
28.40751 899.83685 0 0 0
28.41632 901.35608 0 0 0
28.42513 902.15381 0 0 0
28.43393 903.14069 0 0 0
28.44274 904.56439 0 0 0
28.45155 906.68701 0 0 0
28.46035 908.90948 0 0 0
28.46916 911.14777 0 0 0
28.47797 910.84961 0 0 0
28.48677 908.90546 0 0 0
28.49558 907.88428 0 0 0
28.50439 906.54047 0 0 0
28.51320 905.91913 0 0 0
28.52200 906.52045 0 0 0
28.53081 906.83417 0 0 0
28.53962 905.7464 0 0 0
28.54843 903.75665 0 0 0
28.55723 902.94159 0 0 0
28.56604 904.29926 0 0 0
28.57485 905.22662 0 0 0
28.58365 904.94763 0 0 0
28.59246 906.51361 0 0 0
28.60127 907.62476 0 0 0
28.61007 907.39948 0 0 0
28.61888 907.2702 0 0 0
28.62769 905.82355 0 0 0
28.63650 904.1239 0 0 0
28.64530 904.43036 0 0 0
28.65411 905.67615 0 0 0
28.66292 905.35138 0 0 0
28.67173 905.49438 0 0 0
28.68053 905.66394 0 0 0
28.68934 904.43524 0 0 0
28.69815 904.09338 0 0 0
28.70696 904.9024 0 0 0
28.71576 907.26434 0 0 0
28.72457 910.40564 0 0 0
28.73338 912.77856 0 0 0
28.74218 915.271 0 0 0
28.75099 918.20569 0 0 0
28.75980 920.49005 0 0 0
28.76860 923.51367 0 0 0
28.77741 925.19171 0 0 0
28.78622 925.44202 0 0 0
28.79503 926.80518 0 0 0
28.80383 926.39758 0 0 0
28.81264 924.6283 0 0 0
28.82145 923.75549 0 0 0
28.83026 924.0354 0 0 0
28.83906 925.25323 0 0 0
28.84787 928.0824 0 0 0
28.85668 930.86316 0 0 0
28.86548 934.95831 0 0 0
28.87429 940.61969 0 0 0
28.88310 944.23956 0 0 0
28.89191 949.44135 0 0 0
28.90071 955.66876 0 0 0
28.90952 956.18628 0 0 0
28.91832 951.12994 0 0 0
28.92713 945.24933 0 0 0
28.93594 939.69348 0 0 0
28.94475 932.95508 0 0 0
28.95355 927.05243 0 0 0
28.96236 924.27789 0 0 0
28.97117 921.87512 0 0 0
28.97998 920.52649 0 0 0
28.98878 919.58118 0 0 0
28.99759 917.82178 0 0 0
29.00640 919.08813 0 0 0
29.01521 920.89539 0 0 0
29.02401 921.55157 0 0 0
29.03282 922.9939 0 0 0
29.04163 923.89178 0 0 0
29.05043 924.45361 0 0 0
29.05924 923.88086 0 0 0
29.06805 922.7359 0 0 0
29.07685 921.97058 0 0 0
29.08566 920.5921 0 0 0
29.09447 919.53143 0 0 0
29.10328 919.09155 0 0 0
29.11208 919.12213 0 0 0
29.12089 919.1947 0 0 0
29.12970 918.5498 0 0 0
29.13851 916.79266 0 0 0
29.14731 916.57721 0 0 0
29.15612 916.76123 0 0 0
29.16493 917.05151 0 0 0
29.17374 919.20929 0 0 0
29.18254 920.87146 0 0 0
29.19135 921.13416 0 0 0
29.20015 920.23157 0 0 0
29.20896 918.7522 0 0 0
29.21777 916.50177 0 0 0
29.22658 915.27747 0 0 0
29.23538 916.43701 0 0 0
29.24419 917.3429 0 0 0
29.25300 918.70105 0 0 0
29.26181 918.3775 0 0 0
29.27061 916.77869 0 0 0
29.27942 915.90033 0 0 0
29.28823 913.6076 0 0 0
29.29704 911.28778 0 0 0
29.30584 910.64612 0 0 0
29.31465 909.75568 0 0 0
29.32346 908.18585 0 0 0
29.33226 908.22314 0 0 0
29.34107 907.62097 0 0 0
29.34988 907.34174 0 0 0
29.35869 909.74152 0 0 0
29.36749 911.7818 0 0 0
29.37630 910.91101 0 0 0
29.38510 909.61627 0 0 0
29.39391 911.31024 0 0 0
29.40272 912.99622 0 0 0
29.41153 914.26532 0 0 0
29.42033 915.21509 0 0 0
29.42914 913.89575 0 0 0
29.43795 911.13361 0 0 0
29.44676 907.57922 0 0 0
29.45556 907.29828 0 0 0
29.46437 907.52533 0 0 0
29.47318 906.95575 0 0 0
29.48199 906.65973 0 0 0
29.49079 906.60736 0 0 0
29.49960 909.37897 0 0 0
29.50841 913.36169 0 0 0
29.51721 919.90784 0 0 0
29.52602 927.34094 0 0 0
29.53483 932.73657 0 0 0
29.54363 935.30756 0 0 0
29.55244 934.14606 0 0 0
29.56125 931.26276 0 0 0
29.57006 927.40063 0 0 0
29.57886 923.65033 0 0 0
29.58767 921.71539 0 0 0
29.59648 919.69086 0 0 0
29.60529 917.32562 0 0 0
29.61409 916.2724 0 0 0
29.62290 914.59662 0 0 0
29.63171 911.20654 0 0 0
29.64051 910.42761 0 0 0
29.64932 909.87097 0 0 0
29.65813 908.68066 0 0 0
29.66693 908.24078 0 0 0
29.67574 906.88196 0 0 0
29.68455 905.22046 0 0 0
29.69336 904.35327 0 0 0
29.70216 903.39014 0 0 0
29.71097 902.13892 0 0 0
29.71978 902.46429 0 0 0
29.72859 901.29578 0 0 0
29.73739 900.48779 0 0 0
29.74620 900.59125 0 0 0
29.75501 898.96741 0 0 0
29.76382 899.71796 0 0 0
29.77262 901.54816 0 0 0
29.78143 899.81073 0 0 0
29.79024 899.41107 0 0 0
29.79904 902.1803 0 0 0
29.80785 904.57086 0 0 0
29.81666 905.42029 0 0 0
29.82546 905.22577 0 0 0
29.83427 903.78699 0 0 0
29.84308 903.28015 0 0 0
29.85188 904.52179 0 0 0
29.86069 903.6535 0 0 0
29.86950 901.995 0 0 0
29.87831 903.25702 0 0 0
29.88711 904.7085 0 0 0
29.89592 905.72174 0 0 0
29.90473 905.27631 0 0 0
29.91354 902.78503 0 0 0
29.92234 903.86176 0 0 0
29.93115 905.27649 0 0 0
29.93996 905.94897 0 0 0
29.94877 907.37354 0 0 0
29.95757 907.76318 0 0 0
29.96638 909.70721 0 0 0
29.97518 913.42633 0 0 0
29.98399 917.42737 0 0 0
29.99280 921.09717 0 0 0
30.00161 924.20972 0 0 0
30.01041 928.03479 0 0 0
30.01922 931.86432 0 0 0
30.02803 934.54858 0 0 0
30.03684 935.96399 0 0 0
30.04564 935.50751 0 0 0
30.05445 932.39905 0 0 0
30.06326 928.51367 0 0 0
30.07206 925.4397 0 0 0
30.08087 922.62421 0 0 0
30.08968 919.08929 0 0 0
30.09849 915.0351 0 0 0
30.10729 912.71143 0 0 0
30.11610 912.37659 0 0 0
30.12491 910.53992 0 0 0
30.13371 907.68909 0 0 0
30.14252 905.76392 0 0 0
30.15133 905.43835 0 0 0
30.16014 906.04413 0 0 0
30.16894 907.07947 0 0 0
30.17775 908.23804 0 0 0
30.18656 908.29797 0 0 0
30.19537 908.28552 0 0 0
30.20417 907.29968 0 0 0
30.21298 905.15021 0 0 0
30.22179 902.41626 0 0 0
30.23060 902.14484 0 0 0
30.23940 903.5658 0 0 0
30.24821 902.69977 0 0 0
30.25701 900.63452 0 0 0
30.26582 900.98145 0 0 0
30.27463 902.45111 0 0 0
30.28344 903.12695 0 0 0
30.29224 904.76837 0 0 0
30.30105 905.17426 0 0 0
30.30986 906.65179 0 0 0
30.31867 910.19867 0 0 0
30.32747 912.97064 0 0 0
30.33628 914.98059 0 0 0
30.34509 915.16394 0 0 0
30.35389 914.92181 0 0 0
30.36270 916.26465 0 0 0
30.37151 918.76367 0 0 0
30.38032 921.01581 0 0 0
30.38912 922.74005 0 0 0
30.39793 924.78424 0 0 0
30.40674 924.46613 0 0 0
30.41555 925.47607 0 0 0
30.42435 925.07019 0 0 0
30.43316 921.96045 0 0 0
30.44196 921.05585 0 0 0
30.45077 919.09216 0 0 0
30.45958 914.6228 0 0 0
30.46839 910.44287 0 0 0
30.47719 906.20898 0 0 0
30.48600 905.16003 0 0 0
30.49481 905.95227 0 0 0
30.50362 904.88239 0 0 0
30.51242 905.55994 0 0 0
30.52123 906.06207 0 0 0
30.53004 905.90186 0 0 0
30.53884 904.15222 0 0 0
30.54765 902.70532 0 0 0
30.55646 902.19641 0 0 0
30.56527 902.81854 0 0 0
30.57407 904.46088 0 0 0
30.58288 906.02966 0 0 0
30.59169 907.77435 0 0 0
30.60049 907.6369 0 0 0
30.60930 907.13452 0 0 0
30.61811 909.03149 0 0 0
30.62692 912.79309 0 0 0
30.63572 913.61554 0 0 0
30.64453 911.42828 0 0 0
30.65334 910.57568 0 0 0
30.66215 913.25372 0 0 0
30.67095 910.67456 0 0 0
30.67976 907.73767 0 0 0
30.68857 907.60199 0 0 0
30.69737 907.28668 0 0 0
30.70618 908.22998 0 0 0
30.71499 904.66107 0 0 0
30.72379 901.81177 0 0 0
30.73260 903.5603 0 0 0
30.74141 907.72272 0 0 0
30.75022 907.77234 0 0 0
30.75902 904.15881 0 0 0
30.76783 903.79462 0 0 0
30.77664 903.63495 0 0 0
30.78545 902.48907 0 0 0
30.79425 903.04333 0 0 0
30.80306 902.98767 0 0 0
30.81187 903.02222 0 0 0
30.82067 904.40619 0 0 0
30.82948 907.37701 0 0 0
30.83829 909.89124 0 0 0
30.84709 910.6571 0 0 0
30.85590 913.12604 0 0 0
30.86471 915.02289 0 0 0
30.87352 916.19067 0 0 0
30.88232 916.75684 0 0 0
30.89113 916.10382 0 0 0
30.89994 918.32355 0 0 0
30.90874 917.50745 0 0 0
30.91755 912.30231 0 0 0
30.92636 909.53998 0 0 0
30.93517 910.05798 0 0 0
30.94397 911.49786 0 0 0
30.95278 914.33112 0 0 0
30.96159 914.8288 0 0 0
30.97040 912.34998 0 0 0
30.97920 909.11157 0 0 0
30.98801 906.50995 0 0 0
30.99682 907.58484 0 0 0
31.00562 908.06134 0 0 0
31.01443 906.36584 0 0 0
31.02324 904.62482 0 0 0
31.03205 903.64966 0 0 0
31.04085 902.66498 0 0 0
31.04966 899.36694 0 0 0
31.05847 898.55182 0 0 0
31.06727 898.1413 0 0 0
31.07608 897.56927 0 0 0
31.08489 895.72198 0 0 0
31.09370 894.91168 0 0 0
31.10250 895.08356 0 0 0
31.11131 892.73248 0 0 0
31.12012 891.93738 0 0 0
31.12892 891.12891 0 0 0
31.13773 888.94824 0 0 0
31.14654 890.81006 0 0 0
31.15535 891.95416 0 0 0
31.16415 890.84009 0 0 0
31.17296 892.06146 0 0 0
31.18177 891.98566 0 0 0
31.19057 893.65222 0 0 0
31.19938 898.68872 0 0 0
31.20819 903.60388 0 0 0
31.21700 912.03491 0 0 0
31.22580 919.77985 0 0 0
31.23461 923.36633 0 0 0
31.24342 924.31281 0 0 0
31.25223 921.93097 0 0 0
31.26103 916.6803 0 0 0
31.26984 910.1748 0 0 0
31.27865 905.6543 0 0 0
31.28746 901.69977 0 0 0
31.29626 895.99823 0 0 0
31.30507 895.38885 0 0 0
31.31387 899.94745 0 0 0
31.32268 897.41705 0 0 0
31.33149 896.39716 0 0 0
31.34030 898.35645 0 0 0
31.34910 898.85687 0 0 0
31.35791 898.89331 0 0 0
31.36672 899.47699 0 0 0
31.37552 898.2099 0 0 0
31.38433 895.61951 0 0 0
31.39314 896.26447 0 0 0
31.40195 896.30139 0 0 0
31.41075 895.67963 0 0 0
31.41956 896.52344 0 0 0
31.42837 898.0213 0 0 0
31.43718 900.47992 0 0 0
31.44598 900.75208 0 0 0
31.45479 898.53717 0 0 0
31.46360 899.3139 0 0 0
31.47240 898.26038 0 0 0
31.48121 899.40332 0 0 0
31.49002 902.23517 0 0 0
31.49883 901.7406 0 0 0
31.50763 900.76141 0 0 0
31.51644 898.92981 0 0 0
31.52525 899.51105 0 0 0
31.53405 902.10657 0 0 0
31.54286 903.11725 0 0 0
31.55167 903.46741 0 0 0
31.56048 903.21838 0 0 0
31.56928 903.19049 0 0 0
31.57809 901.55414 0 0 0
31.58690 903.56793 0 0 0
31.59570 905.15253 0 0 0
31.60451 904.75317 0 0 0
31.61332 906.32056 0 0 0
31.62213 906.61188 0 0 0
31.63093 905.59308 0 0 0
31.63974 907.11536 0 0 0
31.64855 907.41431 0 0 0
31.65735 906.68561 0 0 0
31.66616 909.87524 0 0 0
31.67497 913.07874 0 0 0
31.68378 916.68323 0 0 0
31.69258 921.37012 0 0 0
31.70139 923.75195 0 0 0
31.71020 921.61731 0 0 0
31.71901 916.62366 0 0 0
31.72781 910.28741 0 0 0
31.73662 900.8913 0 0 0
31.74543 894.40417 0 0 0
31.75423 891.31641 0 0 0
31.76304 888.31439 0 0 0
31.77185 885.63129 0 0 0
31.78065 879.784 0 0 0
31.78946 879.38293 0 0 0
31.79827 880.9303 0 0 0
31.80708 879.94318 0 0 0
31.81588 878.4765 0 0 0
31.82469 877.60541 0 0 0
31.83350 879.00256 0 0 0
31.84230 879.45685 0 0 0
31.85111 875.88043 0 0 0
31.85992 875.31512 0 0 0
31.86873 874.50446 0 0 0
31.87753 877.27637 0 0 0
31.88634 881.13922 0 0 0
31.89515 881.59949 0 0 0
31.90395 880.39014 0 0 0
31.91276 878.2691 0 0 0
31.92157 878.41742 0 0 0
31.93038 877.48962 0 0 0
31.93918 875.24213 0 0 0
31.94799 874.95605 0 0 0
31.95680 875.53082 0 0 0
31.96561 875.31451 0 0 0
31.97441 873.78705 0 0 0
31.98322 871.51172 0 0 0
31.99203 870.98456 0 0 0
32.00084 870.41278 0 0 0
32.00964 869.99097 0 0 0
32.01845 870.14343 0 0 0
32.02726 872.78943 0 0 0
32.03606 873.03772 0 0 0
32.04487 867.69611 0 0 0
32.05368 864.71613 0 0 0
32.06249 862.89862 0 0 0
32.07129 863.02063 0 0 0
32.08010 865.41479 0 0 0
32.08890 866.44611 0 0 0
32.09771 865.58368 0 0 0
32.10652 862.96289 0 0 0
32.11533 864.86511 0 0 0
32.12413 868.00446 0 0 0
32.13294 865.12683 0 0 0
32.14175 861.80798 0 0 0
32.15055 865 0 0 0
32.15936 861.79285 0 0 0
32.16817 854.30505 0 0 0
32.17698 855.59259 0 0 0
32.18578 855.52484 0 0 0
32.19459 860.24268 0 0 0
32.20340 864.42206 0 0 0
32.21221 861.03113 0 0 0
32.22101 859.79578 0 0 0
32.22982 860.54718 0 0 0
32.23863 857.88171 0 0 0
32.24744 856.70313 0 0 0
32.25624 858.92126 0 0 0
32.26505 858.50067 0 0 0
32.27386 854.71484 0 0 0
32.28266 858.23962 0 0 0
32.29147 861.94434 0 0 0
32.30028 864.64539 0 0 0
32.30909 863.65448 0 0 0
32.31789 855.98413 0 0 0
32.32670 858.00299 0 0 0
32.33551 859.77582 0 0 0
32.34432 851.14172 0 0 0
32.35312 848.98901 0 0 0
32.36193 855.12488 0 0 0
32.37074 855.99451 0 0 0
32.37954 853.88721 0 0 0
32.38835 853.66077 0 0 0
32.39716 853.33795 0 0 0
32.40596 858.95154 0 0 0
32.41477 857.73999 0 0 0
32.42358 860.15582 0 0 0
32.43238 860.7309 0 0 0
32.44119 860.7854 0 0 0
32.45000 865.36987 0 0 0
32.45880 872.18286 0 0 0
32.46761 885.19153 0 0 0
32.47642 891.06409 0 0 0
32.48523 886.28625 0 0 0
32.49403 884.49634 0 0 0
32.50284 889.2265 0 0 0
32.51165 890.90283 0 0 0
32.52046 867.60443 0 0 0
32.52926 860.38043 0 0 0
32.53807 861.82214 0 0 0
32.54688 864.89948 0 0 0
32.55569 866.72009 0 0 0
32.56449 855.72705 0 0 0
32.57330 859.94324 0 0 0
32.58211 869.52539 0 0 0
32.59092 875.56305 0 0 0
32.59972 870.93304 0 0 0
32.60853 862.70868 0 0 0
32.61734 868.4978 0 0 0
32.62614 873.30096 0 0 0
32.63495 855.05847 0 0 0
32.64376 842.80505 0 0 0
32.65257 852.13403 0 0 0
32.66137 865.8515 0 0 0
32.67018 867.79541 0 0 0
32.67899 852.76257 0 0 0
32.68779 848.117 0 0 0
32.69660 845.81427 0 0 0
32.70541 848.45966 0 0 0
32.71421 856.13068 0 0 0
32.72302 847.80713 0 0 0
32.73183 834.43152 0 0 0
32.74063 828.34058 0 0 0
32.74944 832.00415 0 0 0
32.75825 825.61389 0 0 0
32.76706 811.8515 0 0 0
32.77586 795.64514 0 0 0
32.78467 781.16791 0 0 0
32.79348 781.85632 0 0 0
32.80228 769.87976 0 0 0
32.81109 748.70294 0 0 0
32.81990 725.36603 0 0 0
32.82871 665.70374 0 0 0
32.83751 601.99109 0 0 0
32.84632 538.37891 0 0 0
32.85513 382.55435 0 0 0
32.86394 205.4426 0 0 0
32.87274 200.91422 0 0 0
32.88155 201.80096 0 0 0
32.89036 191.41644 0 0 0
32.89917 181.70338 0 0 0
32.90797 186.1244 0 0 0
32.91678 191.53206 0 0 0
32.92559 196.85031 0 0 0
32.93440 193.48393 0 0 0
32.94320 191.87218 0 0 0
32.95201 192.80722 0 0 0
32.96081 191.31073 0 0 0
32.96962 198.39697 0 0 0
32.97843 206.78214 0 0 0
32.98724 215.68813 0 0 0
32.99604 210.14575 0 0 0
33.00485 194.52414 0 0 0
33.01366 181.37047 0 0 0
33.02246 189.43642 0 0 0
33.03127 201.76523 0 0 0
33.04008 203.12761 0 0 0
33.04888 196.95866 0 0 0
33.05769 198.93079 0 0 0
33.06650 204.18423 0 0 0
33.07531 204.51567 0 0 0
33.08411 203.53139 0 0 0
33.09292 187.44437 0 0 0
33.10173 170.92583 0 0 0
33.11054 171.68434 0 0 0
33.11934 186.41557 0 0 0
33.12815 186.02803 0 0 0
33.13696 174.96526 0 0 0
33.14577 175.26959 0 0 0
33.15457 182.97745 0 0 0
33.16338 187.45413 0 0 0
33.17219 203.00587 0 0 0
33.18100 199.86276 0 0 0
33.18980 181.54585 0 0 0
33.19861 178.94679 0 0 0
33.20742 184.16859 0 0 0
33.21623 192.68771 0 0 0
33.22503 199.43431 0 0 0
33.23384 199.34177 0 0 0
33.24265 187.38783 0 0 0
33.25145 187.48166 0 0 0
33.26026 186.35475 0 0 0
33.26907 188.2301 0 0 0
33.27787 196.02754 0 0 0
33.28668 188.43242 0 0 0
33.29549 182.49419 0 0 0
33.30430 185.45981 0 0 0
33.31310 188.86684 0 0 0
33.32191 192.66342 0 0 0
33.33071 198.33528 0 0 0
33.33952 193.24693 0 0 0
33.34833 184.07726 0 0 0
33.35714 178.16922 0 0 0
33.36594 176.87756 0 0 0
33.37475 177.99422 0 0 0
33.38356 183.46605 0 0 0
33.39236 195.00533 0 0 0
33.40117 194.77475 0 0 0
33.40998 187.79376 0 0 0
33.41879 191.68063 0 0 0
33.42759 186.98703 0 0 0
33.43640 182.55411 0 0 0
33.44521 187.95468 0 0 0
33.45402 205.14085 0 0 0
33.46282 215.04607 0 0 0
33.47163 216.56297 0 0 0
33.48044 218.23109 0 0 0
33.48925 202.3896 0 0 0
33.49805 197.04663 0 0 0
33.50686 188.89069 0 0 0
33.51567 186.75717 0 0 0
33.52448 182.92288 0 0 0
33.53328 179.10007 0 0 0
33.54209 177.59273 0 0 0
33.55090 174.34715 0 0 0
33.55970 169.05269 0 0 0
33.56851 175.98936 0 0 0
33.57732 192.08324 0 0 0
33.58612 205.32176 0 0 0
33.59493 203.29955 0 0 0
33.60374 188.35242 0 0 0
33.61254 180.15884 0 0 0
33.62135 184.94136 0 0 0
33.63016 196.78723 0 0 0
33.63897 205.68108 0 0 0
33.64777 198.16835 0 0 0
33.65658 191.26184 0 0 0
33.66539 197.14565 0 0 0
33.67419 211.62767 0 0 0
33.68300 218.02916 0 0 0
33.69181 222.04265 0 0 0
33.70062 211.5302 0 0 0
33.70942 214.09334 0 0 0
33.71823 215.3019 0 0 0
33.72704 208.15456 0 0 0
33.73584 197.47983 0 0 0
33.74465 194.18636 0 0 0
33.75346 194.82877 0 0 0
33.76227 211.81348 0 0 0
33.77107 220.34648 0 0 0
33.77988 216.34837 0 0 0
33.78869 222.05496 0 0 0
33.79750 209.88678 0 0 0
33.80630 199.1693 0 0 0
33.81511 206.17535 0 0 0
33.82392 223.4037 0 0 0
33.83273 213.70422 0 0 0
33.84153 193.39992 0 0 0
33.85034 195.06349 0 0 0
33.85915 203.74934 0 0 0
33.86795 203.1046 0 0 0
33.87676 177.38634 0 0 0
33.88557 162.66666 0 0 0
33.89437 170.79865 0 0 0
33.90318 179.76637 0 0 0
33.91199 175.0999 0 0 0
33.92079 175.19016 0 0 0
33.92960 176.93214 0 0 0
33.93841 191.83286 0 0 0
33.94722 198.88893 0 0 0
33.95602 202.06062 0 0 0
33.96483 200.74301 0 0 0
33.97364 180.95638 0 0 0
33.98244 184.21309 0 0 0
33.99125 204.99564 0 0 0
34.00006 211.22112 0 0 0
34.00887 203.73727 0 0 0
34.01767 184.85417 0 0 0
34.02648 172.24051 0 0 0
34.03529 168.40488 0 0 0
34.04410 180.15796 0 0 0
34.05290 203.90671 0 0 0
34.06171 223.70052 0 0 0
34.07052 229.2908 0 0 0
34.07933 231.98999 0 0 0
34.08813 218.51065 0 0 0
34.09694 202.5361 0 0 0
34.10575 200.40157 0 0 0
34.11456 200.15446 0 0 0
34.12336 195.32362 0 0 0
34.13217 194.53174 0 0 0
34.14098 198.55331 0 0 0
34.14978 205.08911 0 0 0
34.15859 205.31377 0 0 0
34.16740 193.73413 0 0 0
34.17621 188.93083 0 0 0
34.18501 207.36198 0 0 0
34.19382 214.38763 0 0 0
34.20262 229.6541 0 0 0
34.21143 226.10278 0 0 0
34.22024 207.45721 0 0 0
34.22905 198.69215 0 0 0
34.23785 189.04117 0 0 0
34.24666 195.98987 0 0 0
34.25547 199.66707 0 0 0
34.26427 191.41496 0 0 0
34.27308 182.52284 0 0 0
34.28189 183.17287 0 0 0
34.29069 189.3351 0 0 0
34.29950 188.52908 0 0 0
34.30831 180.4787 0 0 0
34.31712 185.19682 0 0 0
34.32592 203.465 0 0 0
34.33473 206.11769 0 0 0
34.34354 194.83067 0 0 0
34.35235 195.26659 0 0 0
34.36115 203.17845 0 0 0
34.36996 218.25963 0 0 0
34.37877 213.77072 0 0 0
34.38758 206.53046 0 0 0
34.39638 205.98575 0 0 0
34.40519 209.60263 0 0 0
34.41400 199.00616 0 0 0
34.42281 183.65054 0 0 0
34.43161 176.09435 0 0 0
34.44042 187.62816 0 0 0
34.44923 197.85747 0 0 0
34.45804 207.92946 0 0 0
34.46684 215.96756 0 0 0
34.47565 202.70726 0 0 0
34.48445 205.77579 0 0 0
34.49326 216.82364 0 0 0
34.50207 211.77739 0 0 0
34.51088 214.58115 0 0 0
34.51968 221.96756 0 0 0
34.52849 242.40677 0 0 0
34.53730 246.23404 0 0 0
34.54610 245.03087 0 0 0
34.55491 248.77492 0 0 0
34.56372 234.10408 0 0 0
34.57252 208.59363 0 0 0
34.58133 210.58507 0 0 0
34.59014 213.61536 0 0 0
34.59895 209.14113 0 0 0
34.60775 216.47531 0 0 0
34.61656 215.81265 0 0 0
34.62537 212.40016 0 0 0
34.63418 210.84244 0 0 0
34.64298 208.20259 0 0 0
34.65179 210.72591 0 0 0
34.66060 208.05666 0 0 0
34.66941 209.56111 0 0 0
34.67821 206.5358 0 0 0
34.68702 201.76781 0 0 0
34.69583 211.17604 0 0 0
34.70463 223.91451 0 0 0
34.71344 222.36989 0 0 0
34.72225 213.14903 0 0 0
34.73106 206.09129 0 0 0
34.73986 206.78123 0 0 0
34.74867 203.01097 0 0 0
34.75748 207.739 0 0 0
34.76629 215.02287 0 0 0
34.77509 210.85783 0 0 0
34.78390 205.16887 0 0 0
34.79271 210.56976 0 0 0
34.80151 225.91144 0 0 0
34.81032 218.73892 0 0 0
34.81913 206.72992 0 0 0
34.82793 201.77206 0 0 0
34.83674 200.47774 0 0 0
34.84555 206.95105 0 0 0
34.85435 218.20099 0 0 0
34.86316 223.46945 0 0 0
34.87197 219.63297 0 0 0
34.88077 201.38509 0 0 0
34.88958 190.0679 0 0 0
34.89839 188.45285 0 0 0
34.90720 193.76341 0 0 0
34.91600 204.83664 0 0 0
34.92481 201.50534 0 0 0
34.93362 201.41853 0 0 0
34.94243 217.58113 0 0 0
34.95123 233.06117 0 0 0
34.96004 232.37424 0 0 0
34.96885 221.1443 0 0 0
34.97766 213.79294 0 0 0
34.98646 211.38199 0 0 0
34.99527 212.7849 0 0 0
35.00408 212.0983 0 0 0
35.01289 212.57922 0 0 0
35.02169 216.6647 0 0 0
35.03050 225.47369 0 0 0
35.03931 222.1118 0 0 0
35.04812 209.2354 0 0 0
35.05692 199.2198 0 0 0
35.06573 193.78918 0 0 0
35.07453 193.11771 0 0 0
35.08334 194.29788 0 0 0
35.09215 196.43465 0 0 0
35.10096 194.17213 0 0 0
35.10976 194.47258 0 0 0
35.11857 193.36302 0 0 0
35.12738 201.65701 0 0 0
35.13618 211.73297 0 0 0
35.14499 220.45154 0 0 0
35.15380 221.40526 0 0 0
35.16260 211.82468 0 0 0
35.17141 205.64069 0 0 0
35.18022 210.49258 0 0 0
35.18903 218.10764 0 0 0
35.19783 228.71654 0 0 0
35.20664 229.03436 0 0 0
35.21545 222.70671 0 0 0
35.22425 219.21419 0 0 0
loop_
_gsas_i100_meas
14.47
31.51
4.19
14.72
3.62
9.87
47.05
43.44
12.32
100.00
49.93
3.83
8.90
3.06
65.30
32.11
4.90
34.63
0.23
11.56
2.97
2.77
21.40
1.52
4.67
43.42
0.12
11.05
16.07
16.77
1.34
0.01
0.89
6.51
3.82
7.45
0.11
20.72
13.75
0.39
5.11
0.41
0.99
0.65
0.05
0.76
3.12
3.32
13.68
13.61
2.94
0.66
4.84
0.20
3.55
3.40
3.77
1.47
27.01
12.30
0.05
7.18
16.28
10.46
0.33
3.75
6.40
1.22
5.04
1.10
0.25
1.36
4.17
5.66
3.21
1.07
3.54
2.34
0.96
2.35
2.79
0.00
4.50
12.51
4.22
0.17
0.01
0.64
6.08
38.67
1.06
0.08
0.20
1.44
1.64
3.81
0.00
0.04
4.30
0.36
0.13
3.97
9.17
3.49
0.01
1.90
0.27
1.17
5.27
5.27
2.00
3.41
4.16
0.80
0.11
2.72
6.94
2.99
0.80
4.62
0.07
2.05
1.24
0.30
5.84
9.87
5.02
0.44
4.18
0.53
4.13
0.78
0.05
0.00
4.58
0.01
4.49
0.00
5.40
0.37
0.14
0.03
4.00
1.23
0.92
7.57
2.13
4.26
0.56
0.01
11.20
0.03
12.47
0.84
2.49
1.01
1.07
2.13
3.43
0.19
0.32
3.40
6.87
0.51
0.21
0.00
6.43
0.28
2.16
0.00
6.16
1.11
0.28
0.24
0.47
4.12
0.00
0.01
2.21
0.02
1.54
0.15
2.31
1.62
0.14
0.52
3.56
0.74
0.45
2.10
0.20
1.53
0.04
0.00
0.02
0.01
0.07
2.31
0.30
0.02
2.93
0.45
0.12
3.43
0.41
1.80
2.90
4.90
0.44
0.45
0.66
0.19
1.92
1.61
0.01
1.25
0.48
3.03
3.73
0.12
1.55
3.64
0.29
0.95
0.62
0.05
2.55
1.57
0.02
0.05
0.04
0.37
0.05
0.28
0.00
0.13
0.02
0.13
1.00
0.11
0.54
0.05
1.57
