#------------------------------------------------------------------------------
#$Date: 2021-02-05 01:04:31 +0200 (Fri, 05 Feb 2021) $
#$Revision: 261628 $
#$URL: file:///home/coder/svn-repositories/cod/cif/7/24/18/7241831.cif $
#------------------------------------------------------------------------------
#
# This file is available in the Crystallography Open Database (COD),
# http://www.crystallography.net/
#
# All data on this site have been placed in the public domain by the
# contributors.
#
data_7241831
loop_
_publ_author_name
'Gu\'nka, Piotr A.'
'Hanfland, Michael'
'Chen, Yu-Sheng'
'Zachara, Janusz'
_publ_section_title
;
 High-pressure and low-temperature structural study of claudetite I, a
 monoclinic layered As2O3 polymorph
;
_journal_issue                   3
_journal_name_full               CrystEngComm
_journal_page_first              638
_journal_page_last               644
_journal_paper_doi               10.1039/D0CE01401J
_journal_volume                  23
_journal_year                    2021
_chemical_formula_moiety         'As2 O3'
_chemical_formula_sum            'As2 O3'
_chemical_formula_weight         197.84
_chemical_name_common            'claudetite I'
_chemical_name_systematic
;
arsenic(III) oxide
;
_space_group_IT_number           14
_space_group_name_Hall           '-P 2yn'
_space_group_name_H-M_alt        'P 1 21/n 1'
_symmetry_cell_setting           monoclinic
_symmetry_space_group_name_H-M   'P 1 21/n 1'
_audit_creation_date             2020-10-21T14:02
_audit_creation_method           'created in GSAS-II'
_audit_update_record
;
2020-10-22 deposited with the CCDC.	2020-12-10 downloaded from the CCDC.
;
_cell_angle_alpha                90
_cell_angle_beta                 94.807(3)
_cell_angle_gamma                90
_cell_formula_units_Z            4
_cell_length_a                   4.6166(4)
_cell_length_b                   11.5551(5)
_cell_length_c                   4.05120(28)
_cell_measurement_pressure       2.527e7(5)
_cell_measurement_temperature    293
_cell_volume                     215.35(3)
_computing_data_reduction        Fit2D
_computing_structure_refinement
'GSAS-II (Toby & Von Dreele, J. Appl. Cryst. 46, 544-549, 2013)'
_diffrn_ambient_pressure         2.527e7(5)
_diffrn_ambient_temperature      293
_diffrn_detector                 'Mar555 flat panel'
_diffrn_detector_type            'Mar555 flat panel'
_diffrn_measurement_device_type  'ESRF ID09A beamline'
_diffrn_radiation_monochromator  Si
_diffrn_radiation_polarisn_ratio 0.9900
_diffrn_radiation_probe          x-ray
_diffrn_radiation_wavelength     0.41421
_diffrn_source                   'ESRF ID09A'
_diffrn_source_type              synchrotron
_exptl_crystal_colour            colourless
_exptl_crystal_density_diffrn    6.1020
_exptl_crystal_description       'white powder'
_pd_block_id                     2020-10-21T14:02|clau1_020rietveld||id09a
_pd_calc_method                  'Rietveld Refinement'
_pd_meas_number_of_points        1833
_pd_phase_name                   claudetiteI
_pd_prep_pressure                100.0(1)
_pd_prep_temperature             293
_pd_proc_info_datetime           2020-10-21T14:02
_pd_proc_ls_background_function
;
Background function: "chebyschev" function with 15 terms:
    802.2(16), 272(8), 10(4)e1, 6.4(11)e2, -2.3(4)e3, -4.7(5)e3, 
    1.47(13)e4, 1.39(7)e4, -4.48(15)e4, -1.995(9)e4, 6.74(5)e4, 
    1.38(8)e4, -4.90(19)e4, -3.7(4)e3, 1.39(9)e4, 
;
_pd_proc_ls_pref_orient_corr
;
Simple spherical harmonic correction Order = 6
    Coefficients:  0:0:C(6,6) = -0.008(23); 0:0:C(4,4) = 0.320(21); 
    0:0:C(6,-2) = -0.245(29); 0:0:C(2,-2) = 0.039(16); 0:0:C(4,-4) = -0.222(20); 
    0:0:C(2,2) = 0.416(16); 0:0:C(4,0) = -0.367(19); 0:0:C(6,-6) = -0.146(28); 
    0:0:C(6,4) = -0.171(25); 0:0:C(4,2) = -0.326(20); 0:0:C(6,2) = 0.001(26); 
    0:0:C(6,-4) = 0.111(20); 0:0:C(6,0) = -0.152(24); 0:0:C(2,0) = -0.274(13); 
    0:0:C(4,-2) = -0.095(23); 
;
_pd_proc_ls_profile_function
;
Finger-Cox-Jephcoat function parameters U, V, W, X, Y, SH/L:
  peak variance(Gauss) = Utan(Th)^2^+Vtan(Th)+W:
  peak HW(Lorentz) = X/cos(Th)+Ytan(Th); SH/L = S/L+H/L
  U, V, W in (centideg)^2^, X & Y in centideg
    5.4(4)e3, -8.1(6)e2, 35.2(26), 182.5(9), -27(11), 0.002, 
  Crystallite size in microns with "isotropic" model:
  parameters: Size, G/L mix
    1.000, 1.000, 
  Microstrain, "isotropic" model (10^6^ * delta Q/Q)
    parameters: Mustrain, G/L mix
    1000.000, 1.000, 

;
_pd_proc_ls_prof_R_factor        0.01069
_pd_proc_ls_prof_wR_expected     0.03383
_pd_proc_ls_prof_wR_factor       0.01586
_refine_ls_goodness_of_fit_all   0.477
_refine_ls_matrix_type           full
_refine_ls_number_parameters     57
_refine_ls_R_Fsqd_factor         0.04166
_refine_ls_shift/su_max          0.0008
_refine_ls_wR_factor_obs         0.01588
_reflns_d_resolution_high        1.110
_reflns_d_resolution_low         3.811
_reflns_limit_h_max              4
_reflns_limit_h_min              0
_reflns_limit_k_max              10
_reflns_limit_k_min              0
_reflns_limit_l_max              3
_reflns_limit_l_min              -3
_reflns_number_total             164
_cod_data_source_file            d0ce01401j3.cif
_cod_data_source_block           clau1_020rietveld
_cod_depositor_comments
'Adding full bibliography for 7241824--7241862.cif.'
_cod_original_cell_volume        215.354(11)
_cod_database_code               7241831
_refine_ls_r_f_factor            0.02533
_gsas_proc_ls_prof_r_b_factor    0.01699
_gsas_proc_ls_prof_wr_b_factor   0.02764
loop_
_space_group_symop_id
_space_group_symop_operation_xyz
1 x,y,z
2 1/2-x,1/2+y,1/2-z
3 -x,-y,-z
4 1/2+x,1/2-y,1/2+z
loop_
_atom_site_label
_atom_site_type_symbol
_atom_site_fract_x
_atom_site_fract_y
_atom_site_fract_z
_atom_site_occupancy
_atom_site_adp_type
_atom_site_U_iso_or_equiv
_atom_site_symmetry_multiplicity
As1 As 0.2885(11) 0.08393(28) 0.0787(8) 1.000 Uiso 0.0048(17) 4
As2 As 0.3157(7) 0.3575(3) 0.0323(7) 1.000 Uiso 0.0048 4
O3 O 0.4676(22) 0.2191(4) 0.108(5) 1.000 Uiso 0.0048 4
O4 O 0.6608(21) 0.4178(15) 0.1547(16) 1.000 Uiso 0.0048 4
O5 O -0.0811(18) 0.1135(20) 0.1275(16) 1.000 Uiso 0.0048 4
loop_
_atom_type_symbol
_atom_type_number_in_cell
_atom_type_scat_Cromer_Mann_a1
_atom_type_scat_Cromer_Mann_a2
_atom_type_scat_Cromer_Mann_a3
_atom_type_scat_Cromer_Mann_a4
_atom_type_scat_Cromer_Mann_b1
_atom_type_scat_Cromer_Mann_b2
_atom_type_scat_Cromer_Mann_b3
_atom_type_scat_Cromer_Mann_b4
_atom_type_scat_Cromer_Mann_c
_atom_type_scat_length_neutron
_atom_type_scat_source
_atom_type_scat_dispersion_real
_atom_type_scat_dispersion_imag
_atom_type_scat_dispersion_source
As 8 16.6723 6.0701 3.4313 4.2779 2.6345 0.2647 12.9479 47.7972 2.531 0.658
https://subversion.xray.aps.anl.gov/pyGSAS/trunk/atmdata.py 0.283 0.775
https://subversion.xray.aps.anl.gov/pyGSAS/trunk/atmdata.py
O 12 3.0485 2.2868 1.5463 0.867 13.2771 5.7011 0.3239 32.9089 0.2508 0.5805
https://subversion.xray.aps.anl.gov/pyGSAS/trunk/atmdata.py 0.002 0.002
https://subversion.xray.aps.anl.gov/pyGSAS/trunk/atmdata.py
loop_
_geom_angle_atom_site_label_1
_geom_angle_atom_site_label_2
_geom_angle_atom_site_label_3
_geom_angle
_geom_angle_site_symmetry_1
_geom_angle_site_symmetry_2
_geom_angle_site_symmetry_3
_geom_angle_publ_flag
O3 As1 O4 101.1(8) 1_555 1_555 4_454 yes
O3 As1 O5 105.8(8) 1_555 1_555 1_555 yes
O4 As1 O5 82.2(4) 4_454 1_555 1_555 yes
O3 As2 O4 88.4(7) 1_555 1_555 1_555 yes
O3 As2 O5 101.5(12) 1_555 1_555 4_554 yes
O4 As2 O5 83.1(4) 1_555 1_555 4_554 yes
As1 O3 As2 127.8(5) 1_555 1_555 1_555 yes
As1 O4 As2 119.1(5) 4_555 1_555 1_555 yes
As1 O5 As2 118.4(5) 1_555 1_555 4_455 yes
loop_
_geom_bond_atom_site_label_1
_geom_bond_atom_site_label_2
_geom_bond_distance
_geom_bond_site_symmetry_1
_geom_bond_site_symmetry_2
_geom_bond_publ_flag
As1 O3 1.767(5) 1_555 1_555 yes
As1 O4 1.769(4) 1_555 4_454 yes
As1 O5 1.768(5) 1_555 1_555 yes
As2 O3 1.763(5) 1_555 1_555 yes
As2 O4 1.772(5) 1_555 1_555 yes
As2 O5 1.778(4) 1_555 4_554 yes
loop_
_pd_meas_2theta_scan
_pd_meas_intensity_total
_pd_calc_intensity_total
_pd_proc_intensity_bkg_calc
_pd_proc_ls_weight
5.70817 466.34814 467.653731 466.56212 0.002144321
5.71698 467.09332 467.663339 466.555387 0.0021409
5.72578 467.46478 467.695202 466.570282 0.002139199
5.73458 468.39325 467.748329 466.605775 0.002134958
5.74338 469.00565 467.821777 466.660875 0.00213217
5.75219 469.64612 467.914622 466.734616 0.002129263
5.76099 469.9631 468.025996 466.826071 0.002127827
5.76979 470.83911 468.167686 466.934349 0.002123868
5.77859 471.03424 468.313667 467.058572 0.002122988
5.78739 471.25995 468.475773 467.197917 0.002121971
5.79620 470.97302 468.653258 467.351562 0.002123264
5.80500 470.93201 468.84631 467.518735 0.002123449
5.81380 470.42816 469.052529 467.698695 0.002125723
5.82260 470.50195 469.272149 467.890702 0.00212539
5.83140 471.43558 469.504593 468.094064 0.002121181
5.84021 472.31274 469.749331 468.308124 0.002117241
5.84901 472.5408 470.005834 468.532215 0.002116219
5.85781 472.63873 470.288233 468.765735 0.002115781
5.86661 471.65323 470.566965 469.008064 0.002120202
5.87541 470.75842 470.856203 469.258639 0.002124232
5.88422 469.93723 471.155633 469.516928 0.002127944
5.89302 470.90146 471.467932 469.782366 0.002123587
5.90182 471.5365 471.786918 470.054478 0.002120727
5.91062 471.8067 472.11538 470.33275 0.002119512
5.91943 471.69693 472.453217 470.616724 0.002120005
5.92823 472.32571 472.800414 470.905973 0.002117183
5.93703 472.61078 473.156979 471.200037 0.002115906
5.94583 473.23383 473.523065 471.498528 0.00211312
5.95463 473.6467 473.899084 471.801066 0.002111278
5.96344 473.78137 474.285002 472.107247 0.002110678
5.97224 474.01373 474.681501 472.41675 0.002109644
5.98104 474.07895 475.089197 472.729207 0.002109353
5.98984 474.70004 475.50891 473.044305 0.002106593
5.99864 475.64517 475.941709 473.36176 0.002102408
6.00745 476.00989 476.388878 473.681248 0.002100797
6.01625 475.99057 476.852071 474.002522 0.002100882
6.02505 475.79852 477.333284 474.325289 0.00210173
6.03385 475.70432 477.835527 474.649321 0.002102146
6.04266 476.66608 478.361229 474.974398 0.002097905
6.05146 477.26102 478.914987 475.300264 0.002095289
6.06026 477.5401 479.502541 475.626731 0.002094065
6.06906 477.93756 480.131987 475.953625 0.002092324
6.07786 478.41925 480.815116 476.280719 0.002090217
6.08667 478.41074 481.570175 476.607881 0.002090254
6.09547 479.43542 482.425413 476.934914 0.002085787
6.10427 480.81482 483.424226 477.261691 0.002079803
6.11307 481.62793 484.63256 477.588083 0.002076292
6.12187 482.51923 486.145191 477.913929 0.002072456
6.13068 483.36426 488.091743 478.239147 0.002068833
6.13948 484.41241 490.635984 478.563593 0.002064357
6.14828 485.30225 493.967756 478.887179 0.002060572
6.15708 487.74445 498.282969 479.209836 0.002050254
6.16589 491.11905 503.742689 479.531446 0.002036166
6.17469 496.33807 510.436387 479.851948 0.002014756
6.18349 504.09781 518.320227 480.171295 0.001983742
6.19229 515.25562 527.148156 480.489397 0.001940784
6.20109 530.18896 536.387133 480.806231 0.00188612
6.20990 548.64349 545.107538 481.121719 0.001822677
6.21870 566.76849 551.971268 481.435843 0.001764389
6.22750 580.73578 555.520063 481.748592 0.001721953
6.23630 584.12347 554.871611 482.059898 0.001711967
6.24510 576.52972 550.304739 482.369766 0.001734516
6.25391 558.91382 543.061053 482.678202 0.001789185
6.26271 538.81885 534.611598 482.985157 0.001855911
6.27151 521.2887 526.118926 483.290667 0.001918323
6.28031 508.64462 518.321908 483.594702 0.001966009
6.28911 499.92947 511.610442 483.897288 0.002000282
6.29792 495.02969 506.128566 484.198451 0.002020081
6.30672 492.64709 501.856177 484.498174 0.002029851
6.31552 491.30856 498.658872 484.796514 0.002035381
6.32432 490.68173 496.356488 485.093466 0.002037981
6.33313 490.59235 494.753015 485.389069 0.002038352
6.34193 490.52319 493.668445 485.683375 0.00203864
6.35073 490.32999 492.957061 485.97639 0.002039443
6.35953 490.10873 492.499437 486.268165 0.002040364
6.36833 489.6044 492.217602 486.558761 0.002042465
6.37714 489.49286 492.05673 486.848194 0.002042931
6.38594 490.03397 491.986958 487.136539 0.002040675
6.39474 490.66739 491.972937 487.423817 0.00203804
6.40354 490.66748 492.005748 487.710097 0.00203804
6.41234 490.21472 492.075407 487.995454 0.002039922
6.42115 490.55069 492.183397 488.279907 0.002038525
6.42995 491.18362 492.307859 488.563552 0.002035899
6.43875 492.29648 492.453377 488.846416 0.002031296
6.44755 492.49011 492.619628 489.128583 0.002030498
6.45636 492.57968 492.79907 489.410127 0.002030128
6.46516 493.02585 492.994617 489.691085 0.002028291
6.47396 493.5625 493.200911 489.971543 0.002026086
6.48276 493.89783 493.419276 490.251579 0.00202471
6.49156 494.62463 493.649496 490.531235 0.002021735
6.50037 495.33859 493.89197 490.810612 0.002018821
6.50917 495.35962 494.147609 491.089754 0.002018735
6.51797 496.00992 494.417795 491.368742 0.002016089
6.52677 496.95862 494.704134 491.647667 0.00201224
6.53557 498.10361 495.007989 491.926574 0.002007614
6.54438 499.44849 495.330036 492.205563 0.002002208
6.55318 500.11542 495.669483 492.484678 0.001999538
6.56198 500.47192 496.023368 492.764009 0.001998114
6.57078 502.00262 496.385269 493.04365 0.001992021
6.57958 504.17856 496.744122 493.323637 0.001983424
6.58839 506.42087 497.084229 493.604063 0.001974642
6.59719 507.96191 497.390711 493.885019 0.001968652
6.60599 508.68536 497.653286 494.166549 0.001965852
6.61479 507.61304 497.879414 494.448753 0.001970005
6.62360 505.59018 498.084602 494.731676 0.001977887
6.63240 503.75241 498.285201 495.015409 0.001985102
6.64120 502.74155 498.491717 495.300035 0.001989094
6.65000 502.39511 498.711166 495.585597 0.001990465
6.65880 501.88889 498.946619 495.872198 0.001992473
6.66761 501.50522 499.198712 496.15988 0.001993997
6.67641 501.91223 499.466551 496.448724 0.00199238
6.68521 502.63141 499.748396 496.738817 0.001989529
6.69401 502.31317 500.04213 497.030198 0.00199079
6.70281 501.87711 500.345741 497.322946 0.00199252
6.71162 502.47632 500.657872 497.617147 0.001990144
6.72042 503.66315 500.976556 497.912835 0.001985454
6.72922 503.92584 501.301244 498.210105 0.001984419
6.73802 504.34354 501.631335 498.508987 0.001982775
6.74682 504.63577 501.96653 498.809562 0.001981627
6.75563 504.68927 502.306708 499.111912 0.001981417
6.76443 504.98209 502.651791 499.416057 0.001980268
6.77323 505.53226 503.001851 499.722075 0.001978113
6.78203 506.72467 503.357006 500.030043 0.001973458
6.79084 507.62372 503.717363 500.339985 0.001969963
6.79964 507.73169 504.087085 500.651986 0.001969544
6.80844 506.87976 504.458434 500.966067 0.001972854
6.81724 506.73209 504.835618 501.282303 0.001973429
6.82604 508.44333 505.21899 501.600756 0.001966788
6.83485 510.5835 505.608672 501.921444 0.001958544
6.84365 511.01187 506.005118 502.244452 0.001956902
6.85245 510.0892 506.408675 502.569794 0.001960441
6.86125 509.67307 506.81979 502.897528 0.001962042
6.87005 509.60989 507.240106 503.22772 0.001962285
6.87886 510.16818 507.669784 503.560379 0.001960138
6.88766 510.65613 508.106807 503.895559 0.001958265
6.89646 511.60266 508.553818 504.233323 0.001954642
6.90526 512.29321 509.011591 504.57367 0.001952007
6.91407 512.91168 509.48114 504.916682 0.001949653
6.92287 512.79755 509.963504 505.262346 0.001950087
6.93167 513.36383 510.460133 505.610721 0.001947936
6.94047 513.85693 510.975433 505.961858 0.001946067
6.94927 514.13007 511.504964 506.315754 0.001945033
6.95808 513.61731 512.054013 506.672471 0.001946975
6.96688 513.74121 512.625011 507.031999 0.001946505
6.97568 514.56793 513.222629 507.394391 0.001943378
6.98448 515.88782 513.847267 507.759683 0.001938406
6.99328 517.04309 514.504938 508.127863 0.001934075
7.00209 517.92279 515.203082 508.498977 0.00193079
7.01089 518.08728 515.945251 508.873059 0.001930177
7.01969 519.29321 516.742748 509.250089 0.001925694
7.02849 519.47089 517.609146 509.630129 0.001925036
7.03729 519.30573 518.56435 510.013156 0.001925648
7.04610 519.27954 519.6395 510.399197 0.001925745
7.05490 520.54608 520.8835 510.788292 0.00192106
7.06370 521.86414 522.373231 511.180413 0.001916208
7.07250 523.74457 524.225828 511.575607 0.001909328
7.08131 524.80005 526.609507 511.973841 0.001905488
7.09011 526.35852 529.75094 512.375145 0.001899846
7.09891 528.78595 533.924203 512.779554 0.001891124
7.10771 531.90112 539.427154 513.187016 0.001880049
7.11651 536.38672 546.528952 513.597563 0.001864327
7.12532 542.96985 555.388219 514.011219 0.001841723
7.13412 552.57208 565.962145 514.427944 0.001809719
7.14292 567.1792 577.875329 514.847774 0.001763111
7.15172 586.78052 590.233335 515.270664 0.001704215
7.16052 605.18988 601.426022 515.696638 0.001652374
7.16933 618.3183 609.184527 516.125708 0.00161729
7.17813 620.76117 611.395503 516.557822 0.001610926
7.18693 611.45319 607.498987 516.993022 0.001635448
7.19573 595.98053 598.938109 517.431256 0.001677907
7.20453 578.01294 588.060224 517.872528 0.001730065
7.21334 562.8454 576.872038 518.316857 0.001776687
7.22214 551.92334 566.630094 518.764185 0.001811846
7.23094 544.41895 557.958322 519.214514 0.001836821
7.23974 539.80737 551.058258 519.66786 0.001852513
7.24855 537.58124 545.86515 520.124155 0.001860184
7.25735 536.81885 542.157226 520.583439 0.001862826
7.26615 536.53735 539.646265 521.045631 0.001863803
7.27495 536.25513 538.040723 521.510744 0.001864784
7.28375 535.77594 537.087387 521.978784 0.001866452
7.29256 535.48114 536.588798 522.449681 0.001867479
7.30136 535.77673 536.403402 522.923429 0.001866449
7.31016 536.1723 536.435468 523.400036 0.001865072
7.31896 536.87109 536.624965 523.87943 0.001862645
7.32777 537.58136 536.934181 524.361628 0.001860184
7.33657 538.24823 537.340263 524.846555 0.001857879
7.34537 538.63672 537.828991 525.334216 0.001856539
7.35417 539.53418 538.394045 525.8246 0.001853451
7.36297 540.62781 539.032698 526.317627 0.001849701
7.37178 541.20709 539.745643 526.813323 0.001847722
7.38058 541.9491 540.541118 527.311607 0.001845192
7.38938 542.51984 541.433452 527.812463 0.001843251
7.39818 542.69165 542.446565 528.315894 0.001842667
7.40698 543.19873 543.614616 528.821814 0.001840947
7.41579 544.00952 544.985167 529.330207 0.001838203
7.42459 545.3092 546.604293 529.841072 0.001833822
7.43339 546.04858 548.525372 530.354315 0.001831339
7.44219 547.04175 550.786696 530.869965 0.001828014
7.45099 547.92834 553.396235 531.387915 0.001825056
7.45980 549.61316 556.312191 531.90816 0.001819462
7.46860 551.17755 559.411164 532.430694 0.001814297
7.47740 552.36627 562.449476 532.955423 0.001810393
7.48620 553.12164 565.052381 533.482357 0.001807921
7.49501 553.50421 566.833011 534.0114 0.001806671
7.50381 553.85742 567.640416 534.542548 0.001805519
7.51261 554.29993 567.688576 535.075778 0.001804077
7.52141 554.47357 567.394781 535.610995 0.001803512
7.53021 555.01245 567.135834 536.148191 0.001801761
7.53902 556.92358 567.157668 536.687343 0.001795578
7.54782 558.8847 567.592835 537.228354 0.001789278
7.55662 560.68762 568.500258 537.771239 0.001783524
7.56542 562.5733 569.895237 538.315901 0.001777546
7.57422 565.03802 571.772736 538.862313 0.001769792
7.58303 568.42084 574.119438 539.410468 0.00175926
7.59183 573.00159 576.936579 539.960259 0.001745196
7.60063 577.22162 580.238133 540.511709 0.001732437
7.60943 581.28912 584.07004 541.064697 0.001720314
7.61823 587.43567 588.512499 541.619215 0.001702314
7.62704 594.22241 593.699031 542.175248 0.001682872
7.63584 602.47321 599.824479 542.732694 0.001659825
7.64464 613.64948 607.218768 543.291523 0.001629595
7.65344 627.69287 616.407557 543.851728 0.001593136
7.66225 644.91675 628.22917 544.413204 0.001550588
7.67105 665.29102 643.989412 544.975955 0.001503102
7.67985 692.17059 665.585215 545.539876 0.001444731
7.68865 725.11072 695.61657 546.104958 0.0013791
7.69745 769.00128 737.282431 546.671173 0.001300388
7.70626 823.17023 794.054766 547.238415 0.001214816
7.71506 893.16895 869.04277 547.8067 0.001119609
7.72386 978.71198 964.01171 548.375923 0.001021751
7.73266 1088.1097 1078.15864 548.946055 0.000919025
7.74146 1210.988 1206.308679 549.517088 0.000825772
7.75027 1329.9487 1336.4414 550.088914 0.000751909
7.75907 1430.6544 1447.214627 550.661506 0.000698981
7.76787 1482.1047 1510.639219 551.234854 0.000674716
7.77667 1481.1124 1505.716824 551.808846 0.000675168
7.78548 1415.5599 1434.619818 552.383505 0.000706434
7.79428 1314.8831 1320.856258 552.958706 0.000760524
7.80308 1194.048 1191.947268 553.534441 0.000837487
7.81188 1075.9529 1067.630975 554.110693 0.000929409
7.82068 971.86548 958.600583 554.687358 0.001028949
7.82949 885.78436 869.166819 555.264407 0.001128943
7.83829 817.85046 799.605538 555.841833 0.001222717
7.84709 767.66864 747.862526 556.41953 0.001302645
7.85589 729.73047 710.720356 556.997503 0.001370369
7.86469 698.90485 684.731301 557.575647 0.00143081
7.87350 676.26892 666.792166 558.153956 0.001478702
7.88230 657.34119 654.440582 558.732402 0.00152128
7.89110 644.1582 645.902595 559.31088 0.001552414
7.89990 635.47064 639.993954 559.889412 0.001573637
7.90870 628.98944 635.971067 560.467891 0.001589852
7.91751 624.51514 633.404208 561.046294 0.001601242
7.92631 620.72992 632.071134 561.624614 0.001611007
7.93511 618.47675 631.901329 562.202742 0.001616876
7.94391 617.72589 632.949585 562.780672 0.001618841
7.95272 619.30212 635.39058 563.358381 0.001614721
7.96152 622.2041 639.512769 563.935765 0.00160719
7.97032 627.15802 645.703502 564.512848 0.001594494
7.97912 633.58325 654.398593 565.089528 0.001578325
7.98792 643.66681 665.999646 565.665781 0.001553599
7.99673 657.05823 680.762507 566.241606 0.001521935
8.00553 675.4931 698.633261 566.816933 0.0014804
8.01433 699.75317 719.053234 567.391644 0.001429075
8.02313 729.73035 740.676528 567.965835 0.001370369
8.03193 762.39008 761.180529 568.5394 0.001311664
8.04074 793.15015 777.974422 569.112241 0.001260795
8.04954 814.75012 790.306528 569.684434 0.00122737
8.05834 825.5224 801.074509 570.255883 0.001211354
8.06714 828.92517 815.99462 570.82649 0.001206382
8.07594 838.67462 841.283255 571.396335 0.001192358
8.08475 860.6095 882.171789 571.965319 0.001161967
8.09355 904.68756 942.293831 572.53335 0.001105354
8.10235 971.83307 1023.117156 573.100505 0.001028983
8.11115 1062.2097 1122.890035 573.66669 0.000941434
8.11996 1178.868 1235.005978 574.231871 0.000848271
8.12876 1302.1382 1345.568131 574.795953 0.000767968
8.13756 1419.2511 1432.280906 575.359017 0.000704597
8.14636 1503.307 1470.561588 575.920971 0.0006652
8.15516 1531.5334 1449.413534 576.481725 0.00065294
8.16397 1486.1655 1381.126167 577.04136 0.000672873
8.17277 1378.2733 1291.051875 577.599785 0.000725546
8.18157 1246.0553 1201.54011 578.156912 0.000802533
8.19037 1131.0811 1125.487201 578.712823 0.00088411
8.19917 1050.3622 1067.111978 579.267431 0.000952053
8.20798 995.82233 1023.915822 579.820641 0.001004195
8.21678 957.42975 988.669001 580.372555 0.001044463
8.22558 928.7132 953.362849 580.92307 0.001076759
8.23438 900.82458 914.246244 581.472163 0.001110094
8.24319 871.15045 873.126393 582.019742 0.001147907
8.25199 839.04309 833.969008 582.565912 0.001191834
8.26079 810.97693 799.850529 583.110571 0.001233081
8.26959 787.32336 772.331269 583.653636 0.001270126
8.27839 769.51727 751.946619 584.195205 0.001299516
8.28720 760.85742 738.760491 584.735197 0.001314307
8.29600 760.24585 732.741199 585.273515 0.001315364
8.30480 769.86841 734.100394 585.810262 0.001298923
8.31360 790.84198 743.592777 586.345353 0.001264475
8.32240 819.53516 762.675903 586.878712 0.001220204
8.33121 857.50922 793.477364 587.410425 0.001166168
8.34001 905.16461 838.456879 587.940416 0.001104771
8.34881 962.01923 899.786288 588.468663 0.00103948
8.35761 1028.1299 978.405196 588.995093 0.00097264
8.36641 1106.7002 1072.833453 589.519793 0.000903587
8.37522 1190.5841 1177.378113 590.04269 0.000839924
8.38402 1274.845 1279.758595 590.563711 0.000784409
8.39282 1335.6954 1359.578347 591.082946 0.000748674
8.40162 1352.0034 1393.396393 591.600324 0.000739643
8.41043 1325.2051 1369.382389 592.115774 0.0007546
8.41923 1252.6328 1297.609904 592.629387 0.000798319
8.42803 1157.3358 1201.624882 593.141093 0.000864053
8.43683 1062.958 1103.365164 593.650825 0.000940771
8.44563 979.66608 1016.921465 594.158674 0.001020756
8.45444 920.70905 949.688737 594.664573 0.001086119
8.46324 889.54498 904.624626 595.168508 0.00112417
8.47204 886.54065 881.792295 595.670416 0.00112798
8.48084 903.81488 879.235078 596.170388 0.001106421
8.48964 936.33771 893.363822 596.66836 0.001067991
8.49845 973.05432 918.853413 597.164271 0.001027692
8.50725 1005.1349 947.971875 597.658212 0.000994891
8.51605 1025.3518 970.324111 598.150122 0.000975275
8.52485 1012.1319 975.477021 598.639942 0.000988014
8.53366 969.48395 958.853938 599.127765 0.001031477
8.54246 908.95026 924.484349 599.613531 0.00110017
8.55126 843.25452 880.68959 600.097178 0.001185882
8.56006 789.02563 834.899867 600.578815 0.001267386
8.56886 746.55359 792.128286 601.05837 0.001339489
8.57767 712.63257 755.175711 601.535842 0.001403248
8.58647 689.33496 725.096863 602.011173 0.001450674
8.59527 672.23157 701.708688 602.484471 0.001487583
8.60407 659.86041 684.137997 602.955667 0.001515472
8.61287 651.34241 671.226476 603.42471 0.001535291
8.62168 645.62482 661.816327 603.891704 0.001548887
8.63048 641.20984 654.921606 604.356599 0.001559552
8.63928 638.04541 649.780228 604.819328 0.001567287
8.64808 635.05011 645.845734 605.280002 0.001574679
8.65689 632.51227 642.750499 605.738568 0.001580997
8.66569 631.14124 640.254242 606.194977 0.001584431
8.67449 630.08667 638.200807 606.649325 0.001587083
8.68329 629.96832 636.488694 607.101565 0.001587381
8.69209 629.07428 635.04868 607.551698 0.001589637
8.70090 628.46606 633.831627 607.999681 0.001591176
8.70970 628.96588 632.800318 608.445607 0.001589911
8.71850 629.29254 631.926328 608.889434 0.001589086
8.72730 629.23651 631.18688 609.33112 0.001589228
8.73610 628.99554 630.563099 609.770759 0.001589836
8.74491 629.05426 630.039705 610.20831 0.001589688
8.75371 628.95276 629.603932 610.643734 0.001589945
8.76251 628.52856 629.244849 611.077125 0.001591018
8.77131 627.4762 628.953401 611.508444 0.001593686
8.78011 627.15039 628.721865 611.937654 0.001594514
8.78892 628.08167 628.543511 612.364849 0.00159215
8.79772 628.9953 628.412676 612.789992 0.001589837
8.80652 629.22034 628.32442 613.213092 0.001589268
8.81532 629.58612 628.274481 613.634112 0.001588345
8.82413 630.39709 628.259096 614.053148 0.001586302
8.83293 630.65948 628.275025 614.470166 0.001585642
8.84173 630.79175 628.319418 614.885132 0.001585309
8.85053 630.9375 628.389749 615.298142 0.001584943
8.85933 631.47064 628.483814 615.709162 0.001583605
8.86814 632.41541 628.599652 616.118162 0.001581239
8.87694 633.39026 628.73554 616.525237 0.001578805
8.88574 633.84564 628.889942 616.930355 0.001577671
8.89454 634.32617 629.061488 617.333484 0.001576476
8.90334 634.18793 629.249005 617.73473 0.00157682
8.91215 633.86676 629.451406 618.134053 0.001577619
8.92095 633.97321 629.667755 618.531469 0.001577354
8.92975 635.22754 629.897202 618.926947 0.001574239
8.93855 636.41626 630.139074 619.320595 0.001571299
8.94736 637.36737 630.392712 619.712372 0.001568954
8.95616 637.88037 630.657572 620.102254 0.001567692
8.96496 638.44965 630.933258 620.490344 0.001566294
8.97376 640.20557 631.219423 620.876617 0.001561998
8.98256 641.99359 631.515796 621.261035 0.001557648
8.99137 642.84106 631.822363 621.643706 0.001555594
9.00017 644.41913 632.139233 622.024602 0.001551785
9.00897 646.73621 632.466838 622.403702 0.001546225
9.01777 648.7934 632.806177 622.781098 0.001541323
9.02657 649.15039 633.158899 623.156769 0.001540475
9.03538 649.78296 633.527631 623.530732 0.001538975
9.04418 650.64355 633.916113 623.902967 0.00153694
9.05298 652.0603 634.329231 624.273567 0.0015336
9.06178 652.20502 634.772378 624.642512 0.00153326
9.07058 651.53577 635.250533 625.009783 0.001534835
9.07939 650.7558 635.766943 625.375473 0.001536675
9.08819 650.03882 636.320827 625.739564 0.00153837
9.09699 650.12836 636.904685 626.102037 0.001538158
9.10579 649.84009 637.500477 626.462986 0.00153884
9.11460 648.95435 638.075144 626.822393 0.00154094
9.12340 648.82593 638.584709 627.18024 0.001541245
9.13220 648.55878 638.996497 627.536622 0.00154188
9.14100 648.52563 639.315021 627.89152 0.001541959
9.14980 648.29761 639.578408 628.24492 0.001542501
9.15861 648.59094 639.830069 628.596914 0.001541804
9.16741 648.44226 640.100328 628.947487 0.001542157
9.17621 648.27771 640.405314 629.296658 0.001542549
9.18501 648.1853 640.751335 629.644414 0.001542769
9.19381 648.11688 641.138802 629.990847 0.001542932
9.20262 648.41797 641.564599 630.335942 0.001542215
9.21142 648.92834 642.024118 630.679686 0.001541002
9.22022 649.31329 642.512776 631.02217 0.001540089
9.22902 649.77576 643.026623 631.363381 0.001538992
9.23782 650.28961 643.562831 631.703302 0.001537776
9.24663 649.79962 644.119955 632.042036 0.001538936
9.25543 649.56158 644.697321 632.379558 0.0015395
9.26423 650.16022 645.294993 632.715857 0.001538082
9.27303 651.32281 645.913798 633.051031 0.001535337
9.28184 650.7793 646.554738 633.385067 0.001536619
9.29064 650.59106 647.219182 633.717982 0.001537064
9.29944 650.6593 647.908681 634.049763 0.001536903
9.30824 651.35254 648.625308 634.380508 0.001535267
9.31704 652.60913 649.37113 634.710205 0.001532311
9.32585 654.12836 650.14848 635.038834 0.001528752
9.33465 655.67828 650.960311 635.366494 0.001525138
9.34345 656.84827 651.809621 635.693172 0.001522422
9.35225 657.71527 652.699787 636.018857 0.001520415
9.36105 658.6051 653.634973 636.343638 0.001518361
9.36986 660.13721 654.619521 636.667505 0.001514837
9.37866 661.87677 655.658337 636.990448 0.001510855
9.38746 663.70471 656.757407 637.312555 0.001506694
9.39626 664.76154 657.923115 637.633818 0.001504299
9.40507 665.44983 659.162902 637.954258 0.001502743
9.41387 665.7749 660.485098 638.273866 0.001502009
9.42267 665.49384 661.899828 638.59273 0.001502644
9.43147 666.16693 663.418207 638.910841 0.001501125
9.44027 666.92706 665.053076 639.228189 0.001499414
9.44908 666.82019 666.82004 639.544862 0.001499655
9.45788 666.32111 668.736625 639.860851 0.001500778
9.46668 666.87775 670.823324 640.176145 0.001499525
9.47548 668.62231 673.105214 640.490833 0.001495613
9.48428 670.55762 675.611064 640.804904 0.001491296
9.49309 672.04047 678.375208 641.11835 0.001488006
9.50189 673.63446 681.439555 641.431257 0.001484485
9.51069 675.95618 684.854148 641.743616 0.001479386
9.51949 679.26135 688.679771 642.055449 0.001472187
9.52829 683.45361 692.990586 642.366747 0.001463157
9.53710 688.77814 697.880897 642.677596 0.001451846
9.54590 693.83606 703.468608 642.987987 0.001441263
9.55470 700.19989 709.908784 643.29791 0.001428164
9.56350 709.3399 717.416839 643.607451 0.001409761
9.57231 720.46216 726.305421 643.916599 0.001387998
9.58111 734.41949 737.053632 644.225343 0.00136162
9.58991 750.40137 750.431907 644.533777 0.00133262
9.59871 770.02765 767.669369 644.841881 0.001298655
9.60751 796.19568 790.702618 645.149645 0.001255973
9.61632 830.38245 822.439546 645.457161 0.001204264
9.62512 872.74823 866.948628 645.764418 0.001145806
9.63392 925.45374 929.432931 646.071431 0.001080551
9.64272 999.43005 1015.80249 646.37819 0.00100057
9.65152 1091.838 1131.760269 646.684785 0.000915887
9.66033 1238.1521 1281.284571 646.991205 0.000807655
9.66913 1395.7448 1464.624758 647.297431 0.000716463
9.67793 1631.1947 1675.764477 647.603555 0.000613048
9.68673 1861.3014 1898.647162 647.909562 0.000537259
9.69553 2108.8899 2102.759142 648.215443 0.000474183
9.70434 2279.6204 2243.429574 648.52128 0.00043867
9.71314 2367.2395 2277.685724 648.82706 0.000422433
9.72194 2273.3713 2193.439009 649.132773 0.000439875
9.73074 2101.51 2019.606556 649.438502 0.000475848
9.73955 1856.9504 1803.206009 649.744233 0.000538517
9.74835 1595.6532 1583.459801 650.049986 0.000626703
9.75715 1370.8458 1384.064329 650.35575 0.000729477
9.76595 1181.1981 1216.088788 650.661605 0.000846598
9.77475 1043.0907 1082.443498 650.967538 0.000958689
9.78356 942.99854 980.945143 651.273538 0.001060447
9.79236 875.40747 906.634828 651.579685 0.001142325
9.80116 824.28577 853.582278 651.885965 0.001213171
9.80996 788.23053 816.0977 652.192366 0.001268664
9.81876 760.76727 789.451832 652.498968 0.001314462
9.82757 741.78052 770.104878 652.805756 0.001348108
9.83637 727.11987 755.611621 653.112717 0.001375289
9.84517 716.25818 744.3757 653.419931 0.001396145
9.85397 706.63049 735.399564 653.727382 0.001415167
9.86278 699.27802 728.061785 654.035088 0.001430046
9.87158 693.50214 721.968595 654.343034 0.001441957
9.88038 689.56512 716.858833 654.651299 0.001450189
9.88918 686.07471 712.549885 654.959867 0.001457567
9.89798 683.59503 708.907559 655.268722 0.001462854
9.90679 682.43256 705.82786 655.577944 0.001465346
9.91559 681.02924 703.230368 655.887515 0.001468366
9.92439 679.37341 701.050891 656.197416 0.001471945
9.93319 677.8299 699.237877 656.507735 0.001475296
9.94199 677.10596 697.750988 656.818445 0.001476874
9.95080 676.89807 696.558357 657.129528 0.001477327
9.95960 676.19672 695.635583 657.441069 0.00147886
9.96840 675.54321 694.965543 657.75305 0.00148029
9.97720 675.60645 694.537994 658.065478 0.001480152
9.98600 676.66217 694.350295 658.378334 0.001477842
9.99481 677.70813 694.409447 658.691701 0.001475561
10.00361 678.32562 694.73459 659.005573 0.001474218
10.01241 678.18604 695.360832 659.319883 0.001474522
10.02121 679.75787 696.343427 659.634778 0.001471112
10.03002 682.18903 697.758985 659.950164 0.001465869
10.03882 685.13135 699.705088 660.266053 0.001459574
10.04762 688.47162 702.293316 660.582563 0.001452493
10.05642 691.98077 705.633676 660.899599 0.001445127
10.06522 696.75671 709.816937 661.217208 0.001435221
10.07403 703.33344 714.891347 661.535399 0.001421801
10.08283 710.45349 720.8392 661.854221 0.001407552
10.09163 718.92523 727.543046 662.173611 0.001390965
10.10043 730.78253 734.772144 662.493579 0.001368396
10.10923 743.99127 742.267488 662.814244 0.001344102
10.11804 759.94562 750.068457 663.135505 0.001315884
10.12684 779.53082 758.986981 663.45741 0.001282823
10.13564 801.70837 770.728634 663.779966 0.001247336
10.14444 827.38678 787.511449 664.10322 0.001208625
10.15325 860.15894 811.563441 664.42707 0.001162576
10.16205 894.99994 844.771405 664.751633 0.001117319
10.17085 929.33667 888.269171 665.076919 0.001076036
10.17965 973.83459 941.946788 665.402824 0.001026868
10.18845 1016.086 1003.8752 665.729503 0.000984169
10.19726 1064.8524 1069.300754 666.056853 0.000939097
10.20606 1114.2563 1129.707678 666.384955 0.00089746
10.21486 1145.2561 1172.939319 666.713703 0.000873167
10.22366 1165.0735 1187.449265 667.043216 0.000858315
10.23246 1163.6835 1169.805862 667.3735 0.00085934
10.24127 1127.8711 1127.80813 667.704449 0.000886626
10.25007 1090.5789 1074.866724 668.036218 0.000916944
10.25887 1039.8032 1023.041162 668.3687 0.00096172
10.26767 998.93365 980.338365 668.701937 0.001001067
10.27647 967.83124 951.068319 669.035935 0.001033238
10.28528 948.0318 936.633571 669.370697 0.001054817
10.29408 936.67999 936.126631 669.706229 0.0010676
10.30288 933.7124 946.465769 670.042534 0.001070994
10.31168 934.92889 962.399998 670.379654 0.0010696
10.32048 937.71423 976.57276 670.717478 0.001066423
10.32929 939.23486 980.960044 671.056163 0.001064696
10.33809 932.1908 970.425467 671.395596 0.001072742
10.34689 918.05743 945.740021 671.735819 0.001089256
10.35569 897.55859 912.277089 672.076833 0.001114133
10.36450 872.32672 876.12688 672.418642 0.001146359
10.37330 846.4892 841.721101 672.761287 0.00118135
10.38210 825.62689 811.586356 673.104651 0.001211201
10.39090 807.58472 786.826578 673.448893 0.00123826
10.39971 795.02948 767.630535 673.793897 0.001257815
10.40851 787.21478 753.619352 674.139663 0.001270301
10.41731 782.66699 744.147478 674.486311 0.001277683
10.42611 781.52612 738.564283 674.833722 0.001279548
10.43491 784.66113 736.391668 675.181937 0.001274436
10.44371 790.57507 737.43033 675.530955 0.001264902
10.45252 799.49829 741.77918 675.880816 0.001250784
10.46132 810.81384 749.771572 676.23144 0.001233329
10.47012 824.61115 761.836549 676.582827 0.001212693
10.47892 839.15631 778.312969 676.935095 0.001191673
10.48773 846.10413 799.204741 677.288122 0.001181888
10.49653 853.89185 823.913112 677.641949 0.001171108
10.50533 863.68744 850.913104 677.996573 0.001157826
10.51413 874.99432 877.307948 678.351992 0.001142865
10.52293 886.06439 898.613034 678.708204 0.001128586
10.53174 896.07227 909.548196 679.065208 0.001115981
10.54054 894.92169 906.620024 679.423041 0.001117416
10.54934 884.24371 890.611738 679.781578 0.00113091
10.55814 864.80939 865.954261 680.14098 0.001156324
10.56695 839.22119 837.833585 680.501121 0.001191581
10.57575 812.71704 810.177641 680.862038 0.001230441
10.58455 788.49036 785.314718 681.223728 0.001268246
10.59335 766.9845 764.361791 681.586188 0.001303807
10.60215 749.71118 747.597372 681.949454 0.001333847
10.61096 737.4422 734.759232 682.313398 0.001356038
10.61976 728.02441 725.270389 682.678182 0.00137358
10.62856 721.0343 718.439042 683.043677 0.001386897
10.63736 715.16284 713.590943 683.409918 0.001398283
10.64616 710.50763 710.151431 683.776903 0.001407444
10.65497 707.13434 707.680525 684.144624 0.001414158
10.66377 704.42792 705.865052 684.513078 0.001419592
10.67257 701.63391 704.494663 684.882258 0.001425245
10.68137 699.95532 703.434814 685.2522 0.001428663
10.69017 699.47144 702.600333 685.622816 0.001429651
10.69898 698.92993 701.937133 685.99414 0.001430759
10.70778 697.45844 701.40929 686.366167 0.001433777
10.71658 697.06879 700.99217 686.73889 0.001434579
10.72538 697.034 700.667743 687.112302 0.00143465
10.73419 697.04779 700.421945 687.486397 0.001434622
10.74299 696.70905 700.243849 687.86121 0.001435319
10.75179 695.828 700.124492 688.236607 0.001437137
10.76059 695.19751 700.056543 688.612751 0.00143844
10.76939 695.48792 700.033869 688.989506 0.001437839
10.77820 695.91052 700.05144 689.366865 0.001436966
10.78700 697.19629 700.105017 689.744948 0.001434316
10.79580 697.5965 700.190986 690.123619 0.001433493
10.80460 697.71643 700.306412 690.502957 0.001433247
10.81340 698.63049 700.448708 690.882823 0.001431372
10.82221 699.44397 700.615824 691.263338 0.001429707
10.83101 700.27704 700.806062 691.644495 0.001428006
10.83981 700.97162 701.017891 692.026155 0.001426591
10.84861 702.37622 701.2503 692.408482 0.001423738
10.85741 703.26318 701.502323 692.791338 0.001421943
10.86622 704.30475 701.77338 693.174757 0.00141984
10.87502 705.27991 702.063072 693.55873 0.001417877
10.88382 706.388 702.371279 693.943248 0.001415653
10.89262 707.3053 702.698119 694.328301 0.001413817
10.90142 707.97284 703.04398 694.71388 0.001412484
10.91023 708.55249 703.409602 695.10002 0.001411328
10.91903 709.31122 703.795958 695.486622 0.001409818
10.92783 709.28491 704.20456 695.873722 0.001409871
10.93663 709.68842 704.637445 696.261308 0.001409069
10.94544 710.85138 705.097396 696.649372 0.001406764
10.95424 711.30121 705.588304 697.037903 0.001405874
10.96304 710.82648 706.115893 697.426891 0.001406813
10.97184 710.1911 706.688818 697.81637 0.001408072
10.98064 710.60107 707.320414 698.206197 0.001407259
10.98945 712.09674 708.032334 698.596539 0.001404304
10.99825 713.7265 708.858068 698.987252 0.001401097
11.00705 715.15997 709.849084 699.378369 0.001398289
11.01585 716.24451 711.08025 699.769881 0.001396171
11.02465 718.42859 712.654688 700.161777 0.001391927
11.03346 721.39063 714.703107 700.554089 0.001386212
11.04226 724.72046 717.375833 700.946675 0.001379842
11.05106 727.88879 720.82632 701.3397 0.001373836
11.05986 732.00714 725.179202 701.733021 0.001366107
11.06867 736.25543 730.493097 702.126671 0.001358224
11.07747 740.55804 736.713353 702.520638 0.001350333
11.08627 745.02948 743.621683 702.914912 0.001342229
11.09507 750.04736 750.762734 703.309482 0.001333249
11.10387 754.87756 757.379546 703.704335 0.001324718
11.11268 760.19238 762.417265 704.099506 0.001315456
11.12148 764.49054 764.798089 704.494849 0.001308061
11.13028 765.80426 763.974751 704.890487 0.001305817
11.13908 763.6969 760.302534 705.286408 0.00130942
11.14789 758.51959 754.791205 705.682512 0.001318358
11.15669 751.65082 748.537706 706.078831 0.001330405
11.16549 744.91705 742.373523 706.475355 0.001342431
11.17429 738.97784 736.817659 706.872116 0.001353221
11.18309 734.1134 732.137645 707.268968 0.001362187
11.19190 729.93298 728.419085 707.666035 0.001369989
11.20070 727.18915 725.625924 708.063305 0.001375158
11.20950 725.52039 723.645071 708.46063 0.001378321
11.21830 724.09235 722.327168 708.858181 0.001381039
11.22710 723.0871 721.519611 709.25581 0.001382959
11.23591 722.22443 721.086605 709.653551 0.001384611
11.24471 721.74554 720.919272 710.051391 0.00138553
11.25351 721.14081 720.936955 710.449319 0.001386692
11.26231 720.83356 721.084219 710.84737 0.001387283
11.27111 720.41315 721.324501 711.245395 0.001388092
11.27992 720.36072 721.63512 711.643563 0.001388193
11.28872 719.97559 722.001944 712.041729 0.001388936
11.29752 719.7572 722.416761 712.439924 0.001389357
11.30632 719.96234 722.874755 712.838139 0.001388962
11.31513 720.79187 723.373349 713.23636 0.001387363
11.32393 721.06305 723.911641 713.634578 0.001386841
11.33273 721.54712 724.4899 714.032779 0.001385911
11.34153 721.95752 725.109959 714.430999 0.001385123
11.35033 722.32422 725.774688 714.829089 0.00138442
11.35914 722.54517 726.489731 715.227219 0.001383997
11.36794 723.24664 727.263069 715.625243 0.001382654
11.37674 724.14508 728.10749 716.023195 0.001380939
11.38554 726.0412 729.042062 716.421062 0.001377332
11.39434 727.3667 730.094438 716.818834 0.001374822
11.40315 728.70203 731.303951 717.216544 0.001372303
11.41195 730.16455 732.721851 717.614047 0.001369554
11.42075 731.67242 734.414373 718.011511 0.001366732
11.42955 733.52655 736.457032 718.408791 0.001363277
11.43835 736.04663 738.932364 718.805874 0.00135861
11.44716 739.06268 741.921924 719.202886 0.001353065
11.45596 742.60217 745.493522 719.599681 0.001346616
11.46476 746.64844 749.696431 719.996292 0.001339318
11.47356 751.26611 754.544195 720.392709 0.001331086
11.48237 756.37061 760.001597 720.788967 0.001322103
11.49117 761.95453 765.953191 721.184919 0.001312414
11.49997 768.6554 772.205777 721.580691 0.001300973
11.50877 775.65051 778.55227 721.976271 0.00128924
11.51757 782.52411 784.927465 722.371559 0.001277916
11.52638 789.83752 791.537537 722.76659 0.001266083
11.53518 797.47424 798.752098 723.161355 0.001253959
11.54398 806.88055 806.853755 723.555886 0.001239341
11.55278 817.49609 815.797225 723.950041 0.001223247
11.56158 825.66119 825.090444 724.343943 0.001211151
11.57039 831.24023 833.757445 724.737582 0.001203022
11.57919 836.70557 840.517831 725.130815 0.001195164
11.58799 838.29364 844.337326 725.523811 0.001192899
11.59679 837.01208 845.020467 725.916425 0.001194726
11.60559 832.18152 843.290592 726.308693 0.001201661
11.61440 824.81647 840.223261 726.700606 0.001212391
11.62320 818.55017 836.642425 727.092155 0.001221672
11.63200 813.56476 832.912524 727.483373 0.001229158
11.64080 809.92151 829.137391 727.87412 0.001234688
11.64961 809.56781 825.54194 728.264564 0.001235227
11.65841 811.79517 822.774994 728.654562 0.001231838
11.66721 816.57489 821.851326 729.044151 0.001224627
11.67601 824.27148 823.946186 729.433321 0.001213193
11.68481 834.05322 830.223155 729.822063 0.001198964
11.69362 846.79987 841.776764 730.210371 0.001180917
11.70242 862.17224 859.562248 730.598234 0.001159861
11.71122 882.69397 884.267876 730.985689 0.001132895
11.72002 908.00916 916.128342 731.372595 0.00110131
11.72883 941.57281 954.712672 731.759122 0.001062053
11.73763 982.28583 998.645537 732.145127 0.001018034
11.74643 1028.6063 1045.314147 732.530649 0.000972189
11.75523 1073.6602 1090.554127 732.915679 0.000931393
11.76403 1114.4647 1128.520131 733.30021 0.000897292
11.77284 1148.0875 1152.606301 733.684278 0.000871014
11.78164 1163.0549 1157.892739 734.067744 0.000859805
11.79044 1165.0206 1143.892368 734.450777 0.000858354
11.79924 1147.5313 1114.883329 734.833237 0.000871436
11.80804 1119.3031 1077.45779 735.215119 0.000893413
11.81685 1082.954 1037.786985 735.596546 0.0009234
11.82565 1049.2008 1000.438178 735.977381 0.000953106
11.83445 1020.3762 968.339164 736.357661 0.000980031
11.84325 996.20514 943.137 736.737379 0.001003809
11.85206 976.72052 925.684283 737.116573 0.001023834
11.86086 964.3656 916.482815 737.495149 0.001036951
11.86966 956.55457 916.026725 737.873103 0.001045419
11.87846 954.69446 924.850156 738.250557 0.001047456
11.88726 960.88727 943.34337 738.627376 0.001040705
11.89607 975.96454 971.49312 739.003599 0.001024627
11.90487 1001.5803 1008.67034 739.379219 0.000998422
11.91367 1036.0122 1053.357391 739.754273 0.00096524
11.92247 1077.7952 1102.852345 740.12863 0.00092782
11.93127 1126.0574 1152.9322 740.502411 0.000888054
11.94008 1172.7811 1197.581577 740.875611 0.000852674
11.94888 1209.2085 1229.565065 741.2481 0.000826987
11.95768 1226.5509 1242.558333 741.62004 0.000815294
11.96648 1224.0751 1234.20401 741.991302 0.000816943
11.97528 1199.1178 1207.554984 742.361964 0.000833946
11.98409 1159.5935 1169.21044 742.731897 0.000862371
11.99289 1109.6909 1126.116645 743.101223 0.000901152
12.00169 1060.8195 1083.590438 743.469938 0.000942667
12.01049 1015.5209 1044.783166 743.837912 0.000984716
12.01929 981.31543 1010.879106 744.205309 0.00101904
12.02810 953.22577 981.508905 744.572001 0.001049069
12.03690 932.95703 955.381521 744.938025 0.001071861
12.04570 916.073 931.16047 745.303378 0.001091616
12.05450 900.11206 908.183486 745.668059 0.001110973
12.06330 882.51538 886.55612 746.032062 0.001133125
12.07211 866.18927 866.71375 746.395387 0.001154482
12.08091 847.98163 849.036689 746.758071 0.001179271
12.08971 832.62909 833.729442 747.12003 0.001201015
12.09851 819.11102 820.824082 747.481302 0.001220836
12.10732 807.30865 810.240653 747.841886 0.001238684
12.11612 798.84631 801.807679 748.201779 0.001251805
12.12492 792.5069 795.282882 748.56098 0.001261819
12.13372 787.42004 790.377128 748.919486 0.00126997
12.14252 783.39355 786.774298 749.277337 0.001276498
12.15133 780.56799 784.156096 749.63441 0.001281118
12.16013 777.77905 782.214274 749.990866 0.001285712
12.16893 775.8161 780.671954 750.346581 0.001288965
12.17773 773.75867 779.308854 750.701555 0.001292393
12.18653 771.93512 777.991763 751.055909 0.001295446
12.19534 770.40503 776.683726 751.40952 0.001298019
12.20414 769.28094 775.413568 751.762468 0.001299915
12.21294 768.16632 774.23702 752.114633 0.001301801
12.22174 766.82056 773.207968 752.466175 0.001304086
12.23055 765.84442 772.37266 752.816973 0.001305748
12.23935 765.62329 771.767911 753.167027 0.001306125
12.24815 764.99573 771.423112 753.516458 0.001307197
12.25695 763.64471 771.36195 753.865146 0.001309509
12.26575 763.10553 771.600165 754.213131 0.001310435
12.27456 763.37573 772.144592 754.560414 0.001309971
12.28336 764.54248 772.988529 754.907034 0.001307972
12.29216 764.7525 774.107502 755.252876 0.001307613
12.30096 765.64606 775.453954 755.598057 0.001306087
12.30977 765.99146 776.949651 755.942578 0.001305498
12.31857 765.77002 778.478196 756.286363 0.001305875
12.32737 765.36719 779.879257 756.629453 0.001306562
12.33617 765.4743 780.959595 756.971847 0.00130638
12.34497 765.96173 781.536687 757.313588 0.001305548
12.35378 766.84137 781.514546 757.654561 0.001304051
12.36258 767.67603 780.935131 757.994882 0.001302633
12.37138 768.14624 779.955759 758.334556 0.001301835
12.38018 768.46289 778.775329 758.673468 0.001301299
12.38898 768.19604 777.572454 759.011774 0.001301751
12.39779 768.65747 776.48228 759.349361 0.00130097
12.40659 768.28131 775.596013 759.686271 0.001301607
12.41539 768.38422 774.967438 760.022506 0.001301432
12.42419 768.87378 774.618482 760.358069 0.001300604
12.43299 769.83801 774.545809 760.692963 0.001298975
12.44180 770.6911 774.724393 761.027191 0.001297537
12.45060 771.78461 775.113555 761.360794 0.001295698
12.45940 772.75006 775.659301 761.693699 0.001294079
12.46820 773.48914 776.298854 762.025948 0.001292843
12.47701 774.48822 776.965099 762.357545 0.001291175
12.48581 776.43884 777.600242 762.688492 0.001287931
12.49461 777.87274 778.178824 763.018795 0.001285557
12.50341 778.95905 778.728607 763.348456 0.001283765
12.51221 780.24243 779.332469 763.677517 0.001281653
12.52102 783.0556 780.108418 764.005871 0.001277049
12.52982 785.93695 781.188074 764.33367 0.001272367
12.53862 789.2854 782.697552 764.660807 0.001266969
12.54742 792.35382 784.748766 764.987287 0.001262062
12.55622 795.83997 787.426677 765.313225 0.001256534
12.56503 799.22565 790.772799 765.638516 0.001251211
12.57383 803.89331 794.774391 765.963237 0.001243946
12.58263 808.37054 799.340836 766.287283 0.001237056
12.59143 812.38727 804.297764 766.610806 0.00123094
12.60023 816.69489 809.355659 766.933701 0.001224447
12.60904 820.91119 814.107909 767.255973 0.001218159
12.61784 823.10242 818.04405 767.577738 0.001214916
12.62664 825.6604 820.644639 767.898891 0.001211152
12.63544 825.45477 821.57531 768.219474 0.001211453
12.64424 824.03656 820.856537 768.539492 0.001213538
12.65305 822.25555 818.864513 768.858987 0.001216167
12.66185 819.61871 816.158589 769.177857 0.00122008
12.67065 816.78363 813.277402 769.496216 0.001224314
12.67945 815.07678 810.629766 769.814069 0.001226878
12.68826 813.91412 808.472672 770.131351 0.001228631
12.69706 813.81903 806.909777 770.448103 0.001228774
12.70586 813.44263 805.912525 770.764333 0.001229343
12.71466 812.6214 805.327568 771.080081 0.001230585
12.72346 812.50537 804.910718 771.395247 0.001230761
12.73227 811.87787 804.383677 771.709944 0.001231712
12.74107 810.73334 803.528941 772.024179 0.001233451
12.74987 808.55237 802.271317 772.337852 0.001236778
12.75867 806.38812 800.680634 772.651111 0.001240098
12.76747 804.07391 798.910354 772.963857 0.001243667
12.77628 801.99359 797.122931 773.276131 0.001246893
12.78508 800.08472 795.451579 773.587941 0.001249868
12.79388 799.34845 793.990039 773.899293 0.001251019
12.80268 798.63068 792.797452 774.210231 0.001252143
12.81148 798.2439 791.903595 774.520653 0.00125275
12.82029 797.83258 791.314603 774.83071 0.001253396
12.82909 797.87146 791.020176 775.140303 0.001253335
12.83789 798.20117 791.000583 775.449473 0.001252817
12.84669 798.29865 791.234089 775.758228 0.001252664
12.85550 798.9245 791.704308 776.066576 0.001251683
12.86430 799.66638 792.406898 776.374523 0.001250521
12.87310 800.75439 793.355113 776.682077 0.001248822
12.88190 802.03143 794.585271 776.989281 0.001246834
12.89070 804.08258 796.158712 777.296037 0.001243653
12.89951 806.20331 798.166665 777.602492 0.001240382
12.90831 808.88953 800.72481 777.90855 0.001236263
12.91711 811.87622 803.972032 778.214252 0.001231715
12.92591 816.1864 808.056241 778.519607 0.00122521
12.93472 820.44189 813.117887 778.824621 0.001218855
12.94352 826.10663 819.270171 779.129339 0.001210497
12.95232 832.63989 826.563938 779.433662 0.001200999
12.96112 839.88135 834.976578 779.737738 0.001190644
12.96992 846.95905 844.36529 780.041471 0.001180695
12.97873 854.6377 854.460674 780.344868 0.001170086
12.98753 863.07391 864.836973 780.648041 0.001158649
12.99633 871.03955 874.887571 780.950895 0.001148053
13.00513 879.36029 883.870403 781.253471 0.00113719
13.01393 886.02551 891.02621 781.555778 0.001128636
13.02274 892.03412 895.856768 781.857858 0.001121033
13.03154 895.74738 898.399904 782.15965 0.001116386
13.04034 899.08771 899.299989 782.461162 0.001112239
13.04914 901.07971 899.578609 782.762506 0.00110978
13.05795 904.67993 900.299746 783.063587 0.001105363
13.06675 909.37708 902.334945 783.364446 0.001099654
13.07555 914.50842 906.269381 783.665091 0.001093484
13.08435 922.89404 912.382355 783.965566 0.001083548
13.09315 933.34955 920.648264 784.265776 0.00107141
13.10196 943.58282 930.744056 784.56583 0.00105979
13.11076 955.25616 942.066911 784.865738 0.00104684
13.11956 967.59271 953.840421 785.165404 0.001033493
13.12836 977.84454 965.375425 785.464974 0.001022657
13.13716 989.15594 976.3806 785.764353 0.001010963
13.14597 997.48212 987.170927 786.063617 0.001002524
13.15477 1005.0611 998.499883 786.362672 0.000994964
13.16357 1013.854 1011.221203 786.661629 0.000986335
13.17237 1024.1542 1025.884459 786.960495 0.000976415
13.18117 1035.5421 1042.547714 787.259177 0.000965678
13.18998 1053.7482 1060.673266 787.557817 0.000948993
13.19878 1072.7699 1079.114626 787.856323 0.000932166
13.20758 1094.5935 1096.349288 788.154737 0.000913581
13.21638 1117.0076 1110.933631 788.453065 0.000895249
13.22518 1136.2333 1122.209717 788.751317 0.000880101
13.23399 1152.4719 1130.66909 789.0495 0.0008677
13.24279 1163.3253 1137.696085 789.347622 0.000859605
13.25159 1171.2272 1144.83112 789.645724 0.000853805
13.26039 1174.642 1153.072454 789.943747 0.000851323
13.26920 1177.7679 1162.514979 790.241733 0.000849064
13.27800 1182.9692 1172.221947 790.539688 0.000845331
13.28680 1189.0447 1180.332456 790.837622 0.000841011
13.29560 1189.1039 1184.470314 791.135541 0.000840969
13.30440 1185.6329 1182.573386 791.433453 0.000843431
13.31321 1171.3315 1173.84639 791.7314 0.000853729
13.32201 1154.5907 1159.204565 792.029288 0.000866108
13.33081 1133.1685 1140.785459 792.327259 0.000882481
13.33961 1114.2856 1121.072154 792.62522 0.000897436
13.34841 1094.1904 1102.083784 792.923179 0.000913918
13.35722 1081.4453 1085.064861 793.221243 0.000924688
13.36602 1066.9368 1070.429394 793.519319 0.000937263
13.37482 1061.4966 1057.814318 793.817482 0.000942066
13.38362 1052.5428 1046.335708 794.115637 0.00095008
13.39243 1044.7427 1034.863135 794.413928 0.000957173
13.40123 1027.5425 1022.423803 794.712259 0.000973196
13.41003 1017.3744 1008.379379 795.010639 0.000982922
13.41883 992.02576 992.505708 795.309175 0.001008038
13.42763 970.85779 975.00953 795.607773 0.001030017
13.43644 943.78778 956.447816 795.906474 0.00105956
13.44524 922.67151 937.603512 796.205284 0.001083809
13.45404 900.79132 919.272468 796.504245 0.001110135
13.46284 885.70319 902.117747 796.803261 0.001129046
13.47164 870.74591 886.595184 797.102441 0.001148441
13.48045 860.83264 872.966503 797.401791 0.001161666
13.48925 850.80243 861.329586 797.701217 0.001175361
13.49805 844.48334 851.638356 798.00086 0.001184156
13.50685 838.4137 843.755161 798.300625 0.001192729
13.51566 833.51501 837.475708 798.600587 0.001199738
13.52446 829.52521 832.565155 798.900649 0.001205509
13.53326 826.29211 828.781473 799.20092 0.001210226
13.54206 823.80969 825.899094 799.501407 0.001213873
13.55086 821.91626 823.721139 799.802012 0.001216669
13.55967 821.5058 822.082877 800.102878 0.001217277
13.56847 820.14319 820.855839 800.403909 0.001219299
13.57727 819.1521 819.943029 800.705146 0.001220775
13.58607 818.34399 819.274642 801.006592 0.00122198
13.59487 818.32776 818.80348 801.308255 0.001222004
13.60368 818.04413 818.499624 801.61014 0.001222428
13.61248 818.72034 818.347136 801.912252 0.001221418
13.62128 819.26837 818.34161 802.214631 0.001220601
13.63008 819.47223 818.488735 802.517214 0.001220298
13.63889 819.30084 818.803839 802.820041 0.001220553
13.64769 819.60791 819.312042 803.123116 0.001220096
13.65649 821.50702 820.047599 803.426444 0.001217275
13.66529 823.60455 821.053486 803.730032 0.001214175
13.67409 824.66254 822.378996 804.033882 0.001212617
13.68290 826.81311 824.078495 804.338036 0.001209463
13.69170 828.84381 826.204987 804.642394 0.0012065
13.70050 830.1333 828.806529 804.947098 0.001204626
13.70930 831.9845 831.912626 805.25205 0.001201945
13.71810 834.45856 835.521507 805.557254 0.001198382
13.72691 837.10931 839.591402 805.862819 0.001194587
13.73571 840.02374 844.02109 806.168644 0.001190443
13.74451 843.18054 848.64774 806.474804 0.001185986
13.75331 847.48615 853.234926 806.781197 0.00117996
13.76211 852.03143 857.474843 807.087968 0.001173666
13.77092 856.28601 861.004346 807.395015 0.001167834
13.77972 860.97113 863.468895 807.702343 0.001161479
13.78852 862.9856 864.627076 808.010059 0.001158768
13.79732 863.86713 864.442304 808.318063 0.001157585
13.80612 863.03674 863.106285 808.626393 0.001158699
13.81493 860.21832 860.958119 808.935052 0.001162496
13.82373 858.01715 858.372627 809.244078 0.001165478
13.83253 857.33459 855.672686 809.55337 0.001166406
13.84133 856.4292 853.088251 809.863036 0.001167639
13.85014 858.7691 850.751102 810.17308 0.001164457
13.85894 865.71155 848.69569 810.483432 0.001155119
13.86774 872.52795 846.875801 810.794132 0.001146095
13.87654 872.07861 845.185518 811.105182 0.001146686
13.88534 861.75446 843.504534 811.416621 0.001160423
13.89415 850.06323 841.74434 811.728343 0.001176383
13.90295 842.61078 839.879194 812.040458 0.001186788
13.91175 838.87042 837.944042 812.352969 0.001192079
13.92055 836.46387 836.00808 812.66577 0.001195509
13.92935 834.45392 834.144783 812.979007 0.001198389
13.93816 832.08881 832.41824 813.292573 0.001201795
13.94696 830.55206 830.877851 813.606508 0.001204018
13.95576 829.97675 829.557868 813.920811 0.001204853
13.96456 828.95563 828.481028 814.235486 0.001206337
13.97337 827.78168 827.658548 814.550568 0.001208048
13.98217 827.09363 827.094061 814.865953 0.001209053
13.99097 827.16364 826.784193 815.181785 0.001208951
13.99977 827.836 826.721875 815.497957 0.001207969
14.00857 827.68933 826.898096 815.814507 0.001208183
14.01738 826.99585 827.302804 816.131435 0.001209196
14.02618 826.75049 827.925359 816.448742 0.001209555
14.03498 826.98962 828.753094 816.766429 0.001209205
14.04378 827.05029 829.770189 817.084497 0.001209116
14.05259 827.74341 830.954739 817.402982 0.001208104
14.06139 828.0332 832.276115 817.721776 0.001207681
14.07019 828.2998 833.693556 818.041025 0.001207292
14.07899 828.97949 835.152157 818.36062 0.001206302
14.08779 830.24359 836.582278 818.680596 0.001204466
14.09660 831.92749 837.899515 819.000956 0.001202028
14.10540 832.66022 839.011972 819.321697 0.00120097
14.11420 833.3399 839.835977 819.642857 0.001199991
14.12300 833.69824 840.319839 819.964325 0.001199475
14.13180 834.13623 840.463707 820.286248 0.001198845
14.14061 833.70038 840.319415 820.608515 0.001199472
14.14941 834.05981 839.973719 820.931125 0.001198955
14.15821 834.92352 839.524081 821.254188 0.001197714
14.16701 835.89581 839.062401 821.577593 0.001196321
14.17581 836.76587 838.669241 821.901375 0.001195077
14.18462 837.82904 838.412975 822.225534 0.001193561
14.19342 839.45343 838.355013 822.550105 0.001191251
14.20222 841.53143 838.552987 822.875014 0.00118831
14.21102 843.47009 839.067885 823.200258 0.001185578
14.21983 843.32056 839.969622 823.525948 0.001185789
14.22863 844.44244 841.342206 823.851971 0.001184213
14.23743 845.05347 843.291078 824.178361 0.001183357
14.24623 848.50952 845.943244 824.505119 0.001178537
14.25503 852.81787 849.449059 824.83224 0.001172583
14.26384 857.37189 853.973576 825.159725 0.001166355
14.27264 862.49982 859.684904 825.48757 0.001159421
14.28144 869.7724 866.740023 825.81581 0.001149726
14.29024 877.52051 875.250029 826.144332 0.001139575
14.29904 886.8559 885.273105 826.473283 0.001127579
14.30785 896.73389 896.760931 826.802548 0.001115158
14.31665 907.841 909.556571 827.132161 0.001101514
14.32545 919.33002 923.353828 827.462121 0.001087749
14.33425 931.64905 937.681178 827.792424 0.001073366
14.34305 945.32996 951.892126 828.123106 0.001057832
14.35186 957.7431 965.135607 828.45405 0.001044121
14.36066 967.09467 976.420637 828.785404 0.001034025
14.36946 972.88129 984.684965 829.117053 0.001027875
14.37826 975.63422 989.036164 829.44903 0.001024974
14.38706 972.84613 988.997075 829.781332 0.001027912
14.39587 967.86761 984.684495 830.113956 0.001033199
14.40467 960.93195 976.762813 830.446898 0.001040656
14.41347 952.05121 966.227695 830.780156 0.001050364
14.42227 941.65991 954.13992 831.113763 0.001061955
14.43108 931.84076 941.472503 831.447639 0.001073145
14.43988 920.58936 929.015047 831.781819 0.001086261
14.44868 910.64343 917.3856 832.116299 0.001098125
14.45748 902.42456 907.040655 832.451076 0.001108126
14.46628 896.01178 898.295055 832.786144 0.001116057
14.47509 890.13452 891.358148 833.1215 0.001123426
14.48389 885.82629 886.341355 833.457178 0.00112889
14.49269 883.59143 883.291037 833.793059 0.001131745
14.50149 882.61658 882.192154 834.129291 0.001132995
14.51029 883.03198 882.989016 834.465756 0.001132462
14.51910 883.95178 885.593087 834.802449 0.001131283
14.52790 886.65723 889.883356 835.13948 0.001127832
14.53670 891.60248 895.704443 835.47673 0.001121576
14.54550 897.39465 902.851913 835.814231 0.001114337
14.55430 904.05115 911.062043 836.151981 0.001106132
14.56311 911.60675 919.994784 836.489973 0.001096964
14.57191 919.93317 929.222022 836.82824 0.001087035
14.58071 928.43298 938.235882 837.166664 0.001077084
14.58951 937.25354 946.48468 837.505392 0.001066947
14.59832 946.07513 953.423281 837.844305 0.001056999
14.60712 954.46472 958.578752 838.183434 0.001047708
14.61592 959.91699 961.5882 838.522776 0.001041757
14.62472 963.04431 962.226856 838.862324 0.001038374
14.63352 961.66406 960.440824 839.202074 0.001039864
14.64233 958.12189 956.397858 839.54202 0.001043709
14.65113 950.98212 950.505387 839.882195 0.001051544
14.65993 941.90698 943.355404 840.222477 0.001061676
14.66873 931.83575 935.618113 840.563016 0.00107315
14.67754 924.8725 927.951964 840.90369 0.00108123
14.68634 920.20074 920.935274 841.244532 0.001086719
14.69514 916.25067 915.05304 841.585536 0.001091404
14.70394 913.03357 910.686536 841.926697 0.00109525
14.71274 913.06958 908.127792 842.268047 0.001095207
14.72155 915.5824 907.571246 842.609464 0.001092201
14.73035 918.95599 909.123872 842.951097 0.001088191
14.73915 922.9151 912.794984 843.292824 0.001083523
14.74795 927.13666 918.500263 843.634678 0.00107859
14.75675 931.57031 926.054702 843.976652 0.001073456
14.76556 937.33826 935.169067 844.318741 0.001066851
14.77436 945.02838 945.454612 844.660938 0.001058169
14.78316 953.59589 956.407459 845.003237 0.001048662
14.79196 963.33789 967.426015 845.345671 0.001038057
14.80077 972.70911 977.797719 845.688156 0.001028057
14.80957 980.8454 986.764089 846.030684 0.001019529
14.81837 988.21533 993.603749 846.373368 0.001011925
14.82717 994.54736 997.776748 846.716083 0.001005483
14.83597 998.14349 999.093256 847.058863 0.00100186
14.84478 997.27472 997.780151 847.4017 0.001002733
14.85358 992.48004 994.42278 847.744627 0.001007577
14.86238 987.18842 989.805048 848.087521 0.001012978
14.87118 982.24243 984.727932 848.430492 0.001018079
14.87998 976.11615 979.889649 848.773534 0.001024468
14.88879 971.85242 975.829822 849.116523 0.001028963
14.89759 969.47253 972.896445 849.459609 0.001031489
14.90639 967.45544 971.255589 849.802667 0.001033639
14.91519 967.65283 970.881404 850.14577 0.001033428
14.92399 969.4845 971.578531 850.488794 0.001031476
14.93280 971.22589 973.01199 850.831849 0.001029627
14.94160 972.86737 974.777567 851.174928 0.001027889
14.95040 974.59625 976.491163 851.517908 0.001026066
14.95920 974.27979 977.869282 851.860938 0.001026399
14.96800 973.30695 978.758764 852.203894 0.001027425
14.97681 972.35699 979.086922 852.546809 0.001028429
14.98561 970.08417 978.797388 852.889676 0.001030838
14.99441 967.85449 977.779722 853.232488 0.001033213
15.00321 965.15479 975.855694 853.575239 0.001036103
15.01201 960.6933 972.816663 853.917922 0.001040915
15.02082 957.23901 968.497919 854.260568 0.001044671
15.02962 953.68115 962.874554 854.603094 0.001048568
15.03842 948.83179 956.095579 854.945531 0.001053928
15.04722 944.15765 948.465411 855.287874 0.001059145
15.05603 939.21094 940.367753 855.630114 0.001064724
15.06483 934.61542 932.180672 855.972246 0.001069959
15.07363 928.96417 924.232683 856.314263 0.001076468
15.08243 925.711 916.77626 856.656197 0.001080251
15.09123 921.31506 909.992296 856.997924 0.001085405
15.10004 916.91113 903.991106 857.339594 0.001090618
15.10884 910.9494 898.828386 857.681083 0.001097756
15.11764 907.24103 894.511147 858.022384 0.001102243
15.12644 902.93817 891.005013 858.363608 0.001107496
15.13524 900.02527 888.247102 858.704631 0.00111108
15.14405 897.13708 886.159572 859.045525 0.001114657
15.15285 895.7818 884.653963 859.386165 0.001116343
15.16165 894.37732 883.648581 859.726702 0.001118096
15.17045 893.73236 883.078987 860.067012 0.001118903
15.17925 892.34192 882.90407 860.407088 0.001120647
15.18806 892.03387 883.106466 860.747041 0.001121034
15.19686 892.11511 883.688634 861.086747 0.001120932
15.20566 892.40106 884.665764 861.426238 0.001120572
15.21446 893.06317 886.059385 861.76551 0.001119742
15.22327 893.81927 887.890965 862.104593 0.001118794
15.23207 895.76569 890.175923 862.443365 0.001116363
15.24087 898.95245 892.921109 862.781937 0.001112406
15.24967 904.53986 896.118354 863.1203 0.001105534
15.25848 908.40002 899.7424 863.458373 0.001100837
15.26728 914.32379 903.747413 863.796188 0.001093704
15.27608 919.03046 908.06528 864.133738 0.001088103
15.28488 927.5484 912.602278 864.471055 0.001078111
15.29368 933.26556 917.238118 864.808019 0.001071506
15.30249 942.3288 921.839198 865.144738 0.001061201
15.31129 944.1156 926.272721 865.481206 0.001059192
15.32009 949.29108 930.437927 865.817302 0.001053418
15.32889 947.71252 934.297251 866.153174 0.001055172
15.33769 947.94922 937.876634 866.4887 0.001054909
15.34650 943.55804 941.25361 866.823914 0.001059818
15.35530 941.68329 944.508734 867.158809 0.001061928
15.36410 937.32062 947.693411 867.493379 0.001066871
15.37290 935.49841 950.797955 867.827657 0.001068949
15.38170 933.40674 953.738232 868.161523 0.001071344
15.39051 933.5387 956.368975 868.495123 0.001071193
15.39931 932.76703 958.490202 868.828338 0.001072079
15.40811 934.45282 959.903261 869.1612 0.001070145
15.41691 935.98907 960.465697 869.493704 0.001068389
15.42572 937.34283 960.163415 869.825844 0.001066846
15.43452 937.19659 959.146183 870.157614 0.001067012
15.44332 937.86908 957.714002 870.489011 0.001066247
15.45212 939.16888 956.263315 870.820065 0.001064771
15.46092 941.84662 955.221854 871.150659 0.001061744
15.46973 945.24622 954.973137 871.480938 0.001057925
15.47853 949.61011 955.897642 871.810784 0.001053064
15.48733 955.35767 958.243785 872.14023 0.001046728
15.49613 960.66943 962.185156 872.46927 0.001040941
15.50493 966.74323 967.790886 872.797901 0.001034401
15.51374 973.69989 975.016862 873.126153 0.00102701
15.52254 981.3045 983.691772 873.453911 0.001019052
15.53134 989.52344 993.518706 873.781318 0.001010587
15.54014 997.90546 1004.066959 874.108259 0.001002099
15.54894 1006.8984 1014.776243 874.434729 0.000993149
15.55775 1014.5498 1024.989493 874.760834 0.000985659
15.56655 1020.8468 1033.986227 875.086459 0.000979579
15.57535 1025.3627 1041.081451 875.411636 0.000975265
15.58415 1027.9185 1045.721039 875.736362 0.00097284
15.59296 1028.439 1047.560111 876.060668 0.000972347
15.60176 1025.6136 1046.488183 876.38444 0.000975026
15.61056 1020.0246 1042.599175 876.707784 0.000980369
15.61936 1013.033 1036.14133 877.030697 0.000987135
15.62816 1003.9528 1027.494681 877.353099 0.000996063
15.63697 993.88849 1017.131255 877.675025 0.001006149
15.64577 983.79382 1005.589497 877.99647 0.001016473
15.65457 975.0274 993.418749 878.317467 0.001025612
15.66337 966.05878 981.127848 878.637903 0.001035134
15.67217 959.36176 969.151494 878.957884 0.00104236
15.68098 955.32245 957.827217 879.277405 0.001046767
15.68978 953.96973 947.40474 879.596355 0.001048251
15.69858 958.35217 938.036407 879.914874 0.001043458
15.70738 967.58514 929.801387 880.232851 0.001033501
15.71618 974.21405 922.711755 880.550319 0.001026468
15.72499 970.19824 916.727241 880.867274 0.001030717
15.73379 954.2016 911.770182 881.183714 0.001047997
15.74259 934.96747 907.723963 881.49967 0.001069556
15.75139 919.85999 904.504244 881.815033 0.001087122
15.76020 910.97168 901.977495 882.129942 0.001097729
15.76900 905.15533 900.030541 882.444287 0.001104783
15.77780 902.27979 898.558822 882.758102 0.001108304
15.78660 899.89288 897.46994 883.071384 0.001111243
15.79540 898.65906 896.685026 883.384129 0.001112769
15.80421 897.66064 896.135373 883.696336 0.001114007
15.81301 897.50098 895.775882 884.008001 0.001114205
15.82181 897.48492 895.562159 884.319158 0.001114225
15.83061 897.19574 895.463205 884.629698 0.001114584
15.83942 896.80371 895.456298 884.93976 0.001115071
15.84822 896.50201 895.525531 885.249236 0.001115446
15.85702 896.99207 895.660535 885.55816 0.001114837
15.86582 897.10516 895.855536 885.866528 0.001114697
15.87462 896.94879 896.108731 886.174339 0.001114891
15.88343 897.11536 896.421819 886.481626 0.001114684
15.89223 898.29108 896.79962 886.788283 0.001113225
15.90103 899.46997 897.250418 887.094446 0.001111766
15.90983 900.49536 897.785341 887.40001 0.0011105
15.91863 901.18982 898.418878 887.704973 0.001109644
15.92744 902.35272 899.168886 888.009438 0.001108214
15.93624 903.21735 900.055997 888.313299 0.001107153
15.94504 905.31256 901.103815 888.616589 0.001104591
15.95384 907.7453 902.325061 888.919307 0.001101631
15.96265 909.70837 903.774547 889.221486 0.001099253
15.97145 911.70184 905.467278 889.523056 0.00109685
15.98025 914.10571 907.431959 889.824016 0.001093965
15.98905 916.21313 909.69609 890.124467 0.001091449
15.99785 919.13562 912.283012 890.424306 0.001087979
16.00665 921.76306 915.210616 890.723566 0.001084877
16.01546 925.64661 918.488808 891.022245 0.001080326
16.02426 929.26154 922.116918 891.320378 0.001076123
16.03306 933.37231 926.078172 891.617896 0.001071384
16.04186 937.58716 930.342988 891.914831 0.001066568
16.05066 942.42206 934.864882 892.21115 0.001061096
16.05947 947.13373 939.588869 892.506918 0.001055817
16.06827 952.74799 944.448 892.802136 0.001049595
16.07707 958.25256 949.388885 893.096736 0.001043566
16.08588 963.52301 954.342435 893.390785 0.001037858
16.09468 969.30988 959.236488 893.684215 0.001031662
16.10348 975.22137 963.984754 893.976993 0.001025408
16.11228 980.65155 968.488237 894.269285 0.00101973
16.12108 985.0816 972.635249 894.560957 0.001015144
16.12989 989.71533 976.32346 894.852077 0.001010392
16.13869 992.27881 979.476174 895.142577 0.001007781
16.14749 995.16858 982.055637 895.432525 0.001004855
16.15629 995.99396 984.066166 895.721853 0.001004022
16.16509 997.16949 985.542845 896.010531 0.001002839
16.17390 995.71564 986.543461 896.29872 0.001004303
16.18270 995.05182 987.138485 896.586292 0.001004973
16.19150 992.71832 987.407715 896.873311 0.001007335
16.20030 992.44031 987.439091 897.159713 0.001007617
16.20911 989.81671 987.312112 897.445562 0.001010288
16.21790 988.72064 987.086705 897.730731 0.001011408
16.22671 985.27295 986.783233 898.015381 0.001014947
16.23551 984.14514 986.37746 898.29948 0.00101611
16.24431 981.58868 985.806277 898.582964 0.001018757
16.25312 980.72449 984.981936 898.865899 0.001019654
16.26192 978.08459 983.822548 899.148221 0.001022406
16.27072 977.66406 982.280952 899.429994 0.001022846
16.27952 975.4856 980.374156 899.711092 0.00102513
16.28832 974.68933 978.191349 899.991675 0.001025968
16.29713 972.84802 975.889446 900.271712 0.00102791
16.30593 972.21729 973.66967 900.55114 0.001028577
16.31473 969.90546 971.750275 900.830024 0.001031028
16.32353 969.36792 970.346464 901.108301 0.0010316
16.33233 968.00494 969.655611 901.385972 0.001033053
16.34114 967.02509 969.84955 901.663101 0.001034099
16.34994 967.97986 971.068476 901.939658 0.001033079
16.35874 970.04291 973.411604 902.215676 0.001030882
16.36754 972.92639 976.928796 902.491093 0.001027827
16.37635 975.74902 981.609916 902.765971 0.001024854
16.38515 980.4209 987.378605 903.040252 0.00101997
16.39395 984.25848 994.085333 903.313934 0.001015993
16.40275 990.32898 1001.509061 903.587083 0.001009765
16.41155 996.91193 1009.355881 903.859668 0.001003098
16.42036 1004.6342 1017.258773 904.131721 0.000995387
16.42916 1012.1425 1024.789082 904.403182 0.000988003
16.43796 1020.5589 1031.4719 904.674114 0.000979855
16.44676 1026.7463 1036.820026 904.944395 0.00097395
16.45556 1032.2504 1040.395729 905.214211 0.000968757
16.46437 1036.2705 1041.871357 905.483441 0.000964999
16.47317 1037.1689 1041.104283 905.752116 0.000964163
16.48197 1034.8289 1038.160815 906.020268 0.000966343
16.49077 1029.4329 1033.296697 906.287839 0.000971409
16.49958 1022.4504 1026.896282 906.554889 0.000978043
16.50838 1013.4246 1019.402586 906.8213 0.000986753
16.51718 1003.5995 1011.248623 907.087254 0.000996413
16.52598 993.82758 1002.839509 907.352633 0.001006211
16.53478 986.36621 994.514371 907.617467 0.001013822
16.54359 979.22125 986.554745 907.881788 0.00102122
16.55239 973.26398 979.177973 908.145537 0.00102747
16.56119 968.15161 972.544079 908.408717 0.001032896
16.56999 964.67291 966.758644 908.671388 0.001036621
16.57879 960.73114 961.882558 908.933551 0.001040874
16.58760 957.74567 957.947117 909.19515 0.001044119
16.59640 955.01801 954.950692 909.456214 0.001047101
16.60520 953.6048 952.874787 909.716775 0.001048652
16.61400 951.9552 951.680515 909.976775 0.00105047
16.62280 951.53595 951.315284 910.236216 0.001050932
16.63161 951.73022 951.712075 910.495158 0.001050718
16.64041 952.53052 952.790959 910.753602 0.001049835
16.64921 953.52655 954.46352 911.011491 0.001048738
16.65801 954.81982 956.629024 911.268856 0.001047318
16.66681 956.41931 959.179438 911.525728 0.001045567
16.67562 958.62793 961.992873 911.78199 0.001043158
16.68442 962.02509 964.941529 912.03782 0.001039474
16.69322 966.00934 967.889123 912.293102 0.001035187
16.70202 969.71991 970.701466 912.547895 0.001031226
16.71082 973.11096 973.261005 912.802142 0.001027632
16.71963 976.70148 975.481299 913.055875 0.001023854
16.72843 979.84912 977.31934 913.309122 0.001020565
16.73723 982.38525 978.775003 913.56177 0.001017931
16.74603 984.19739 979.881325 913.813993 0.001016056
16.75483 985.05054 980.68324 914.065677 0.001015176
16.76364 984.77789 981.220432 914.31688 0.001015457
16.77244 983.97058 981.514409 914.567545 0.001016291
16.78124 983.29681 981.563741 914.817704 0.001016987
16.79004 982.68738 981.346754 915.067327 0.001017618
16.79885 981.98291 980.834284 915.316474 0.001018348
16.80765 981.73004 980.002333 915.565144 0.00101861
16.81645 980.39819 978.846593 915.813282 0.001019994
16.82525 979.48291 977.388663 916.060945 0.001020947
16.83405 978.60852 975.673248 916.308078 0.001021859
16.84286 977.7569 973.758938 916.554709 0.001022749
16.85166 975.93018 971.708763 916.800812 0.001024663
16.86046 974.41547 969.583217 917.046442 0.001026256
16.86926 972.73932 967.443709 917.2916 0.001028025
16.87806 970.8877 965.354939 917.536232 0.001029985
16.88687 968.61505 963.390062 917.780392 0.001032402
16.89567 966.88605 961.632189 918.024026 0.001034248
16.90447 964.89117 960.172713 918.267107 0.001036386
16.91327 963.41718 959.105071 918.509773 0.001037972
16.92207 963.21204 958.522129 918.751914 0.001038193
16.93088 963.18329 958.510598 918.993585 0.001038224
16.93968 963.26935 959.148599 919.234732 0.001038131
16.94848 965.01788 960.504005 919.475408 0.00103625
16.95728 967.005 962.632629 919.71556 0.001034121
16.96608 968.49164 965.575739 919.95516 0.001032533
16.97489 971.59344 969.361376 920.194345 0.001029237
16.98369 975.76758 973.997073 920.433004 0.001024834
16.99249 979.66547 979.470438 920.671193 0.001020757
17.00129 985.24939 985.74525 920.908856 0.001014971
17.01010 993.06567 992.758646 921.146047 0.001006983
17.01890 1000.9791 1000.415463 921.382659 0.000999022
17.02770 1009.4118 1008.594557 921.618824 0.000990676
17.03650 1018.8996 1017.135298 921.854515 0.000981451
17.04530 1029.2261 1025.849356 922.089678 0.000971604
17.05411 1039.1473 1034.529621 922.324366 0.000962327
17.06291 1049.8374 1042.96846 922.558524 0.000952528
17.07171 1059.9215 1050.98144 922.792178 0.000943466
17.08051 1067.7875 1058.431865 923.025301 0.000936516
17.08931 1074.7725 1065.238833 923.257944 0.000930429
17.09812 1081.6486 1071.369005 923.490105 0.000924515
17.10692 1085.332 1076.82065 923.721732 0.000921377
17.11572 1089.077 1081.603011 923.952875 0.000918209
17.12452 1091.9655 1085.725666 924.18348 0.00091578
17.13333 1093.1863 1089.204621 924.413545 0.000914757
17.14213 1093.0013 1092.086827 924.643123 0.000914912
17.15093 1093.6583 1094.471756 924.872183 0.000914362
17.15973 1092.2021 1096.531938 925.100751 0.000915581
17.16853 1092.2351 1098.506246 925.328773 0.000915554
17.17734 1091.3271 1100.671605 925.556298 0.000916316
17.18614 1091.8091 1103.299634 925.783273 0.000915911
17.19494 1092.4113 1106.615339 926.009696 0.000915406
17.20374 1098.538 1110.762408 926.235616 0.000910301
17.21254 1103.502 1115.791722 926.461004 0.000906206
17.22135 1113.3534 1121.642776 926.685884 0.000898187
17.23015 1122.5857 1128.147377 926.910203 0.000890801
17.23895 1138.0969 1135.031217 927.134007 0.00087866
17.24775 1151.8096 1141.920595 927.357194 0.000868199
17.25656 1168.451 1148.369452 927.579913 0.000855834
17.26536 1182.3983 1153.87399 927.802058 0.000845739
17.27416 1193.0619 1157.947478 928.023653 0.000838179
17.28296 1198.3701 1160.177229 928.244719 0.000834467
17.29177 1196.2037 1160.309375 928.465203 0.000835978
17.30057 1192.0071 1158.307539 928.685102 0.000838921
17.30937 1180.7937 1154.369899 928.904462 0.000846888
17.31817 1167.8246 1148.894733 929.123279 0.000856293
17.32697 1149.5878 1142.42354 929.341501 0.000869877
17.33578 1136.2631 1135.549341 929.559148 0.000880078
17.34458 1121.4154 1128.864326 929.77624 0.00089173
17.35338 1111.1256 1122.905444 929.992726 0.000899988
17.36218 1099.9644 1118.126994 930.2086 0.00090912
17.37098 1095.6405 1114.885317 930.423908 0.000912708
17.37979 1091.8489 1113.417547 930.638646 0.000915878
17.38859 1093.8445 1113.855393 930.85276 0.000914207
17.39739 1096.3043 1116.170184 931.06627 0.000912156
17.40619 1103.1511 1120.303211 931.279195 0.000906494
17.41499 1110.0608 1125.990243 931.491435 0.000900852
17.42380 1121.5615 1132.889319 931.70313 0.000891614
17.43260 1134.123 1140.557478 931.914178 0.000881739
17.44140 1148.4327 1148.467634 932.124622 0.000870752
17.45020 1160.4406 1156.049936 932.33441 0.000861742
17.45901 1172.4009 1162.730461 932.543559 0.000852951
17.46781 1183.8544 1168.000618 932.752089 0.000844698
17.47661 1193.5316 1171.47764 932.9599 0.00083785
17.48541 1198.7411 1172.957549 933.167127 0.000834208
17.49421 1203.6199 1172.418707 933.373672 0.000830827
17.50302 1203.5347 1169.998121 933.579574 0.000830886
17.51182 1197.7123 1165.932539 933.784782 0.000834925
17.52062 1186.6394 1160.499258 933.989313 0.000842716
17.52942 1174.7384 1153.966324 934.193139 0.000851253
17.53822 1161.5754 1146.554063 934.396298 0.0008609
17.54703 1148.6849 1138.432432 934.598786 0.000870561
17.55583 1135.7867 1129.712129 934.800549 0.000880447
17.56463 1123.3766 1120.461646 935.001628 0.000890173
17.57343 1109.3738 1110.727592 935.201969 0.000901409
17.58224 1095.5337 1100.563254 935.40159 0.000912797
17.59104 1082.3745 1090.051412 935.600462 0.000923895
17.59984 1069.3705 1079.306107 935.798622 0.00093513
17.60864 1057.2113 1068.483131 935.996064 0.000945885
17.61744 1045.4075 1057.756306 936.192735 0.000956565
17.62625 1034.6022 1047.29932 936.388652 0.000966555
17.63505 1023.8512 1037.270983 936.58383 0.000976704
17.64385 1013.8802 1027.808581 936.778172 0.00098631
17.65265 1004.7145 1019.011863 936.971805 0.000995308
17.66145 997.15967 1010.961472 937.164632 0.001002848
17.67026 989.73938 1003.706207 937.35669 0.001010367
17.67906 983.10944 997.273014 937.547928 0.001017181
17.68786 977.41876 991.664534 937.738361 0.001023103
17.69666 973.39984 986.864745 937.928001 0.001027327
17.70546 969.64758 982.840118 938.116755 0.001031303
17.71427 967.00415 979.538064 938.304745 0.001034122
17.72307 964.73059 976.896841 938.491876 0.001036559
17.73187 963.32629 974.841639 938.678184 0.00103807
17.74067 961.8822 973.291496 938.863617 0.001039628
17.74948 961.33124 972.160512 939.048189 0.001040224
17.75828 960.15216 971.363866 939.231872 0.001041502
17.76708 959.86945 970.819268 939.414697 0.001041808
17.77588 959.19763 970.451826 939.596658 0.001042538
17.78468 959.20557 970.195472 939.777703 0.001042529
17.79349 959.33759 969.993227 939.957866 0.001042386
17.80229 959.45245 969.798102 940.137098 0.001042261
17.81109 959.39758 969.573028 940.31541 0.001042321
17.81989 959.1441 969.292564 940.492774 0.001042596
17.82869 959.10718 968.944009 940.66922 0.001042636
17.83750 959.6864 968.529327 940.844741 0.001042007
17.84630 959.64197 968.064536 941.019288 0.001042055
17.85510 959.51398 967.577723 941.192891 0.001042194
17.86390 959.48224 967.105357 941.365501 0.001042229
17.87270 959.0509 966.688296 941.537112 0.001042698
17.88151 959.01563 966.368573 941.707751 0.001042736
17.89031 959.11395 966.1861 941.877392 0.001042629
17.89911 960.11316 966.178121 942.046044 0.001041544
17.90791 961.56537 966.37748 942.213659 0.001039971
17.91672 963.30511 966.812556 942.380266 0.001038093
17.92552 964.01892 967.506687 942.545819 0.001037324
17.93432 964.69672 968.47815 942.710309 0.001036595
17.94312 966.10791 969.741354 942.873764 0.001035081
17.95192 968.32062 971.30421 943.036155 0.001032716
17.96073 971.37787 973.172058 943.197492 0.001029465
17.96953 974.6037 975.343479 943.35773 0.001026058
17.97833 977.04169 977.813245 943.516894 0.001023498
17.98713 979.96979 980.569359 943.674904 0.00102044
17.99593 984.20203 983.597378 943.831858 0.001016052
18.00474 988.09808 986.876127 943.987675 0.001012045
18.01354 991.50769 990.381884 944.142364 0.001008565
18.02234 994.75049 994.091798 944.295932 0.001005277
18.03114 997.47113 997.98375 944.448336 0.001002535
18.03995 1000.6174 1002.041814 944.599601 0.000999383
18.04875 1003.8436 1006.249565 944.749649 0.000996171
18.05755 1008.5239 1010.593914 944.898573 0.000991548
18.06635 1012.0636 1015.050298 945.046295 0.00098808
18.07515 1016.1108 1019.580385 945.192823 0.000984145
18.08396 1019.4026 1024.127676 945.338165 0.000980967
18.09276 1024.0499 1028.609134 945.482278 0.000976515
18.10156 1026.7123 1032.919994 945.625153 0.000973983
18.11036 1030.9747 1036.926099 945.766814 0.000969956
18.11916 1033.5121 1040.500591 945.90725 0.000967575
18.12797 1037.2283 1043.48933 946.046421 0.000964108
18.13677 1038.1599 1045.757803 946.184333 0.000963243
18.14557 1039.6481 1047.201884 946.320994 0.000961864
18.15437 1038.8291 1047.759522 946.456361 0.000962622
18.16317 1038.8269 1047.422788 946.590428 0.000962624
18.17198 1035.5386 1046.232936 946.723216 0.000965681
18.18078 1033.2229 1044.274388 946.854714 0.000967845
18.18958 1029.599 1041.66115 946.984885 0.000971252
18.19838 1026.02 1038.524358 947.113735 0.00097464
18.20719 1021.4977 1035.001263 947.241268 0.000978955
18.21599 1018.9684 1031.230146 947.36742 0.000981385
18.22479 1015.5972 1027.341178 947.492266 0.000984642
18.23359 1012.9547 1023.462178 947.615742 0.000987211
18.24239 1009.7014 1019.71501 947.737854 0.000990392
18.25120 1007.0553 1016.216141 947.858605 0.000992994
18.26000 1004.9477 1013.077976 947.977961 0.000995077
18.26880 1003.5977 1010.399939 948.09594 0.000996415
18.27760 1001.9816 1008.28521 948.212482 0.000998022
18.28640 1000.9722 1006.808603 948.327656 0.000999029
18.29521 1000.4489 1006.03574 948.441403 0.000999551
18.30401 1000.2402 1006.014944 948.553728 0.00099976
18.31281 1000.8998 1006.778455 948.664634 0.000999101
18.32161 1002.5721 1008.339829 948.77409 0.000997434
18.33041 1004.1101 1010.695952 948.882089 0.000995907
18.33922 1006.9611 1013.823599 948.988646 0.000993087
18.34802 1011.8039 1017.677114 949.093754 0.000988334
18.35682 1017.5364 1022.18664 949.197383 0.000982766
18.36562 1024.4384 1027.255402 949.299536 0.000976145
18.37443 1031.4343 1032.762323 949.400218 0.000969524
18.38323 1038.8887 1038.553388 949.4994 0.000962567
18.39203 1046.3019 1044.452335 949.597074 0.000955747
18.40083 1054.8973 1050.257112 949.693257 0.00094796
18.40963 1063.9565 1055.742886 949.787941 0.000939888
18.41844 1074.5409 1060.671843 949.881098 0.00093063
18.42724 1083.6764 1064.804304 949.972733 0.000922785
18.43604 1091.4186 1067.919744 950.06285 0.000916239
18.44484 1096.4923 1069.834891 950.151402 0.000911999
18.45364 1098.6674 1070.434156 950.238444 0.000910194
18.46245 1096.8201 1069.68118 950.32393 0.000911727
18.47125 1092.7834 1067.626808 950.407874 0.000915094
18.48005 1084.7638 1064.398907 950.490252 0.00092186
18.48885 1076.5413 1060.183266 950.571067 0.000928901
18.49766 1066.7056 1055.196446 950.650324 0.000937466
18.50646 1056.2327 1049.673123 950.727983 0.000946761
18.51526 1045.7842 1043.836619 950.804091 0.00095622
18.52406 1037.2012 1037.901018 950.878609 0.000964133
18.53286 1029.7681 1032.057955 950.951549 0.000971092
18.54167 1022.9611 1026.474066 951.022891 0.000977554
18.55047 1016.3878 1021.28978 951.092639 0.000983876
18.55927 1012.0854 1016.615161 951.160782 0.000988059
18.56807 1008.7243 1012.533639 951.227331 0.000991351
18.57687 1006.2613 1009.098727 951.292282 0.000993778
18.58568 1004.0061 1006.348722 951.355618 0.00099601
18.59448 1002.6804 1004.288892 951.41735 0.000997327
18.60328 1001.9863 1002.908492 951.477461 0.000998018
18.61208 1002.8147 1002.181434 951.535955 0.000997193
18.62088 1003.7278 1002.068344 951.592824 0.000996286
18.62969 1004.6158 1002.52529 951.648078 0.000995405
18.63849 1005.4949 1003.50539 951.701715 0.000994535
18.64729 1008.0997 1004.965821 951.75372 0.000991965
18.65609 1012.2718 1006.872741 951.804105 0.000987877
18.66490 1017.0479 1009.204502 951.852856 0.000983238
18.67370 1021.6573 1011.95237 951.899973 0.000978802
18.68250 1025.9269 1015.11959 951.945465 0.000974728
18.69130 1030.3361 1018.71681 951.989327 0.000970557
18.70010 1035.1042 1022.755693 952.031562 0.000966086
18.70891 1040.0159 1027.244538 952.072162 0.000961524
18.71771 1046.801 1032.183665 952.111134 0.000955291
18.72651 1052.6487 1037.561554 952.148472 0.000949985
18.73531 1058.3409 1043.353015 952.184175 0.000944875
18.74411 1063.9285 1049.521783 952.218252 0.000939913
18.75292 1070.6356 1056.021629 952.250702 0.000934025
18.76172 1075.6622 1062.799163 952.281527 0.00092966
18.77052 1081.6124 1069.799076 952.310723 0.000924546
18.77932 1087.5924 1076.966553 952.338298 0.000919462
18.78812 1094.39 1084.242121 952.364243 0.000913751
18.79693 1100.577 1091.566225 952.388573 0.000908614
18.80573 1109.7623 1098.861395 952.41129 0.000901094
18.81453 1118.2491 1106.032796 952.432389 0.000894255
18.82333 1127.0414 1112.967081 952.451879 0.000887279
18.83214 1135.6609 1119.529646 952.469759 0.000880545
18.84094 1145.6672 1125.575827 952.486036 0.000872854
18.84974 1153.1436 1130.955929 952.500708 0.000867195
18.85854 1158.517 1135.540349 952.513786 0.000863172
18.86734 1162.1559 1139.229006 952.525275 0.00086047
18.87615 1163.5211 1141.967815 952.535174 0.00085946
18.88495 1163.3516 1143.762131 952.543492 0.000859585
18.89375 1161.5713 1144.664404 952.550231 0.000860903
18.90255 1157.188 1144.767853 952.555399 0.000864164
18.91135 1151.1866 1144.180251 952.559001 0.000868669
18.92016 1145.3168 1143.001833 952.561043 0.000873121
18.92896 1139.7222 1141.315609 952.561531 0.000877407
18.93776 1133.7535 1139.168753 952.560473 0.000882026
18.94656 1127.8274 1136.57896 952.557873 0.00088666
18.95537 1121.5291 1133.532477 952.553741 0.00089164
18.96417 1116.8115 1130.000617 952.548083 0.000895406
18.97297 1111.6505 1125.950143 952.540907 0.000899563
18.98177 1107.9921 1121.359175 952.532221 0.000902534
18.99057 1103.1544 1116.230856 952.522032 0.000906491
18.99938 1098.6633 1110.596878 952.51035 0.000910197
19.00818 1093.5209 1104.514206 952.497182 0.000914477
19.01698 1088.0431 1098.062799 952.482544 0.000919081
19.02578 1081.3427 1091.324843 952.466434 0.000924776
19.03458 1074.8639 1084.389948 952.44887 0.00093035
19.04339 1067.6622 1077.335712 952.429859 0.000936626
19.05219 1061.723 1070.228074 952.409409 0.000941865
19.06099 1055.4261 1063.124935 952.387535 0.000947485
19.06979 1049.4327 1056.070193 952.364243 0.000952896
19.07859 1043.8848 1049.108494 952.339554 0.00095796
19.08740 1038.3245 1042.274263 952.313465 0.00096309
19.09620 1032.7704 1035.611279 952.285996 0.000968269
19.10500 1027.2544 1029.160834 952.257158 0.000973469
19.11380 1020.8942 1022.96547 952.226958 0.000979533
19.12261 1015.8947 1017.069103 952.195417 0.000984354
19.13141 1010.7943 1011.510268 952.162546 0.000989321
19.14021 1005.8328 1006.321034 952.128351 0.000994201
19.14901 1000.2755 1001.526753 952.092846 0.000999725
19.15781 995.75238 997.146217 952.056051 0.001004266
19.16662 992.10596 993.187822 952.017976 0.001007957
19.17542 989.16498 989.653181 951.978631 0.001010954
19.18422 986.1875 986.537714 951.938038 0.001014006
19.19302 982.89008 983.830635 951.896213 0.001017408
19.20182 979.94818 981.515291 951.85316 0.001020462
19.21063 977.95972 979.571517 951.808894 0.001022537
19.21943 976.40204 977.976065 951.76344 0.001024168
19.22823 975.14703 976.701749 951.716809 0.001025486
19.23703 974.56012 975.719516 951.66901 0.001026104
19.24583 974.21088 974.998586 951.620082 0.001026472
19.25464 973.70685 974.506436 951.570007 0.001027003
19.26344 973.33221 974.210778 951.518824 0.001027398
19.27224 973.3252 974.07914 951.466538 0.001027406
19.28104 973.41205 974.080114 951.413177 0.001027314
19.28985 973.3407 974.184141 951.358752 0.001027389
19.29865 973.75061 974.364713 951.303275 0.001026957
19.30745 973.83264 974.599512 951.246788 0.00102687
19.31625 973.91724 974.872386 951.18927 0.001026781
19.32505 974.30566 975.174421 951.130764 0.001026372
19.33386 974.39093 975.505647 951.071276 0.001026282
19.34266 974.66309 975.875543 951.010838 0.001025996
19.35146 974.82446 976.303081 950.949459 0.001025826
19.36026 974.90448 976.815319 950.887167 0.001025742
19.36906 975.01923 977.446569 950.823966 0.001025621
19.37787 975.56537 978.235132 950.759874 0.001025047
19.38667 976.68451 979.221737 950.694925 0.001023872
19.39547 978.21539 980.447415 950.629123 0.00102227
19.40427 979.13794 981.951401 950.562502 0.001021307
19.41307 980.62476 983.76941 950.495091 0.001019758
19.42188 983.13611 985.933915 950.42687 0.001017153
19.43068 986.35406 988.469536 950.357889 0.001013835
19.43948 989.63489 991.394593 950.288154 0.001010474
19.44828 993.8468 994.717762 950.217699 0.001006191
19.45709 998.80469 998.439406 950.146529 0.001001197
19.46589 1003.8921 1002.546162 950.074679 0.000996123
19.47469 1009.2022 1007.015207 950.00218 0.000990882
19.48349 1015.3231 1011.813316 949.929011 0.000984908
19.49229 1022.42 1016.88986 949.855223 0.000978072
19.50110 1029.2876 1022.185324 949.780823 0.000971546
19.50990 1036.5714 1027.624126 949.705846 0.000964719
19.51870 1044.1796 1033.123334 949.630298 0.00095769
19.52750 1051.2106 1038.584135 949.554232 0.000951284
19.53630 1057.5544 1043.912155 949.477628 0.000945578
19.54511 1064.7675 1049.006654 949.400514 0.000939172
19.55391 1069.2157 1053.768798 949.322928 0.000935265
19.56271 1072.3671 1058.112451 949.244875 0.000932516
19.57151 1074.1394 1061.954494 949.166393 0.000930978
19.58032 1075.9501 1065.223127 949.087485 0.000929411
19.58912 1077.2385 1067.84646 949.008208 0.0009283
19.59792 1078.5167 1069.757936 948.928539 0.000927199
19.60672 1077.6479 1070.894483 948.848506 0.000927947
19.61552 1075.8793 1071.19873 948.768151 0.000929472
19.62433 1072.7814 1070.632845 948.687474 0.000932156
19.63313 1069.5681 1069.183857 948.606516 0.000934957
19.64193 1064.9456 1066.872165 948.525298 0.000939015
19.65073 1059.7281 1063.75427 948.443821 0.000943638
19.65953 1053.3652 1059.919794 948.362117 0.000949338
19.66834 1046.6149 1055.482631 948.280197 0.000955461
19.67714 1039.5814 1050.573683 948.198099 0.000961926
19.68594 1033.281 1045.322433 948.115826 0.000967791
19.69474 1027.304 1039.859138 948.033418 0.000973422
19.70354 1021.5358 1034.29929 947.950894 0.000978918
19.71235 1015.6162 1028.746234 947.868257 0.000984624
19.72115 1010.8583 1023.291481 947.785535 0.000989258
19.72995 1006.4816 1018.010393 947.70274 0.00099356
19.73875 1002.5361 1012.969827 947.61991 0.00099747
19.74756 998.97754 1008.21901 947.537047 0.001001024
19.75636 996.23157 1003.800458 947.454207 0.001003783
19.76516 993.07794 999.737003 947.371354 0.00100697
19.77396 990.60779 996.043172 947.288545 0.001009481
19.78276 988.84576 992.719878 947.205789 0.00101128
19.79157 986.79053 989.754023 947.123096 0.001013386
19.80037 984.46851 987.125243 947.040504 0.001015777
19.80917 982.31677 984.800942 946.958012 0.001018002
19.81797 981.37933 982.745312 946.875677 0.001018974
19.82678 980.71356 980.915243 946.793459 0.001019666
19.83558 980.04785 979.268454 946.711415 0.001020358
19.84438 978.95898 977.763805 946.629553 0.001021493
19.85318 977.03656 976.363367 946.54788 0.001023503
19.86198 975.85852 975.036998 946.466433 0.001024739
19.87079 975.87036 973.761247 946.385228 0.001024726
19.87959 974.75427 972.521434 946.304264 0.0010259
19.88839 972.94489 971.311456 946.223557 0.001027807
19.89719 971.15564 970.132523 946.14314 0.001029701
19.90599 970.18268 968.991704 946.063021 0.001030734
19.91480 969.16254 967.899938 945.983206 0.001031819
19.92360 967.40222 966.871814 945.903728 0.001033696
19.93240 966.07251 965.922662 945.824601 0.001035119
19.94120 964.93842 965.06839 945.745822 0.001036336
19.95001 964.49048 964.324891 945.667406 0.001036817
19.95881 964.73828 963.706927 945.589382 0.001036551
19.96761 964.45807 963.227963 945.511757 0.001036852
19.97641 963.51837 962.899059 945.434534 0.001037863
19.98521 963.02448 962.72955 945.35776 0.001038395
19.99402 963.43829 962.725614 945.281395 0.001037949
20.00282 964.02728 962.890297 945.205486 0.001037315
20.01162 964.33038 963.22396 945.130027 0.001036989
20.02042 965.24524 963.722607 945.055046 0.001036006
20.02922 965.79034 964.379522 944.980544 0.001035421
20.03803 966.48468 965.183575 944.906524 0.001034678
20.04683 967.05359 966.12007 944.833028 0.001034069
20.05563 967.74506 967.171387 944.760016 0.00103333
20.06443 968.86511 968.314805 944.687529 0.001032135
20.07324 970.07495 969.525818 944.61556 0.001030848
20.08204 971.28845 970.775398 944.544132 0.00102956
20.09084 972.62054 972.033688 944.473245 0.00102815
20.09964 974.62946 973.268647 944.402914 0.001026031
20.10844 975.73035 974.449089 944.333129 0.001024873
20.11725 976.05414 975.545867 944.263896 0.001024533
20.12605 977.07788 976.532238 944.195236 0.00102346
20.13485 978.255 977.387188 944.127138 0.001022228
20.14365 978.98944 978.093527 944.059624 0.001021461
20.15245 978.62305 978.639585 943.992688 0.001021844
20.16126 978.70502 979.017197 943.926342 0.001021758
20.17006 978.45947 979.221857 943.860574 0.001022015
20.17886 977.65527 979.252278 943.795386 0.001022855
20.18766 976.94891 979.110524 943.730795 0.001023595
20.19646 977.1922 978.804369 943.666788 0.00102334
20.20527 977.3421 978.346531 943.603381 0.001023183
20.21407 976.8244 977.756138 943.540581 0.001023725
20.22287 976.10608 977.057995 943.478353 0.001024479
20.23167 975.40485 976.282761 943.416723 0.001025215
20.24047 975.29462 975.463287 943.355678 0.001025331
20.24928 975.71655 974.634766 943.29523 0.001024888
20.25808 976.04779 973.830777 943.235362 0.00102454
20.26688 975.70917 973.084173 943.176087 0.001024896
20.27568 975.44513 972.424251 943.117407 0.001025173
20.28449 976.34949 971.877142 943.059286 0.001024223
20.29329 977.42676 971.466562 943.001747 0.001023095
20.30209 978.23041 971.212299 942.944771 0.001022254
20.31089 977.97363 971.130885 942.888368 0.001022522
20.31969 978.13635 971.239284 942.832518 0.001022352
20.32850 978.54175 971.548875 942.777242 0.001021929
20.33730 978.60187 972.070096 942.722501 0.001021866
20.34610 978.20215 972.811265 942.668296 0.001022284
20.35490 977.86304 973.778639 942.614631 0.001022638
20.36370 978.12213 974.977262 942.561487 0.001022367
20.37251 978.88977 976.410261 942.508868 0.001021565
20.38131 980.03644 978.080648 942.456755 0.00102037
20.39011 980.75983 979.989443 942.40516 0.001019618
20.39891 980.79053 982.13927 942.354048 0.001019586
20.40771 982.82684 984.531104 942.303413 0.001017473
20.41652 984.52869 987.166465 942.253258 0.001015714
20.42532 985.83563 990.046653 942.203561 0.001014368
20.43412 987.71613 993.171338 942.154324 0.001012437
20.44292 990.02209 996.540759 942.105535 0.001010078
20.45172 992.14783 1000.156158 942.057173 0.001007914
20.46053 994.31244 1004.016889 942.009232 0.00100572
20.46933 996.14612 1008.12481 941.961696 0.001003869
20.47813 998.89209 1012.480742 941.914564 0.001001109
20.48693 1001.3372 1017.087241 941.867813 0.000998665
20.49574 1003.8278 1021.946777 941.821443 0.000996187
20.50454 1007.2147 1027.053201 941.775441 0.000992837
20.51334 1010.3418 1032.400282 941.729786 0.000989764
20.52214 1014.1539 1037.966148 941.68447 0.000986044
20.53094 1018.7883 1043.721143 941.639475 0.000981558
20.53975 1022.9102 1049.613044 941.594802 0.000977603
20.54855 1027.7002 1055.581861 941.550427 0.000973046
20.55735 1033.1777 1061.539802 941.506358 0.000967888
20.56615 1039.8989 1067.396561 941.462554 0.000961632
20.57495 1047.671 1073.034953 941.419023 0.000954498
20.58376 1056.6543 1078.335438 941.375749 0.000946383
20.59256 1065.6875 1083.167145 941.332716 0.000938361
20.60136 1075.3734 1087.409177 941.289922 0.00092991
20.61016 1085.6073 1090.946551 941.247347 0.000921143
20.61896 1094.438 1093.690498 941.205001 0.000913711
20.62777 1099.5199 1095.57938 941.162845 0.000909488
20.63657 1104.0278 1096.584521 941.120888 0.000905774
20.64537 1106.6364 1096.710943 941.079117 0.000903639
20.65417 1109.0894 1095.986413 941.03752 0.000901641
20.66298 1109.5861 1094.477991 940.996097 0.000901237
20.67178 1109.3248 1092.248292 940.954843 0.000901449
20.68058 1107.5468 1089.371102 940.913741 0.000902896
20.68938 1104.9082 1085.919183 940.872786 0.000905053
20.69818 1101.0908 1081.965262 940.831984 0.00090819
20.70699 1098.483 1077.574199 940.791325 0.000910346
20.71579 1093.4049 1072.814587 940.750803 0.000914574
20.72459 1086.318 1067.747746 940.710425 0.000920541
20.73339 1076.1522 1062.444403 940.670191 0.000929237
20.74219 1066.5183 1056.968375 940.630092 0.00093763
20.75100 1056.9689 1051.387335 940.590132 0.000946102
20.75980 1047.2965 1045.768998 940.550321 0.000954839
20.76860 1039.1812 1040.169992 940.510662 0.000962296
20.77741 1032.4292 1034.64058 940.471155 0.000968589
20.78620 1025.9016 1029.226132 940.431826 0.000974752
20.79501 1020.6768 1023.954115 940.39266 0.000979742
20.80381 1015.7672 1018.85164 940.353684 0.000984478
20.81261 1010.6323 1013.93157 940.314904 0.00098948
20.82141 1006.103 1009.205986 940.276344 0.000993934
20.83022 1003.6153 1004.677337 940.238017 0.000996398
20.83902 1000.7391 1000.349352 940.199938 0.000999261
20.84782 997.96466 996.221606 940.162147 0.001002039
20.85662 995.9151 992.292771 940.124641 0.001004102
20.86542 993.24414 988.564828 940.087465 0.001006802
20.87423 990.73187 985.038804 940.050641 0.001009355
20.88303 988.59155 981.718872 940.014208 0.00101154
20.89183 986.21661 978.608933 939.978197 0.001013976
20.90063 983.29938 975.713917 939.94265 0.001016984
20.90943 981.31464 973.038799 939.907601 0.001019041
20.91824 979.7171 970.588008 939.873093 0.001020703
20.92704 978.021 968.367583 939.839182 0.001022473
20.93584 976.23999 966.380844 939.805912 0.001024338
20.94465 974.59918 964.6332 939.773345 0.001026063
20.95345 973.82922 963.128387 939.741536 0.001026874
20.96225 973.54395 961.871322 939.710549 0.001027175
20.97105 972.76392 960.859917 939.680446 0.001027999
20.97985 971.54968 960.113608 939.651296 0.001029283
20.98866 971.14832 959.631418 939.623182 0.001029709
20.99746 971.21252 959.42043 939.596177 0.001029641
21.00626 971.51917 959.487437 939.570371 0.001029316
21.01506 972.19708 959.840199 939.545855 0.001028598
21.02386 972.38696 960.486514 939.52271 0.001028397
21.03267 973.01184 961.433528 939.501047 0.001027737
21.04147 973.77838 962.688619 939.480965 0.001026928
21.05027 974.38007 964.256801 939.462579 0.001026294
21.05907 975.19904 966.142563 939.446003 0.001025432
21.06788 977.62732 968.347362 939.431358 0.001022885
21.07668 979.59784 970.868984 939.418777 0.001020827
21.08548 981.25427 973.703186 939.408388 0.001019104
21.09428 983.28076 976.839349 939.400335 0.001017004
21.10308 985.63879 980.262938 939.394766 0.00101457
21.11189 987.53882 983.953168 939.391837 0.001012618
21.12069 990.52777 987.882164 939.391709 0.001009563
21.12949 993.43939 992.020132 939.394552 0.001006604
21.13829 995.97858 996.326788 939.400543 0.001004038
21.14709 997.87421 1000.757547 939.409868 0.00100213
21.15590 1000.4634 1005.257483 939.42272 0.000999537
21.16470 1003.5904 1009.769956 939.439302 0.000996422
21.17350 1007.2306 1014.227492 939.459822 0.000992821
21.18230 1010.5134 1018.561969 939.484501 0.000989596
21.19110 1014.6638 1022.698687 939.513563 0.000985548
21.19991 1018.7677 1026.564487 939.547254 0.000981578
21.20871 1022.5832 1030.085941 939.585822 0.000977916
21.21751 1025.843 1033.194979 939.629517 0.000974808
21.22631 1028.4611 1035.832172 939.678617 0.000972327
21.23512 1030.9735 1037.949686 939.733389 0.000969957
21.24392 1033.4545 1039.514402 939.794121 0.000967628
21.25272 1034.1284 1040.510053 939.861128 0.000966998
21.26152 1034.1931 1040.937785 939.934715 0.000966937
21.27032 1033.2314 1040.814329 940.015217 0.000967837
21.27913 1031.4518 1040.171676 940.10295 0.000969507
21.28793 1028.9612 1039.052833 940.198284 0.000971854
21.29673 1026.4371 1037.511552 940.301559 0.000974244
21.30553 1023.4846 1035.606632 940.413147 0.000977054
21.31433 1020.3309 1033.400992 940.533462 0.000980074
21.32314 1016.7528 1030.95917 940.662893 0.000983523
21.33194 1013.4198 1028.343768 940.801874 0.000986758
21.34074 1010.9736 1025.613977 940.950803 0.000989146
21.34954 1009.4193 1022.821928 941.110162 0.000990669
21.35834 1008.119 1020.013706 941.280335 0.000991946
21.36715 1006.0269 1017.223456 941.461915 0.000994009
21.37595 1004.2597 1014.480448 941.655319 0.000995758
21.38475 1003.4952 1011.803465 941.861075 0.000996517
21.39355 1003.0801 1009.203494 942.079737 0.000996929
21.40236 1002.6559 1006.687915 942.311799 0.000997351
21.41116 1001.3694 1004.256155 942.557876 0.000998632
21.41996 999.91412 1001.906998 942.818434 0.001000086
21.42876 998.97461 999.63404 943.094249 0.001001026
21.43756 997.91541 997.430589 943.38582 0.001002089
21.44637 997.12158 995.290134 943.693817 0.001002887
21.45517 996.50604 993.205121 944.018935 0.001003506
21.46397 995.40961 991.170601 944.361781 0.001004612
21.47277 994.22919 989.181907 944.723049 0.001005804
21.48157 993.09894 987.236492 945.103544 0.001006949
21.49038 992.01123 985.333315 945.504017 0.001008053
21.49918 991.54425 983.47518 945.925144 0.001008528
21.50798 991.47974 981.665456 946.367761 0.001008593
21.51678 992.30383 979.909988 946.832737 0.001007756
21.52558 992.30969 978.218031 947.32069 0.00100775
21.53439 990.8855 976.597945 947.832818 0
21.54319 989.92108 0 0 0
21.55199 989.42322 0 0 0
21.56079 988.58258 0 0 0
21.56959 987.56024 0 0 0
21.57840 986.94293 0 0 0
21.58720 986.89111 0 0 0
21.59600 986.49823 0 0 0
21.60480 986.84729 0 0 0
21.61360 986.77997 0 0 0
21.62241 986.28784 0 0 0
21.63121 986.27069 0 0 0
21.64001 986.27313 0 0 0
21.64881 986.0589 0 0 0
21.65762 986.47797 0 0 0
21.66642 986.66797 0 0 0
21.67522 985.6825 0 0 0
21.68402 984.55927 0 0 0
21.69282 983.87402 0 0 0
21.70163 983.26819 0 0 0
21.71043 983.00214 0 0 0
21.71923 981.32239 0 0 0
21.72803 978.66907 0 0 0
21.73683 976.62518 0 0 0
21.74564 975.50073 0 0 0
21.75444 975.10529 0 0 0
21.76324 974.83075 0 0 0
21.77204 973.89954 0 0 0
21.78085 972.56116 0 0 0
21.78965 971.87561 0 0 0
21.79845 971.94464 0 0 0
21.80725 971.45667 0 0 0
21.81605 971.45233 0 0 0
21.82486 972.21075 0 0 0
21.83366 972.43677 0 0 0
loop_
_gsas_i100_meas
7.83
0.21
8.87
1.14
98.92
11.13
84.56
21.23
77.54
30.14
2.45
0.27
63.65
100.00
2.65
52.22
27.44
25.01
6.43
0.01
2.55
8.44
3.85
47.03
3.55
52.53
10.60
0.56
0.92
0.00
0.52
6.15
2.75
0.08
11.16
5.80
8.24
28.79
39.66
12.20
9.42
0.16
6.46
2.65
0.03
1.38
20.82
0.38
6.25
10.80
0.84
18.74
9.74
11.44
0.81
6.33
9.40
0.16
16.61
10.33
0.25
0.35
1.94
0.68
3.11
4.52
5.02
1.47
1.19
6.06
0.85
20.31
0.06
1.20
0.00
6.47
5.70
0.15
2.36
11.30
0.04
16.77
0.48
18.53
17.91
30.14
3.64
1.47
1.11
9.40
5.25
0.81
1.59
3.53
0.08
4.57
6.65
0.60
0.63
2.04
2.61
1.06
0.01
22.47
0.79
3.02
0.86
8.02
2.42
24.93
14.02
1.62
4.49
3.78
2.77
0.00
0.04
0.05
1.08
1.25
0.38
0.54
0.06
9.10
17.93
2.23
1.47
1.89
0.01
0.01
0.01
0.01
3.22
4.05
0.19
0.53
0.45
0.66
5.02
0.01
0.05
14.23
11.33
0.02
8.88
2.28
0.05
0.35
2.61
3.61
0.15
0.90
0.08
1.73
2.56
8.03
3.34
0.70
4.83
1.55
1.12
2.70
0.10
1.58
