#------------------------------------------------------------------------------
#$Date: 2020-08-11 05:06:41 +0300 (Tue, 11 Aug 2020) $
#$Revision: 255228 $
#$URL: file:///home/coder/svn-repositories/cod/cif/7/24/10/7241019.cif $
#------------------------------------------------------------------------------
#
# This file is available in the Crystallography Open Database (COD),
# http://www.crystallography.net/
#
# All data on this site have been placed in the public domain by the
# contributors.
#
data_7241019
loop_
_publ_author_name
'Guo, Runzhong'
'Dong, Hao'
'Li, Peiyuan'
'Sun, Yi'
'Wang, Haiying'
'Liu, Hui-Yan'
_publ_section_title
;
 A multifuctional Cd(II)-based metal&#x2212;organic framework with amide
 groups exhibiting luminescent sensing towards multiple substances
;
_journal_name_full               CrystEngComm
_journal_paper_doi               10.1039/D0CE01061H
_journal_year                    2020
_chemical_formula_sum            'C34 H14 Cd3 N2 O18'
_chemical_formula_weight         1075.67
_space_group_crystal_system      triclinic
_space_group_IT_number           2
_space_group_name_Hall           '-P 1'
_space_group_name_H-M_alt        'P -1'
_atom_sites_solution_hydrogens   geom
_audit_creation_method           SHELXL-2018/1
_audit_update_record
;
2020-07-17 deposited with the CCDC.	2020-08-10 downloaded from the CCDC.
;
_cell_angle_alpha                68.753(4)
_cell_angle_beta                 73.032(5)
_cell_angle_gamma                83.923(5)
_cell_formula_units_Z            1
_cell_length_a                   9.9510(11)
_cell_length_b                   10.3190(12)
_cell_length_c                   12.6140(13)
_cell_measurement_reflns_used    3634
_cell_measurement_temperature    296(2)
_cell_measurement_theta_max      26.33
_cell_measurement_theta_min      2.39
_cell_volume                     1154.7(2)
_computing_cell_refinement       'Bruker SMART'
_computing_data_collection       'Bruker SMART'
_computing_data_reduction        'Bruker SHELXTL'
_computing_molecular_graphics    'Bruker SHELXTL'
_computing_publication_material  'Bruker SHELXTL'
_computing_structure_refinement  'SHELXL-2018/1 (Sheldrick, 2018)'
_computing_structure_solution    'SHELXS-97 (Sheldrick, 1990)'
_diffrn_ambient_temperature      296(2)
_diffrn_measured_fraction_theta_full 0.983
_diffrn_measured_fraction_theta_max 0.983
_diffrn_measurement_device_type  'CCD area detector'
_diffrn_measurement_method       'phi and omega scans'
_diffrn_radiation_type           MoK\a
_diffrn_radiation_wavelength     0.71073
_diffrn_reflns_av_R_equivalents  0.0159
_diffrn_reflns_av_unetI/netI     0.0326
_diffrn_reflns_Laue_measured_fraction_full 0.983
_diffrn_reflns_Laue_measured_fraction_max 0.983
_diffrn_reflns_limit_h_max       8
_diffrn_reflns_limit_h_min       -11
_diffrn_reflns_limit_k_max       12
_diffrn_reflns_limit_k_min       -12
_diffrn_reflns_limit_l_max       10
_diffrn_reflns_limit_l_min       -14
_diffrn_reflns_number            5752
_diffrn_reflns_point_group_measured_fraction_full 0.983
_diffrn_reflns_point_group_measured_fraction_max 0.983
_diffrn_reflns_theta_full        25.017
_diffrn_reflns_theta_max         25.017
_diffrn_reflns_theta_min         2.118
_exptl_absorpt_coefficient_mu    1.435
_exptl_absorpt_correction_T_max  0.5908
_exptl_absorpt_correction_T_min  0.5646
_exptl_absorpt_correction_type   multi-scan
_exptl_absorpt_process_details   sadabs?
_exptl_crystal_colour            colorless
_exptl_crystal_density_diffrn    1.547
_exptl_crystal_description       block
_exptl_crystal_F_000             520
_exptl_crystal_size_max          0.450
_exptl_crystal_size_mid          0.440
_exptl_crystal_size_min          0.410
_refine_diff_density_max         1.591
_refine_diff_density_min         -2.125
_refine_diff_density_rms         0.211
_refine_ls_extinction_method     none
_refine_ls_goodness_of_fit_ref   1.221
_refine_ls_hydrogen_treatment    constr
_refine_ls_matrix_type           full
_refine_ls_number_parameters     259
_refine_ls_number_reflns         4004
_refine_ls_number_restraints     9
_refine_ls_restrained_S_all      1.221
_refine_ls_R_factor_all          0.0649
_refine_ls_R_factor_gt           0.0581
_refine_ls_shift/su_max          0.001
_refine_ls_shift/su_mean         0.000
_refine_ls_structure_factor_coef Fsqd
_refine_ls_weighting_details
'w=1/[\s^2^(Fo^2^)+(0.1124P)^2^+2.5900P] where P=(Fo^2^+2Fc^2^)/3'
_refine_ls_weighting_scheme      calc
_refine_ls_wR_factor_gt          0.1811
_refine_ls_wR_factor_ref         0.1888
_reflns_Friedel_coverage         0.000
_reflns_number_gt                3405
_reflns_number_total             4004
_reflns_threshold_expression     'I > 2\s(I)'
_cod_data_source_file            d0ce01061h2.cif
_cod_data_source_block           1_sq
_cod_database_code               7241019
_shelx_shelxl_version_number     2018/1
_shelx_space_group_comment
;
The symmetry employed for this shelxl refinement is uniquely defined
by the following loop, which should always be used as a source of
symmetry information in preference to the above space-group names.
They are only intended as comments.
;
_shelx_estimated_absorpt_t_min   0.565
_shelx_estimated_absorpt_t_max   0.591
_shelx_res_file
;
TITL 1 in P-1
    1_sq.res
    created by SHELXL-2018/1 at 11:02:46 on 31-Oct-2018
CELL  0.71073    9.9510   10.3190   12.6140    68.753    73.032    83.923
ZERR 1           0.0011    0.0012    0.0013     0.004     0.005     0.005
LATT 1
SFAC C  H  N  O  Cd
UNIT 34 14 2 18 3
L.S. 16 0   65
ACTA
BOND $H
FMAP 2
PLAN 20
conf
size 0.45 0.44 0.41
delu 0.002 0.001 n1 c16 c3 c6 o5 c3 c8
dfix 1.50 0.01 c3 c8
ABIN
TEMP    23
WGHT    0.112400    2.590000
FVAR       1.75999
CD1   5    0.500000    0.000000    0.000000    10.50000    0.02770    0.03713 =
         0.02769   -0.00806   -0.00612   -0.00503
CD2   5    0.525609    0.302134   -0.245281    11.00000    0.02700    0.03073 =
         0.03387   -0.00707   -0.00408   -0.00201
O2    4    0.797918    0.315896   -0.248564    11.00000    0.04880    0.06640 =
         0.05524   -0.00573   -0.02241   -0.00679
O4    4    1.323754    0.157683   -0.030104    11.00000    0.02849    0.11208 =
         0.09190   -0.07575   -0.03117    0.02172
C6    1    1.091019    0.184289   -0.047123    11.00000    0.02508    0.03389 =
         0.04605   -0.02173   -0.01191    0.00349
O3    4    1.293744    0.255707   -0.209158    11.00000    0.02938    0.07983 =
         0.06700   -0.03452    0.00140   -0.00921
C5    1    0.999309    0.223781   -0.118475    11.00000    0.02698    0.03289 =
         0.03636   -0.01337   -0.00160   -0.00730
AFIX  43
H5    2    1.034374    0.263656   -0.200104    11.00000   -1.20000
AFIX   0

O8    4    0.525890   -0.027471    0.821754    11.00000    0.05369    0.06281 =
         0.03995   -0.02264    0.00421   -0.01823
O7    4    0.499051   -0.477084    0.764814    11.00000    0.07130    0.03416 =
         0.05124   -0.01424    0.00655   -0.00742
O6    4    0.592289   -0.497173    0.593234    11.00000    0.08156    0.03686 =
         0.04644   -0.01657   -0.03227    0.00983
O1    4    0.628311    0.202878   -0.093621    11.00000    0.02792    0.04573 =
         0.05417   -0.01830   -0.01545   -0.00025
C15   1    0.669244    0.001442    0.513234    11.00000    0.06263    0.03535 =
         0.06590   -0.01703    0.00882   -0.00186
AFIX  43
H15   2    0.695337    0.094605    0.481092    11.00000   -1.20000
AFIX   0
C9    1    0.805062    0.145045    0.054397    11.00000    0.01961    0.02856 =
         0.04804   -0.00578    0.00161   -0.00998
AFIX  43
H9    2    0.709210    0.129307    0.088921    11.00000   -1.20000
AFIX   0
C1    1    0.756091    0.243288   -0.143026    11.00000    0.03574    0.02897 =
         0.03425   -0.00606   -0.00573   -0.00885
O5    4    0.920114    0.098703    0.316485    11.00000    0.07291    0.09704 =
         0.05283   -0.02570   -0.00673   -0.03397
O9    4    0.604316    0.158727    0.659837    11.00000    0.04988    0.04234 =
         0.07743   -0.03175   -0.00044   -0.00204
C4    1    0.855567    0.203628   -0.067754    11.00000    0.02313    0.02542 =
         0.04765   -0.01216   -0.00861   -0.00415
C14   1    0.607736   -0.057486    0.634244    11.00000    0.03558    0.03483 =
         0.04462   -0.01517    0.00766   -0.00582
C12   1    0.595771   -0.272485    0.605781    11.00000    0.04934    0.03496 =
         0.04183   -0.01689   -0.01730    0.00990
C13   1    0.570474   -0.195965    0.680101    11.00000    0.03309    0.03482 =
         0.03412   -0.00980    0.00184   -0.00233
AFIX  43
H13   2    0.528522   -0.237879    0.760599    11.00000   -1.20000
AFIX   0
C11   1    0.577961    0.029638    0.713187    11.00000    0.03302    0.04420 =
         0.05076   -0.02503    0.00075   -0.00902
C3    1    0.852073    0.061151    0.259564    11.00000    0.04132    0.06714 =
         0.05541   -0.02129   -0.01036   -0.00230
C8    1    0.896144    0.109781    0.125403    11.00000    0.03724    0.04566 =
         0.05317   -0.01712   -0.01497    0.01167
C7    1    1.039713    0.129860    0.073752    11.00000    0.02754    0.04931 =
         0.04247   -0.01481   -0.01267    0.01077
AFIX  43
H7    2    1.101126    0.106431    0.121053    11.00000   -1.20000
AFIX   0
C10   1    0.558978   -0.424422    0.657379    11.00000    0.04171    0.03728 =
         0.04767   -0.02233   -0.01976    0.00777
C17   1    0.657211   -0.213855    0.486729    11.00000    0.07711    0.03533 =
         0.03626   -0.01462   -0.00771    0.01105
AFIX  43
H17   2    0.674552   -0.267796    0.438952    11.00000   -1.20000
AFIX   0
C2    1    1.246448    0.200295   -0.098911    11.00000    0.03206    0.05247 =
         0.05335   -0.03626   -0.00087   -0.00438
N1    3    0.747219   -0.022713    0.308892    11.00000    0.06945    0.05453 =
         0.05556   -0.01288   -0.01784   -0.01457
AFIX  43
H1    2    0.708795   -0.047248    0.266210    11.00000   -1.20000
AFIX   0
C16   1    0.692890   -0.076758    0.438314    11.00000    0.06784    0.04090 =
         0.05587   -0.01375   -0.00145    0.01395
HKLF 4




REM  1 in P-1
REM R1 =  0.0581 for    3405 Fo > 4sig(Fo)  and  0.0649 for all    4004 data
REM    259 parameters refined using      9 restraints

END

WGHT      0.1223      3.9124

REM Highest difference peak  1.591,  deepest hole -2.125,  1-sigma level  0.211
Q1    1   0.5027  0.3314 -0.2959  11.00000  0.05    1.59
Q2    1   0.5299  0.2439 -0.2051  11.00000  0.05    1.58
Q3    1   0.4981  0.2819 -0.2839  11.00000  0.05    1.52
Q4    1   0.8089 -0.0013  0.2309  11.00000  0.05    1.51
Q5    1   0.5897  0.2996 -0.2636  11.00000  0.05    1.39
Q6    1   0.4763  0.0416  0.7546  11.00000  0.05    1.27
Q7    1   0.8453  0.0068  0.3373  11.00000  0.05    1.12
Q8    1   0.7656 -0.0636  0.4538  11.00000  0.05    0.89
Q9    1   1.2588  0.3213 -0.2594  11.00000  0.05    0.86
Q10   1   0.8887  0.3717 -0.2984  11.00000  0.05    0.86
Q11   1   0.6229  0.2012  0.5794  11.00000  0.05    0.79
Q12   1   1.0829  0.2336 -0.0830  11.00000  0.05    0.72
Q13   1   0.9555  0.1371  0.3792  11.00000  0.05    0.68
Q14   1   1.3136  0.2258 -0.0938  11.00000  0.05    0.66
Q15   1   0.7996  0.2710 -0.2250  11.00000  0.05    0.65
Q16   1   0.5609  0.0804  0.6412  11.00000  0.05    0.64
Q17   1   1.0642  0.1070  0.2897  11.00000  0.05    0.62
Q18   1   0.8637  0.0820  0.0992  11.00000  0.05    0.61
Q19   1   1.2307  0.2598 -0.1484  11.00000  0.05    0.60
Q20   1   0.7416  0.0141  0.5376  11.00000  0.05    0.59
;
_shelx_res_checksum              81574
_shelx_fab_file
;
    1    0    0     88.13      0.00
    2    0    0     26.20      0.00
    3    0    0     -0.49      0.00
    4    0    0     -0.68      0.00
    5    0    0      0.81      0.00
    6    0    0      0.47      0.00
    7    0    0     -0.16      0.00
    8    0    0     -0.19      0.00
    9    0    0      0.34      0.00
   10    0    0     -0.30      0.00
   11    0    0     -1.35      0.00
  -11    1    0      0.36      0.00
  -10    1    0     -0.14      0.00
   -9    1    0     -0.14      0.00
   -8    1    0      0.12      0.00
   -7    1    0      0.23      0.00
   -6    1    0      0.32      0.00
   -5    1    0      0.07      0.00
   -4    1    0     -0.51      0.00
   -3    1    0      1.89      0.00
   -2    1    0      0.37      0.00
   -1    1    0    -21.47      0.00
    0    1    0    -46.50      0.00
    1    1    0    -37.85      0.00
    2    1    0     -8.80      0.00
    3    1    0      3.01      0.00
    4    1    0     -0.22      0.00
    5    1    0     -1.36      0.00
    6    1    0     -0.26      0.00
    7    1    0      0.44      0.00
    8    1    0      0.49      0.00
    9    1    0     -0.61      0.00
   10    1    0     -0.81      0.00
   11    1    0      0.17      0.00
  -11    2    0      0.51      0.00
  -10    2    0      1.46      0.00
   -9    2    0      0.53      0.00
   -8    2    0     -0.40      0.00
   -7    2    0     -0.21      0.00
   -6    2    0      0.42      0.00
   -5    2    0      0.04      0.00
   -4    2    0     -0.67      0.00
   -3    2    0     -0.81      0.00
   -2    2    0     -1.81      0.00
   -1    2    0     -0.69      0.00
    0    2    0      4.97      0.00
    1    2    0      7.47      0.00
    2    2    0      3.99      0.00
    3    2    0      1.47      0.00
    4    2    0      0.57      0.00
    5    2    0     -0.82      0.00
    6    2    0     -0.57      0.00
    7    2    0      0.38      0.00
    8    2    0     -0.01      0.00
    9    2    0     -0.30      0.00
   10    2    0     -0.19      0.00
   11    2    0     -0.44      0.00
  -10    3    0     -0.53      0.00
   -9    3    0     -0.31      0.00
   -8    3    0      0.07      0.00
   -7    3    0      0.17      0.00
   -6    3    0      0.06      0.00
   -5    3    0     -0.16      0.00
   -4    3    0     -0.12      0.00
   -3    3    0     -0.77      0.00
   -2    3    0     -2.83      0.00
   -1    3    0     -4.62      0.00
    0    3    0     -4.18      0.00
    1    3    0     -1.82      0.00
    2    3    0      0.27      0.00
    3    3    0      0.67      0.00
    4    3    0      0.22      0.00
    5    3    0      0.12      0.00
    6    3    0      0.35      0.00
    7    3    0      0.18      0.00
    8    3    0     -0.40      0.00
    9    3    0     -0.45      0.00
   10    3    0      0.47      0.00
  -10    4    0     -0.05      0.00
   -9    4    0      0.19      0.00
   -8    4    0      0.39      0.00
   -7    4    0      0.28      0.00
   -6    4    0     -0.22      0.00
   -5    4    0     -0.25      0.00
   -4    4    0      0.03      0.00
   -3    4    0     -0.68      0.00
   -2    4    0     -2.15      0.00
   -1    4    0     -1.92      0.00
    0    4    0      0.30      0.00
    1    4    0      1.88      0.00
    2    4    0      1.45      0.00
    3    4    0     -0.05      0.00
    4    4    0     -0.75      0.00
    5    4    0      0.01      0.00
    6    4    0      0.31      0.00
    7    4    0     -0.34      0.00
    8    4    0     -0.19      0.00
    9    4    0      0.06      0.00
   10    4    0     -0.94      0.00
  -10    5    0     -1.33      0.00
   -9    5    0     -0.43      0.00
   -8    5    0      0.10      0.00
   -7    5    0     -0.15      0.00
   -6    5    0     -0.40      0.00
   -5    5    0     -0.21      0.00
   -4    5    0      0.13      0.00
   -3    5    0     -0.23      0.00
   -2    5    0     -0.98      0.00
   -1    5    0     -1.20      0.00
    0    5    0     -0.78      0.00
    1    5    0     -0.24      0.00
    2    5    0      0.03      0.00
    3    5    0      0.25      0.00
    4    5    0      0.40      0.00
    5    5    0     -0.07      0.00
    6    5    0     -0.46      0.00
    7    5    0      0.07      0.00
    8    5    0      0.14      0.00
    9    5    0     -0.69      0.00
   10    5    0     -0.92      0.00
   -9    6    0      0.63      0.00
   -8    6    0     -0.06      0.00
   -7    6    0     -0.27      0.00
   -6    6    0     -0.15      0.00
   -5    6    0      0.26      0.00
   -4    6    0      0.24      0.00
   -3    6    0     -0.65      0.00
   -2    6    0     -1.37      0.00
   -1    6    0     -1.07      0.00
    0    6    0     -0.37      0.00
    1    6    0     -0.13      0.00
    2    6    0     -0.44      0.00
    3    6    0     -0.97      0.00
    4    6    0     -1.21      0.00
    5    6    0     -0.97      0.00
    6    6    0     -0.46      0.00
    7    6    0     -0.33      0.00
    8    6    0     -0.59      0.00
    9    6    0     -0.47      0.00
   -8    7    0     -0.25      0.00
   -7    7    0     -0.21      0.00
   -6    7    0     -0.02      0.00
   -5    7    0      0.04      0.00
   -4    7    0     -0.38      0.00
   -3    7    0     -0.65      0.00
   -2    7    0     -0.10      0.00
   -1    7    0      0.86      0.00
    0    7    0      1.35      0.00
    1    7    0      1.24      0.00
    2    7    0      0.93      0.00
    3    7    0      0.53      0.00
    4    7    0     -0.16      0.00
    5    7    0     -0.53      0.00
    6    7    0     -0.34      0.00
    7    7    0     -0.26      0.00
    8    7    0      0.00      0.00
   -8    8    0     -0.94      0.00
   -7    8    0     -0.65      0.00
   -6    8    0      0.01      0.00
   -5    8    0      0.22      0.00
   -4    8    0     -0.08      0.00
   -3    8    0     -0.38      0.00
   -2    8    0     -0.22      0.00
   -1    8    0      0.11      0.00
    0    8    0      0.30      0.00
    1    8    0      0.39      0.00
    2    8    0      0.05      0.00
    3    8    0     -0.60      0.00
    4    8    0     -0.56      0.00
    5    8    0      0.00      0.00
    6    8    0      0.24      0.00
    7    8    0      0.49      0.00
    8    8    0      0.66      0.00
   -6    9    0      1.16      0.00
   -5    9    0      0.32      0.00
   -4    9    0     -0.21      0.00
   -3    9    0      0.21      0.00
   -2    9    0      0.77      0.00
   -1    9    0      0.62      0.00
    0    9    0      0.28      0.00
    1    9    0     -0.10      0.00
    2    9    0     -0.51      0.00
    3    9    0     -0.50      0.00
    4    9    0     -0.34      0.00
    5    9    0     -0.05      0.00
    6    9    0      0.73      0.00
   -5   10    0     -0.11      0.00
   -4   10    0      0.46      0.00
   -3   10    0      0.25      0.00
   -2   10    0     -0.04      0.00
   -1   10    0      0.32      0.00
    0   10    0      0.17      0.00
    1   10    0     -0.66      0.00
    2   10    0     -0.78      0.00
    3   10    0     -0.37      0.00
    4   10    0     -0.16      0.00
    5   10    0     -0.03      0.00
   -3   11    0      0.01      0.00
   -2   11    0      0.30      0.00
   -1   11    0     -0.82      0.00
    0   11    0     -1.28      0.00
    1   11    0     -0.49      0.00
    2   11    0     -0.15      0.00
    3   11    0     -0.46      0.00
   -1  -11    1     -0.08      0.00
    0  -11    1     -0.15      0.00
    1  -11    1     -0.82      0.00
   -4  -10    1      0.00      0.00
   -3  -10    1      1.09      0.00
   -2  -10    1      1.13      0.00
   -1  -10    1      0.82      0.00
    0  -10    1      0.78      0.00
    1  -10    1      0.65      0.00
    2  -10    1      0.32      0.00
    3  -10    1     -0.14      0.00
    4  -10    1     -0.02      0.00
    5  -10    1      0.28      0.00
   -6   -9    1      0.19      0.00
   -5   -9    1      0.50      0.00
   -4   -9    1      0.64      0.00
   -3   -9    1      0.14      0.00
   -2   -9    1      0.11      0.00
   -1   -9    1      0.53      0.00
    0   -9    1      0.53      0.00
    1   -9    1      0.27      0.00
    2   -9    1      0.02      0.00
    3   -9    1     -0.11      0.00
    4   -9    1     -0.24      0.00
    5   -9    1     -0.43      0.00
    6   -9    1     -0.18      0.00
   -7   -8    1     -0.65      0.00
   -6   -8    1     -0.42      0.00
   -5   -8    1     -0.07      0.00
   -4   -8    1     -0.11      0.00
   -3   -8    1      0.27      0.00
   -2   -8    1      0.34      0.00
   -1   -8    1     -0.40      0.00
    0   -8    1     -0.91      0.00
    1   -8    1     -0.73      0.00
    2   -8    1     -0.57      0.00
    3   -8    1     -0.58      0.00
    4   -8    1     -0.30      0.00
    5   -8    1      0.12      0.00
    6   -8    1      0.07      0.00
    7   -8    1     -0.50      0.00
   -8   -7    1      0.22      0.00
   -7   -7    1      0.38      0.00
   -6   -7    1      0.00      0.00
   -5   -7    1     -0.07      0.00
   -4   -7    1      0.46      0.00
   -3   -7    1      0.45      0.00
   -2   -7    1     -0.04      0.00
   -1   -7    1     -0.28      0.00
    0   -7    1     -0.39      0.00
    1   -7    1     -0.54      0.00
    2   -7    1     -0.33      0.00
    3   -7    1      0.34      0.00
    4   -7    1      0.67      0.00
    5   -7    1      0.16      0.00
    6   -7    1     -0.51      0.00
    7   -7    1     -0.34      0.00
    8   -7    1      0.19      0.00
   -9   -6    1     -0.11      0.00
   -8   -6    1     -0.04      0.00
   -7   -6    1     -0.05      0.00
   -6   -6    1     -0.20      0.00
   -5   -6    1     -0.04      0.00
   -4   -6    1      0.52      0.00
   -3   -6    1      0.87      0.00
   -2   -6    1      0.53      0.00
   -1   -6    1     -0.13      0.00
    0   -6    1     -0.60      0.00
    1   -6    1     -0.52      0.00
    2   -6    1      0.39      0.00
    3   -6    1      1.35      0.00
    4   -6    1      1.00      0.00
    5   -6    1     -0.03      0.00
    6   -6    1     -0.02      0.00
    7   -6    1      0.56      0.00
    8   -6    1      0.39      0.00
    9   -6    1     -0.13      0.00
   -9   -5    1      0.68      0.00
   -8   -5    1      0.71      0.00
   -7   -5    1      0.04      0.00
   -6   -5    1     -0.09      0.00
   -5   -5    1      0.41      0.00
   -4   -5    1      0.25      0.00
   -3   -5    1     -0.38      0.00
   -2   -5    1     -0.72      0.00
   -1   -5    1     -1.07      0.00
    0   -5    1     -0.94      0.00
    1   -5    1      0.15      0.00
    2   -5    1      1.06      0.00
    3   -5    1      0.63      0.00
    4   -5    1     -0.24      0.00
    5   -5    1     -0.22      0.00
    6   -5    1      0.08      0.00
    7   -5    1     -0.14      0.00
    8   -5    1     -0.33      0.00
    9   -5    1     -0.32      0.00
   10   -5    1     -0.27      0.00
  -10   -4    1      1.74      0.00
   -9   -4    1      0.52      0.00
   -8   -4    1     -0.42      0.00
   -7   -4    1     -0.50      0.00
   -6   -4    1     -0.16      0.00
   -5   -4    1     -0.06      0.00
   -4   -4    1      0.58      0.00
   -3   -4    1      1.47      0.00
   -2   -4    1      1.29      0.00
   -1   -4    1      1.01      0.00
    0   -4    1      1.43      0.00
    1   -4    1      1.77      0.00
    2   -4    1      1.56      0.00
    3   -4    1      0.76      0.00
    4   -4    1     -0.26      0.00
    5   -4    1     -0.54      0.00
    6   -4    1     -0.02      0.00
    7   -4    1      0.16      0.00
    8   -4    1     -0.28      0.00
    9   -4    1     -0.26      0.00
   10   -4    1      0.66      0.00
  -10   -3    1     -0.83      0.00
   -9   -3    1     -0.47      0.00
   -8   -3    1     -0.12      0.00
   -7   -3    1      0.19      0.00
   -6   -3    1      0.02      0.00
   -5   -3    1     -0.23      0.00
   -4   -3    1     -0.41      0.00
   -3   -3    1     -0.81      0.00
   -2   -3    1     -1.07      0.00
   -1   -3    1     -1.48      0.00
    0   -3    1     -1.57      0.00
    1   -3    1      0.07      0.00
    2   -3    1      1.81      0.00
    3   -3    1      1.12      0.00
    4   -3    1     -0.26      0.00
    5   -3    1     -0.08      0.00
    6   -3    1      0.37      0.00
    7   -3    1      0.16      0.00
    8   -3    1      0.21      0.00
    9   -3    1      0.53      0.00
   10   -3    1      0.19      0.00
   11   -3    1     -0.42      0.00
  -10   -2    1     -0.12      0.00
   -9   -2    1      0.53      0.00
   -8   -2    1      0.75      0.00
   -7   -2    1      0.25      0.00
   -6   -2    1     -0.34      0.00
   -5   -2    1      0.17      0.00
   -4   -2    1      1.22      0.00
   -3   -2    1      0.47      0.00
   -2   -2    1     -2.28      0.00
   -1   -2    1     -4.40      0.00
    0   -2    1     -3.29      0.00
    1   -2    1      0.17      0.00
    2   -2    1      1.80      0.00
    3   -2    1      0.52      0.00
    4   -2    1     -0.49      0.00
    5   -2    1     -0.46      0.00
    6   -2    1     -0.50      0.00
    7   -2    1     -0.29      0.00
    8   -2    1      0.10      0.00
    9   -2    1     -0.11      0.00
   10   -2    1     -0.40      0.00
   11   -2    1     -0.45      0.00
  -10   -1    1      0.33      0.00
   -9   -1    1      0.15      0.00
   -8   -1    1      0.03      0.00
   -7   -1    1     -0.46      0.00
   -6   -1    1      0.15      0.00
   -5   -1    1      0.28      0.00
   -4   -1    1     -2.24      0.00
   -3   -1    1     -4.36      0.00
   -2   -1    1     -3.97      0.00
   -1   -1    1     -0.08      0.00
    0   -1    1      7.45      0.00
    1   -1    1      9.12      0.00
    2   -1    1      0.32      0.00
    3   -1    1     -5.52      0.00
    4   -1    1     -2.20      0.00
    5   -1    1      0.81      0.00
    6   -1    1      0.07      0.00
    7   -1    1     -0.46      0.00
    8   -1    1     -0.04      0.00
    9   -1    1      0.27      0.00
   10   -1    1      0.00      0.00
   11   -1    1     -0.36      0.00
  -11    0    1     -0.28      0.00
  -10    0    1     -0.11      0.00
   -9    0    1      0.14      0.00
   -8    0    1      0.21      0.00
   -7    0    1      0.11      0.00
   -6    0    1     -0.70      0.00
   -5    0    1      0.08      0.00
   -4    0    1      2.44      0.00
   -3    0    1     -1.02      0.00
   -2    0    1     -8.70      0.00
   -1    0    1    -14.31      0.00
    3    0    1    -10.03      0.00
    4    0    1      2.05      0.00
    5    0    1      0.46      0.00
    6    0    1     -0.69      0.00
    7    0    1      0.09      0.00
    8    0    1      0.40      0.00
    9    0    1      0.16      0.00
   10    0    1     -0.10      0.00
   11    0    1      0.39      0.00
  -11    1    1     -0.48      0.00
  -10    1    1      0.29      0.00
   -9    1    1      0.32      0.00
   -8    1    1     -0.19      0.00
   -7    1    1     -0.14      0.00
   -6    1    1      0.32      0.00
   -5    1    1     -0.35      0.00
   -4    1    1     -0.56      0.00
   -3    1    1      4.48      0.00
   -2    1    1      4.59      0.00
   -1    1    1    -16.64      0.00
    2    1    1     -1.53      0.00
    3    1    1      4.24      0.00
    4    1    1      0.26      0.00
    5    1    1      0.48      0.00
    6    1    1      0.94      0.00
    7    1    1      0.19      0.00
    8    1    1     -0.30      0.00
    9    1    1     -0.48      0.00
   10    1    1      0.45      0.00
   11    1    1      1.38      0.00
  -10    2    1      0.00      0.00
   -9    2    1     -0.77      0.00
   -8    2    1     -0.06      0.00
   -7    2    1      0.29      0.00
   -6    2    1     -0.51      0.00
   -5    2    1     -0.88      0.00
   -4    2    1      0.22      0.00
   -3    2    1      1.29      0.00
   -2    2    1      3.95      0.00
   -1    2    1     15.81      0.00
    0    2    1     30.57      0.00
    1    2    1     26.65      0.00
    2    2    1      7.50      0.00
    3    2    1     -2.09      0.00
    4    2    1     -0.09      0.00
    5    2    1      1.38      0.00
    6    2    1      0.86      0.00
    7    2    1      0.08      0.00
    8    2    1     -0.47      0.00
    9    2    1      0.12      0.00
   10    2    1      0.53      0.00
   11    2    1     -0.08      0.00
  -10    3    1     -1.30      0.00
   -9    3    1     -0.17      0.00
   -8    3    1      0.18      0.00
   -7    3    1     -0.05      0.00
   -6    3    1      0.04      0.00
   -5    3    1      0.37      0.00
   -4    3    1      0.84      0.00
   -3    3    1      0.44      0.00
   -2    3    1     -0.33      0.00
   -1    3    1      0.63      0.00
    0    3    1      2.32      0.00
    1    3    1      3.12      0.00
    2    3    1      2.68      0.00
    3    3    1      0.49      0.00
    4    3    1     -0.96      0.00
    5    3    1     -0.06      0.00
    6    3    1      0.43      0.00
    7    3    1     -0.31      0.00
    8    3    1     -0.36      0.00
    9    3    1      0.26      0.00
   10    3    1      0.19      0.00
   11    3    1     -0.50      0.00
  -10    4    1      1.55      0.00
   -9    4    1      0.37      0.00
   -8    4    1     -0.52      0.00
   -7    4    1     -0.16      0.00
   -6    4    1      0.25      0.00
   -5    4    1      0.36      0.00
   -4    4    1      0.11      0.00
   -3    4    1      0.02      0.00
   -2    4    1      0.71      0.00
   -1    4    1      0.33      0.00
    0    4    1     -2.48      0.00
    1    4    1     -4.78      0.00
    2    4    1     -3.93      0.00
    3    4    1     -1.63      0.00
    4    4    1     -0.39      0.00
    5    4    1     -0.09      0.00
    6    4    1     -0.13      0.00
    7    4    1     -0.07      0.00
    8    4    1      0.56      0.00
    9    4    1      0.84      0.00
   10    4    1      0.69      0.00
  -10    5    1      0.92      0.00
   -9    5    1      0.77      0.00
   -8    5    1      0.32      0.00
   -7    5    1     -0.25      0.00
   -6    5    1      0.00      0.00
   -5    5    1      0.48      0.00
   -4    5    1      0.29      0.00
   -3    5    1      0.14      0.00
   -2    5    1      1.09      0.00
   -1    5    1      2.84      0.00
    0    5    1      3.65      0.00
    1    5    1      2.22      0.00
    2    5    1     -0.24      0.00
    3    5    1     -1.00      0.00
    4    5    1      0.01      0.00
    5    5    1      0.14      0.00
    6    5    1     -0.38      0.00
    7    5    1      0.09      0.00
    8    5    1      0.32      0.00
    9    5    1      0.17      0.00
   10    5    1      0.67      0.00
   -9    6    1     -0.18      0.00
   -8    6    1      0.04      0.00
   -7    6    1      0.45      0.00
   -6    6    1      0.38      0.00
   -5    6    1      0.03      0.00
   -4    6    1     -0.22      0.00
   -3    6    1     -0.20      0.00
   -2    6    1      0.33      0.00
   -1    6    1      0.51      0.00
    0    6    1     -0.34      0.00
    1    6    1     -0.83      0.00
    2    6    1      0.19      0.00
    3    6    1      1.09      0.00
    4    6    1      0.60      0.00
    5    6    1      0.20      0.00
    6    6    1      0.64      0.00
    7    6    1      0.56      0.00
    8    6    1      0.03      0.00
    9    6    1     -0.25      0.00
   10    6    1     -0.56      0.00
   -8    7    1      0.36      0.00
   -7    7    1      0.34      0.00
   -6    7    1      0.16      0.00
   -5    7    1     -0.23      0.00
   -4    7    1     -0.68      0.00
   -3    7    1     -0.34      0.00
   -2    7    1      0.40      0.00
   -1    7    1      0.59      0.00
    0    7    1      0.48      0.00
    1    7    1      0.33      0.00
    2    7    1     -0.36      0.00
    3    7    1     -0.91      0.00
    4    7    1     -0.38      0.00
    5    7    1      0.51      0.00
    6    7    1      0.64      0.00
    7    7    1      0.11      0.00
    8    7    1     -0.14      0.00
    9    7    1      0.16      0.00
   -8    8    1      0.31      0.00
   -7    8    1      0.22      0.00
   -6    8    1      0.05      0.00
   -5    8    1     -0.22      0.00
   -4    8    1     -0.06      0.00
   -3    8    1      0.27      0.00
   -2    8    1      0.30      0.00
   -1    8    1     -0.07      0.00
    0    8    1     -0.55      0.00
    1    8    1     -0.86      0.00
    2    8    1     -0.48      0.00
    3    8    1      0.43      0.00
    4    8    1      0.94      0.00
    5    8    1      0.72      0.00
    6    8    1      0.34      0.00
    7    8    1      0.51      0.00
    8    8    1      0.45      0.00
   -7    9    1     -0.02      0.00
   -6    9    1     -0.47      0.00
   -5    9    1     -0.21      0.00
   -4    9    1      0.28      0.00
   -3    9    1      0.69      0.00
   -2    9    1      0.47      0.00
   -1    9    1     -0.43      0.00
    0    9    1     -1.00      0.00
    1    9    1     -0.72      0.00
    2    9    1     -0.19      0.00
    3    9    1      0.00      0.00
    4    9    1      0.04      0.00
    5    9    1      0.03      0.00
    6    9    1     -0.51      0.00
    7    9    1     -1.66      0.00
   -5   10    1     -0.84      0.00
   -4   10    1     -0.08      0.00
   -3   10    1      0.30      0.00
   -2   10    1     -0.11      0.00
   -1   10    1     -0.16      0.00
    0   10    1      0.10      0.00
    1   10    1      0.25      0.00
    2   10    1      0.57      0.00
    3   10    1      0.76      0.00
    4   10    1      0.47      0.00
    5   10    1     -0.05      0.00
    6   10    1     -0.34      0.00
   -3   11    1     -0.19      0.00
   -2   11    1     -0.33      0.00
   -1   11    1     -0.43      0.00
    0   11    1     -0.29      0.00
    1   11    1      0.10      0.00
    2   11    1     -0.22      0.00
    3   11    1     -0.66      0.00
    4   11    1     -0.34      0.00
   -3  -10    2     -0.28      0.00
   -2  -10    2     -0.39      0.00
   -1  -10    2     -0.81      0.00
    0  -10    2     -0.90      0.00
    1  -10    2     -0.45      0.00
    2  -10    2     -0.01      0.00
    3  -10    2     -0.28      0.00
    4  -10    2      0.21      0.00
   -5   -9    2      0.56      0.00
   -4   -9    2      0.15      0.00
   -3   -9    2     -0.26      0.00
   -2   -9    2      0.04      0.00
   -1   -9    2      0.44      0.00
    0   -9    2      0.29      0.00
    1   -9    2      0.01      0.00
    2   -9    2     -0.37      0.00
    3   -9    2     -0.39      0.00
    4   -9    2     -0.11      0.00
    5   -9    2     -0.04      0.00
    6   -9    2      0.68      0.00
   -6   -8    2     -1.18      0.00
   -5   -8    2     -0.50      0.00
   -4   -8    2     -0.25      0.00
   -3   -8    2      0.16      0.00
   -2   -8    2      0.35      0.00
   -1   -8    2      0.04      0.00
    0   -8    2     -0.14      0.00
    1   -8    2     -0.24      0.00
    2   -8    2     -0.04      0.00
    3   -8    2      0.54      0.00
    4   -8    2      0.70      0.00
    5   -8    2      0.36      0.00
    6   -8    2     -0.15      0.00
    7   -8    2     -0.57      0.00
   -7   -7    2     -0.07      0.00
   -6   -7    2      0.44      0.00
   -5   -7    2      0.12      0.00
   -4   -7    2     -0.08      0.00
   -3   -7    2     -0.75      0.00
   -2   -7    2     -1.29      0.00
   -1   -7    2     -0.75      0.00
    0   -7    2      0.00      0.00
    1   -7    2      0.35      0.00
    2   -7    2      0.40      0.00
    3   -7    2      0.16      0.00
    4   -7    2     -0.19      0.00
    5   -7    2     -0.31      0.00
    6   -7    2     -0.13      0.00
    7   -7    2      0.32      0.00
    8   -7    2      0.73      0.00
   -8   -6    2      0.27      0.00
   -7   -6    2      0.02      0.00
   -6   -6    2      0.43      0.00
   -5   -6    2      1.12      0.00
   -4   -6    2      0.80      0.00
   -3   -6    2      0.16      0.00
   -2   -6    2      0.01      0.00
   -1   -6    2      0.31      0.00
    0   -6    2      1.10      0.00
    1   -6    2      1.63      0.00
    2   -6    2      1.14      0.00
    3   -6    2      0.12      0.00
    4   -6    2     -0.50      0.00
    5   -6    2     -0.23      0.00
    6   -6    2      0.50      0.00
    7   -6    2      0.68      0.00
    8   -6    2      0.18      0.00
    9   -6    2      0.17      0.00
   -9   -5    2     -0.78      0.00
   -8   -5    2     -0.40      0.00
   -7   -5    2      0.08      0.00
   -6   -5    2      0.45      0.00
   -5   -5    2      0.19      0.00
   -4   -5    2     -0.27      0.00
   -3   -5    2     -0.32      0.00
   -2   -5    2     -0.02      0.00
   -1   -5    2      0.15      0.00
    0   -5    2     -0.02      0.00
    1   -5    2     -0.05      0.00
    2   -5    2      0.17      0.00
    3   -5    2      0.13      0.00
    4   -5    2      0.00      0.00
    5   -5    2      0.30      0.00
    6   -5    2      0.33      0.00
    7   -5    2     -0.33      0.00
    8   -5    2     -0.53      0.00
    9   -5    2     -0.04      0.00
   10   -5    2      0.48      0.00
   -9   -4    2      0.34      0.00
   -8   -4    2      0.24      0.00
   -7   -4    2      0.35      0.00
   -6   -4    2      0.50      0.00
   -5   -4    2      0.55      0.00
   -4   -4    2      0.23      0.00
   -3   -4    2     -0.58      0.00
   -2   -4    2     -1.21      0.00
   -1   -4    2     -0.62      0.00
    0   -4    2      0.48      0.00
    1   -4    2      0.64      0.00
    2   -4    2     -0.21      0.00
    3   -4    2     -0.85      0.00
    4   -4    2     -0.25      0.00
    5   -4    2      0.46      0.00
    6   -4    2      0.03      0.00
    7   -4    2     -0.44      0.00
    8   -4    2     -0.30      0.00
    9   -4    2     -0.32      0.00
   10   -4    2     -0.73      0.00
  -10   -3    2     -0.66      0.00
   -9   -3    2     -0.04      0.00
   -8   -3    2      0.33      0.00
   -7   -3    2      0.30      0.00
   -6   -3    2      0.07      0.00
   -5   -3    2     -0.12      0.00
   -4   -3    2     -0.07      0.00
   -3   -3    2      0.17      0.00
   -2   -3    2      0.93      0.00
   -1   -3    2      1.71      0.00
    0   -3    2      1.89      0.00
    1   -3    2      1.50      0.00
    2   -3    2      0.60      0.00
    3   -3    2      0.23      0.00
    4   -3    2      0.78      0.00
    5   -3    2      0.91      0.00
    6   -3    2      0.22      0.00
    7   -3    2     -0.33      0.00
    8   -3    2     -0.22      0.00
    9   -3    2      0.05      0.00
   10   -3    2      0.03      0.00
   11   -3    2      0.01      0.00
  -10   -2    2      0.92      0.00
   -9   -2    2      0.05      0.00
   -8   -2    2     -0.45      0.00
   -7   -2    2     -0.32      0.00
   -6   -2    2     -0.06      0.00
   -5   -2    2      0.12      0.00
   -4   -2    2     -0.12      0.00
   -3   -2    2     -0.51      0.00
   -2   -2    2     -0.55      0.00
   -1   -2    2      0.36      0.00
    0   -2    2      1.98      0.00
    1   -2    2      2.20      0.00
    2   -2    2      0.70      0.00
    3   -2    2      0.14      0.00
    4   -2    2      0.86      0.00
    5   -2    2      0.57      0.00
    6   -2    2     -0.23      0.00
    7   -2    2      0.06      0.00
    8   -2    2      0.46      0.00
    9   -2    2      0.06      0.00
   10   -2    2     -0.33      0.00
   11   -2    2     -0.29      0.00
  -10   -1    2     -0.17      0.00
   -9   -1    2     -0.02      0.00
   -8   -1    2     -0.14      0.00
   -7   -1    2     -0.51      0.00
   -6   -1    2     -0.22      0.00
   -5   -1    2      0.28      0.00
   -4   -1    2      0.71      0.00
   -3   -1    2      2.33      0.00
   -2   -1    2      5.06      0.00
   -1   -1    2      7.07      0.00
    0   -1    2      6.41      0.00
    1   -1    2      3.45      0.00
    2   -1    2      2.38      0.00
    3   -1    2      4.07      0.00
    4   -1    2      3.21      0.00
    5   -1    2      0.06      0.00
    6   -1    2     -0.40      0.00
    7   -1    2      0.71      0.00
    8   -1    2      0.25      0.00
    9   -1    2     -0.60      0.00
   10   -1    2     -0.29      0.00
   11   -1    2      0.52      0.00
  -10    0    2      0.16      0.00
   -9    0    2      0.30      0.00
   -8    0    2     -0.27      0.00
   -7    0    2     -0.20      0.00
   -6    0    2      0.00      0.00
   -5    0    2     -0.54      0.00
   -4    0    2     -0.97      0.00
   -3    0    2     -0.42      0.00
   -2    0    2      3.21      0.00
   -1    0    2      9.08      0.00
    0    0    2     11.52      0.00
    1    0    2     11.93      0.00
    2    0    2     13.50      0.00
    3    0    2      9.61      0.00
    4    0    2      1.17      0.00
    5    0    2     -1.52      0.00
    6    0    2      0.38      0.00
    7    0    2      0.38      0.00
    8    0    2     -0.32      0.00
    9    0    2     -0.02      0.00
   10    0    2     -0.01      0.00
   11    0    2     -0.47      0.00
  -10    1    2     -0.16      0.00
   -9    1    2     -0.04      0.00
   -8    1    2      0.10      0.00
   -7    1    2      0.01      0.00
   -6    1    2      0.17      0.00
   -5    1    2      0.52      0.00
   -4    1    2     -0.59      0.00
   -3    1    2     -2.68      0.00
   -2    1    2     -5.12      0.00
   -1    1    2     -6.67      0.00
    0    1    2      0.92      0.00
    1    1    2     15.24      0.00
    2    1    2     16.80      0.00
    3    1    2      5.22      0.00
    4    1    2     -0.98      0.00
    5    1    2     -0.35      0.00
    6    1    2     -0.67      0.00
    7    1    2     -0.91      0.00
    8    1    2     -0.28      0.00
    9    1    2     -0.05      0.00
   10    1    2      0.09      0.00
   11    1    2     -0.40      0.00
  -10    2    2      0.12      0.00
   -9    2    2     -0.56      0.00
   -8    2    2     -0.25      0.00
   -7    2    2     -0.03      0.00
   -6    2    2     -0.18      0.00
   -5    2    2      0.00      0.00
   -4    2    2      0.69      0.00
   -3    2    2     -0.23      0.00
   -2    2    2     -3.10      0.00
   -1    2    2     -1.79      0.00
    0    2    2      2.84      0.00
    1    2    2      0.83      0.00
    2    2    2     -3.86      0.00
    3    2    2     -1.45      0.00
    4    2    2      1.60      0.00
    5    2    2      0.02      0.00
    6    2    2     -0.92      0.00
    7    2    2     -0.29      0.00
    8    2    2      0.00      0.00
    9    2    2      0.27      0.00
   10    2    2      0.26      0.00
   11    2    2      0.44      0.00
  -10    3    2     -0.41      0.00
   -9    3    2      0.53      0.00
   -8    3    2      0.24      0.00
   -7    3    2     -0.12      0.00
   -6    3    2      0.05      0.00
   -5    3    2      0.29      0.00
   -4    3    2      0.43      0.00
   -3    3    2     -0.07      0.00
   -2    3    2     -0.64      0.00
   -1    3    2     -1.77      0.00
    0    3    2     -5.40      0.00
    1    3    2     -7.92      0.00
    2    3    2     -5.28      0.00
    3    3    2     -1.91      0.00
    4    3    2     -0.93      0.00
    5    3    2     -0.61      0.00
    6    3    2     -0.76      0.00
    7    3    2     -0.57      0.00
    8    3    2      0.45      0.00
    9    3    2      0.48      0.00
   10    3    2     -0.70      0.00
   11    3    2     -1.60      0.00
  -10    4    2     -0.06      0.00
   -9    4    2     -0.45      0.00
   -8    4    2     -0.20      0.00
   -7    4    2      0.07      0.00
   -6    4    2     -0.17      0.00
   -5    4    2     -0.22      0.00
   -4    4    2     -0.22      0.00
   -3    4    2     -0.19      0.00
   -2    4    2     -0.13      0.00
   -1    4    2     -1.87      0.00
    0    4    2     -4.93      0.00
    1    4    2     -5.20      0.00
    2    4    2     -2.25      0.00
    3    4    2      0.34      0.00
    4    4    2      0.69      0.00
    5    4    2     -0.09      0.00
    6    4    2     -0.19      0.00
    7    4    2      0.21      0.00
    8    4    2     -0.02      0.00
    9    4    2     -0.75      0.00
   10    4    2     -0.74      0.00
   11    4    2      0.36      0.00
   -9    5    2     -1.38      0.00
   -8    5    2     -0.21      0.00
   -7    5    2      0.10      0.00
   -6    5    2     -0.10      0.00
   -5    5    2     -0.41      0.00
   -4    5    2     -0.69      0.00
   -3    5    2     -0.15      0.00
   -2    5    2      1.13      0.00
   -1    5    2      2.24      0.00
    0    5    2      2.97      0.00
    1    5    2      2.77      0.00
    2    5    2      1.43      0.00
    3    5    2      0.44      0.00
    4    5    2      0.55      0.00
    5    5    2      0.53      0.00
    6    5    2      0.10      0.00
    7    5    2      0.22      0.00
    8    5    2      0.21      0.00
    9    5    2     -0.12      0.00
   10    5    2     -0.17      0.00
   -9    6    2      0.33      0.00
   -8    6    2      0.03      0.00
   -7    6    2      0.18      0.00
   -6    6    2      0.35      0.00
   -5    6    2      0.16      0.00
   -4    6    2      0.26      0.00
   -3    6    2      0.28      0.00
   -2    6    2     -0.62      0.00
   -1    6    2     -1.77      0.00
    0    6    2     -1.83      0.00
    1    6    2     -0.43      0.00
    2    6    2      1.21      0.00
    3    6    2      1.42      0.00
    4    6    2      0.16      0.00
    5    6    2     -0.49      0.00
    6    6    2      0.17      0.00
    7    6    2      0.19      0.00
    8    6    2     -0.30      0.00
    9    6    2     -0.03      0.00
   10    6    2      0.12      0.00
   -8    7    2     -0.08      0.00
   -7    7    2     -0.49      0.00
   -6    7    2     -0.44      0.00
   -5    7    2      0.14      0.00
   -4    7    2      0.47      0.00
   -3    7    2      0.46      0.00
   -2    7    2      0.08      0.00
   -1    7    2     -0.93      0.00
    0    7    2     -1.64      0.00
    1    7    2     -1.36      0.00
    2    7    2     -0.85      0.00
    3    7    2     -0.62      0.00
    4    7    2     -0.15      0.00
    5    7    2      0.36      0.00
    6    7    2      0.01      0.00
    7    7    2     -0.38      0.00
    8    7    2      0.12      0.00
    9    7    2      0.68      0.00
   -8    8    2     -0.63      0.00
   -7    8    2     -0.47      0.00
   -6    8    2     -0.03      0.00
   -5    8    2      0.09      0.00
   -4    8    2      0.16      0.00
   -3    8    2      0.14      0.00
   -2    8    2     -0.16      0.00
   -1    8    2     -0.04      0.00
    0    8    2      0.65      0.00
    1    8    2      0.87      0.00
    2    8    2      0.54      0.00
    3    8    2      0.40      0.00
    4    8    2      0.14      0.00
    5    8    2     -0.49      0.00
    6    8    2     -0.74      0.00
    7    8    2     -0.36      0.00
    8    8    2     -0.14      0.00
   -7    9    2     -0.14      0.00
   -6    9    2      0.18      0.00
   -5    9    2      0.37      0.00
   -4    9    2      0.12      0.00
   -3    9    2     -0.29      0.00
   -2    9    2     -0.49      0.00
   -1    9    2     -0.36      0.00
    0    9    2     -0.11      0.00
    1    9    2      0.08      0.00
    2    9    2      0.08      0.00
    3    9    2     -0.43      0.00
    4    9    2     -0.71      0.00
    5    9    2     -0.28      0.00
    6    9    2     -0.01      0.00
    7    9    2     -0.19      0.00
   -5   10    2      0.19      0.00
   -4   10    2     -0.03      0.00
   -3   10    2     -0.57      0.00
   -2   10    2     -0.75      0.00
   -1   10    2      0.04      0.00
    0   10    2      0.81      0.00
    1   10    2      0.99      0.00
    2   10    2      0.73      0.00
    3   10    2      0.49      0.00
    4   10    2      0.08      0.00
    5   10    2     -0.55      0.00
    6   10    2     -0.20      0.00
   -4   11    2     -0.64      0.00
   -3   11    2     -0.52      0.00
   -2   11    2     -0.13      0.00
   -1   11    2      0.00      0.00
    0   11    2      0.39      0.00
    1   11    2      0.70      0.00
    2   11    2      0.55      0.00
    3   11    2      0.48      0.00
    4   11    2      0.56      0.00
   -1  -10    3      0.40      0.00
    0  -10    3     -0.46      0.00
    1  -10    3     -0.11      0.00
    2  -10    3      0.26      0.00
    3  -10    3     -0.51      0.00
   -4   -9    3     -0.06      0.00
   -3   -9    3     -0.32      0.00
   -2   -9    3     -0.56      0.00
   -1   -9    3     -0.58      0.00
    0   -9    3     -0.38      0.00
    1   -9    3     -0.37      0.00
    2   -9    3     -0.38      0.00
    3   -9    3      0.28      0.00
    4   -9    3      0.17      0.00
    5   -9    3     -1.26      0.00
   -6   -8    3      0.02      0.00
   -5   -8    3      0.03      0.00
   -4   -8    3     -0.19      0.00
   -3   -8    3     -0.36      0.00
   -2   -8    3     -0.25      0.00
   -1   -8    3     -0.03      0.00
    0   -8    3      0.19      0.00
    1   -8    3      0.29      0.00
    2   -8    3      0.34      0.00
    3   -8    3      0.34      0.00
    4   -8    3      0.28      0.00
    5   -8    3      0.30      0.00
    6   -8    3     -0.17      0.00
    7   -8    3     -0.66      0.00
   -7   -7    3      1.33      0.00
   -6   -7    3      0.44      0.00
   -5   -7    3     -0.43      0.00
   -4   -7    3     -0.37      0.00
   -3   -7    3      0.15      0.00
   -2   -7    3      0.31      0.00
   -1   -7    3      0.10      0.00
    0   -7    3     -0.26      0.00
    1   -7    3     -0.38      0.00
    2   -7    3     -0.16      0.00
    3   -7    3     -0.28      0.00
    4   -7    3     -0.57      0.00
    5   -7    3     -0.29      0.00
    6   -7    3      0.29      0.00
    7   -7    3      0.14      0.00
    8   -7    3     -0.83      0.00
   -8   -6    3      0.03      0.00
   -7   -6    3      0.16      0.00
   -6   -6    3     -0.05      0.00
   -5   -6    3     -0.35      0.00
   -4   -6    3     -0.69      0.00
   -3   -6    3     -0.59      0.00
   -2   -6    3      0.09      0.00
   -1   -6    3      0.57      0.00
    0   -6    3      0.40      0.00
    1   -6    3     -0.24      0.00
    2   -6    3     -1.07      0.00
    3   -6    3     -1.37      0.00
    4   -6    3     -0.92      0.00
    5   -6    3     -0.33      0.00
    6   -6    3     -0.14      0.00
    7   -6    3      0.03      0.00
    8   -6    3      0.48      0.00
   -8   -5    3      0.18      0.00
   -7   -5    3     -0.30      0.00
   -6   -5    3     -0.71      0.00
   -5   -5    3     -0.97      0.00
   -4   -5    3     -0.76      0.00
   -3   -5    3     -0.04      0.00
   -2   -5    3      0.45      0.00
   -1   -5    3      0.48      0.00
    0   -5    3     -0.01      0.00
    1   -5    3     -0.87      0.00
    2   -5    3     -1.15      0.00
    3   -5    3     -0.58      0.00
    4   -5    3     -0.01      0.00
    5   -5    3     -0.07      0.00
    6   -5    3     -0.34      0.00
    7   -5    3     -0.21      0.00
    8   -5    3     -0.03      0.00
    9   -5    3      0.02      0.00
   10   -5    3      0.16      0.00
   -8   -4    3     -0.41      0.00
   -7   -4    3     -0.48      0.00
   -6   -4    3     -0.39      0.00
   -5   -4    3     -0.55      0.00
   -4   -4    3     -0.75      0.00
   -3   -4    3     -0.73      0.00
   -2   -4    3     -0.35      0.00
   -1   -4    3     -0.34      0.00
    0   -4    3     -0.99      0.00
    1   -4    3     -1.25      0.00
    2   -4    3     -1.10      0.00
    3   -4    3     -1.09      0.00
    4   -4    3     -0.80      0.00
    5   -4    3     -0.29      0.00
    6   -4    3     -0.15      0.00
    7   -4    3      0.25      0.00
    8   -4    3      1.21      0.00
    9   -4    3      1.37      0.00
   10   -4    3      0.48      0.00
   -9   -3    3     -0.73      0.00
   -8   -3    3     -0.43      0.00
   -7   -3    3     -0.07      0.00
   -6   -3    3      0.12      0.00
   -5   -3    3      0.16      0.00
   -4   -3    3      0.20      0.00
   -3   -3    3      0.26      0.00
   -2   -3    3      0.08      0.00
   -1   -3    3     -0.21      0.00
    0   -3    3     -0.31      0.00
    1   -3    3     -0.70      0.00
    2   -3    3     -1.20      0.00
    3   -3    3     -0.61      0.00
    4   -3    3      0.05      0.00
    5   -3    3     -0.45      0.00
    6   -3    3     -0.24      0.00
    7   -3    3      0.84      0.00
    8   -3    3      0.45      0.00
    9   -3    3     -0.54      0.00
   10   -3    3     -0.27      0.00
   11   -3    3      0.52      0.00
  -10   -2    3     -0.34      0.00
   -9   -2    3      0.02      0.00
   -8   -2    3      0.26      0.00
   -7   -2    3      0.27      0.00
   -6   -2    3     -0.03      0.00
   -5   -2    3     -0.39      0.00
   -4   -2    3     -0.52      0.00
   -3   -2    3     -0.05      0.00
   -2   -2    3      0.79      0.00
   -1   -2    3      0.73      0.00
    0   -2    3     -0.89      0.00
    1   -2    3     -2.73      0.00
    2   -2    3     -2.43      0.00
    3   -2    3     -0.85      0.00
    4   -2    3     -0.53      0.00
    5   -2    3     -0.50      0.00
    6   -2    3      0.12      0.00
    7   -2    3     -0.26      0.00
    8   -2    3     -1.02      0.00
    9   -2    3     -0.56      0.00
   10   -2    3      0.49      0.00
   11   -2    3      0.86      0.00
  -10   -1    3      0.52      0.00
   -9   -1    3     -0.02      0.00
   -8   -1    3      0.07      0.00
   -7   -1    3      0.23      0.00
   -6   -1    3      0.44      0.00
   -5   -1    3      0.64      0.00
   -4   -1    3      0.37      0.00
   -3   -1    3     -0.66      0.00
   -2   -1    3     -2.42      0.00
   -1   -1    3     -4.09      0.00
    0   -1    3     -4.91      0.00
    1   -1    3     -4.18      0.00
    2   -1    3     -2.75      0.00
    3   -1    3     -2.59      0.00
    4   -1    3     -2.50      0.00
    5   -1    3     -0.81      0.00
    6   -1    3      0.36      0.00
    7   -1    3     -0.21      0.00
    8   -1    3     -0.49      0.00
    9   -1    3      0.17      0.00
   10   -1    3      0.31      0.00
   11   -1    3     -0.21      0.00
  -10    0    3     -0.82      0.00
   -9    0    3     -0.21      0.00
   -8    0    3     -0.01      0.00
   -7    0    3      0.54      0.00
   -6    0    3      0.86      0.00
   -5    0    3      0.45      0.00
   -4    0    3      0.78      0.00
   -3    0    3      1.78      0.00
   -2    0    3      1.46      0.00
   -1    0    3     -1.21      0.00
    0    0    3     -4.25      0.00
    1    0    3     -4.95      0.00
    2    0    3     -4.10      0.00
    3    0    3     -3.30      0.00
    4    0    3     -1.45      0.00
    5    0    3      0.65      0.00
    6    0    3      0.39      0.00
    7    0    3     -0.68      0.00
    8    0    3     -0.28      0.00
    9    0    3      0.41      0.00
   10    0    3      0.44      0.00
   11    0    3      0.33      0.00
  -10    1    3      1.44      0.00
   -9    1    3      0.36      0.00
   -8    1    3      0.10      0.00
   -7    1    3      0.06      0.00
   -6    1    3     -0.39      0.00
   -5    1    3     -0.51      0.00
   -4    1    3     -0.42      0.00
   -3    1    3      0.08      0.00
   -2    1    3      1.22      0.00
   -1    1    3      1.55      0.00
    0    1    3      0.43      0.00
    1    1    3     -2.34      0.00
    2    1    3     -6.03      0.00
    3    1    3     -5.91      0.00
    4    1    3     -1.74      0.00
    5    1    3      0.00      0.00
    6    1    3     -0.60      0.00
    7    1    3      0.34      0.00
    9    1    3      0.41      0.00
   10    1    3     -0.38      0.00
   11    1    3     -0.37      0.00
  -10    2    3     -0.54      0.00
   -9    2    3     -0.18      0.00
   -8    2    3      0.09      0.00
   -7    2    3      0.09      0.00
   -6    2    3      0.18      0.00
   -5    2    3     -0.04      0.00
   -4    2    3     -0.50      0.00
   -3    2    3     -0.58      0.00
   -2    2    3     -0.60      0.00
   -1    2    3      0.38      0.00
    0    2    3      1.40      0.00
    2    2    3     -4.13      0.00
    3    2    3     -3.43      0.00
    4    2    3     -2.13      0.00
    5    2    3     -1.18      0.00
    6    2    3      0.52      0.00
    7    2    3      0.76      0.00
    8    2    3     -0.11      0.00
    9    2    3     -0.18      0.00
   10    2    3     -0.09      0.00
   11    2    3     -0.17      0.00
  -10    3    3     -0.42      0.00
   -9    3    3      0.35      0.00
   -8    3    3      0.40      0.00
   -7    3    3      0.14      0.00
   -6    3    3      0.06      0.00
   -5    3    3      0.29      0.00
   -4    3    3      0.53      0.00
   -3    3    3     -0.03      0.00
   -2    3    3      0.53      0.00
   -1    3    3      2.61      0.00
    0    3    3      1.82      0.00
    1    3    3     -0.86      0.00
    2    3    3     -0.91      0.00
    3    3    3     -0.28      0.00
    4    3    3     -0.45      0.00
    5    3    3      0.20      0.00
    6    3    3      0.77      0.00
    7    3    3      0.57      0.00
    8    3    3      0.20      0.00
    9    3    3     -0.10      0.00
   10    3    3      0.27      0.00
   11    3    3      0.91      0.00
   -9    4    3      0.73      0.00
   -8    4    3      0.36      0.00
   -7    4    3      0.23      0.00
   -6    4    3      0.17      0.00
   -5    4    3      0.13      0.00
   -4    4    3     -0.55      0.00
   -3    4    3     -0.63      0.00
   -2    4    3      0.40      0.00
   -1    4    3      0.15      0.00
    0    4    3     -0.02      0.00
    1    4    3      2.47      0.00
    2    4    3      4.10      0.00
    3    4    3      2.73      0.00
    4    4    3      1.31      0.00
    5    4    3      0.83      0.00
    6    4    3      0.48      0.00
    7    4    3      0.18      0.00
    8    4    3     -0.13      0.00
    9    4    3     -0.19      0.00
   10    4    3      0.19      0.00
   11    4    3      0.50      0.00
   -9    5    3      0.59      0.00
   -8    5    3      0.12      0.00
   -7    5    3     -0.38      0.00
   -6    5    3     -0.35      0.00
   -5    5    3     -0.39      0.00
   -4    5    3     -0.36      0.00
   -3    5    3      0.07      0.00
   -2    5    3      0.09      0.00
   -1    5    3      0.15      0.00
    0    5    3      1.13      0.00
    1    5    3      1.77      0.00
    2    5    3      1.39      0.00
    3    5    3      1.04      0.00
    4    5    3      0.80      0.00
    5    5    3      0.47      0.00
    6    5    3      0.39      0.00
    7    5    3      0.23      0.00
    8    5    3     -0.31      0.00
    9    5    3     -0.53      0.00
   10    5    3     -0.23      0.00
   11    5    3     -0.10      0.00
   -9    6    3      0.45      0.00
   -8    6    3      0.04      0.00
   -7    6    3     -0.24      0.00
   -6    6    3     -0.20      0.00
   -5    6    3      0.04      0.00
   -4    6    3      0.29      0.00
   -3    6    3     -0.10      0.00
   -2    6    3     -0.86      0.00
   -1    6    3     -0.83      0.00
    0    6    3      0.17      0.00
    1    6    3      0.88      0.00
    2    6    3      0.42      0.00
    3    6    3     -0.64      0.00
    4    6    3     -1.13      0.00
    5    6    3     -0.76      0.00
    6    6    3     -0.36      0.00
    7    6    3     -0.54      0.00
    8    6    3     -0.42      0.00
    9    6    3      0.40      0.00
   10    6    3      0.55      0.00
   -8    7    3     -0.09      0.00
   -7    7    3      0.20      0.00
   -6    7    3      0.04      0.00
   -5    7    3     -0.18      0.00
   -4    7    3     -0.21      0.00
   -3    7    3      0.10      0.00
   -2    7    3      0.42      0.00
   -1    7    3      0.32      0.00
    0    7    3     -0.16      0.00
    1    7    3     -0.71      0.00
    2    7    3     -0.99      0.00
    3    7    3     -0.75      0.00
    4    7    3     -0.22      0.00
    5    7    3      0.17      0.00
    6    7    3      0.08      0.00
    7    7    3     -0.15      0.00
    8    7    3     -0.19      0.00
    9    7    3     -0.77      0.00
   -7    8    3      0.14      0.00
   -6    8    3      0.16      0.00
   -5    8    3     -0.24      0.00
   -4    8    3     -0.43      0.00
   -3    8    3     -0.05      0.00
   -2    8    3      0.70      0.00
   -1    8    3      1.55      0.00
    0    8    3      1.80      0.00
    1    8    3      1.11      0.00
    2    8    3      0.26      0.00
    3    8    3     -0.07      0.00
    4    8    3      0.05      0.00
    5    8    3      0.06      0.00
    6    8    3     -0.14      0.00
    7    8    3      0.04      0.00
    8    8    3      0.30      0.00
    9    8    3      0.47      0.00
   -6    9    3      0.42      0.00
   -5    9    3     -0.16      0.00
   -4    9    3     -0.06      0.00
   -3    9    3      0.01      0.00
   -2    9    3     -0.15      0.00
   -1    9    3     -0.13      0.00
    0    9    3      0.04      0.00
    1    9    3      0.12      0.00
    2    9    3      0.17      0.00
    3    9    3      0.31      0.00
    4    9    3      0.34      0.00
    5    9    3      0.03      0.00
    6    9    3      0.02      0.00
    7    9    3      0.41      0.00
    8    9    3      0.57      0.00
   -5   10    3      0.23      0.00
   -4   10    3      0.26      0.00
   -3   10    3      0.14      0.00
   -2   10    3      0.23      0.00
   -1   10    3      0.14      0.00
    0   10    3     -0.68      0.00
    1   10    3     -1.23      0.00
    2   10    3     -0.81      0.00
    3   10    3     -0.12      0.00
    4   10    3      0.19      0.00
    5   10    3      0.48      0.00
    6   10    3      0.82      0.00
    7   10    3      0.47      0.00
   -4   11    3     -0.08      0.00
   -3   11    3      0.10      0.00
   -2   11    3      0.30      0.00
   -1   11    3      0.05      0.00
    0   11    3      0.23      0.00
    1   11    3      0.29      0.00
    2   11    3     -0.65      0.00
    3   11    3     -1.32      0.00
    4   11    3     -0.65      0.00
    5   11    3      0.57      0.00
    0   12    3      0.81      0.00
    1   12    3     -0.15      0.00
    2   12    3      0.28      0.00
   -3   -9    4     -0.91      0.00
   -2   -9    4     -0.32      0.00
   -1   -9    4      0.61      0.00
    0   -9    4      1.18      0.00
    1   -9    4      1.05      0.00
    2   -9    4      0.53      0.00
    3   -9    4      0.72      0.00
    4   -9    4      0.66      0.00
    5   -9    4     -0.31      0.00
   -5   -8    4      0.62      0.00
   -4   -8    4      1.24      0.00
   -3   -8    4      0.51      0.00
   -2   -8    4     -0.16      0.00
   -1   -8    4     -0.17      0.00
    0   -8    4      0.17      0.00
    1   -8    4      0.26      0.00
    2   -8    4      0.14      0.00
    3   -8    4     -0.42      0.00
    4   -8    4     -0.74      0.00
    5   -8    4      0.41      0.00
    6   -8    4      1.46      0.00
   -6   -7    4      0.66      0.00
   -5   -7    4      0.42      0.00
   -4   -7    4      0.56      0.00
   -3   -7    4      1.11      0.00
   -2   -7    4      0.96      0.00
   -1   -7    4      0.28      0.00
    0   -7    4     -0.05      0.00
    1   -7    4      0.14      0.00
    2   -7    4      0.22      0.00
    3   -7    4      0.02      0.00
    4   -7    4      0.09      0.00
    5   -7    4     -0.04      0.00
    6   -7    4     -0.45      0.00
    7   -7    4     -0.27      0.00
    8   -7    4      0.14      0.00
   -7   -6    4      0.25      0.00
   -6   -6    4     -0.07      0.00
   -5   -6    4      0.16      0.00
   -4   -6    4      0.41      0.00
   -3   -6    4      0.32      0.00
   -2   -6    4      0.14      0.00
   -1   -6    4     -0.09      0.00
    0   -6    4     -0.48      0.00
    1   -6    4     -0.58      0.00
    2   -6    4      0.11      0.00
    3   -6    4      1.08      0.00
    4   -6    4      1.10      0.00
    5   -6    4      0.34      0.00
    6   -6    4     -0.17      0.00
    7   -6    4     -0.27      0.00
    8   -6    4      0.01      0.00
   -8   -5    4      0.25      0.00
   -7   -5    4     -0.62      0.00
   -6   -5    4     -0.27      0.00
   -5   -5    4      0.38      0.00
   -4   -5    4      0.41      0.00
   -3   -5    4      0.08      0.00
   -2   -5    4     -0.13      0.00
   -1   -5    4     -0.15      0.00
    0   -5    4      0.06      0.00
    1   -5    4      0.43      0.00
    2   -5    4      0.64      0.00
    3   -5    4      0.64      0.00
    4   -5    4      0.82      0.00
    5   -5    4      0.88      0.00
    6   -5    4      0.37      0.00
    7   -5    4     -0.28      0.00
    8   -5    4     -1.04      0.00
    9   -5    4     -1.81      0.00
   -8   -4    4      0.31      0.00
   -7   -4    4      1.06      0.00
   -6   -4    4      0.75      0.00
   -5   -4    4      0.28      0.00
   -4   -4    4      0.62      0.00
   -3   -4    4      1.06      0.00
   -2   -4    4      0.81      0.00
   -1   -4    4      0.07      0.00
    0   -4    4     -0.35      0.00
    1   -4    4      0.08      0.00
    2   -4    4      0.67      0.00
    3   -4    4      0.79      0.00
    4   -4    4      0.49      0.00
    5   -4    4      0.05      0.00
    6   -4    4     -0.12      0.00
    7   -4    4     -0.31      0.00
    8   -4    4     -0.56      0.00
    9   -4    4     -0.28      0.00
   10   -4    4      0.47      0.00
   -9   -3    4     -0.27      0.00
   -8   -3    4      0.14      0.00
   -7   -3    4      0.18      0.00
   -6   -3    4     -0.08      0.00
   -5   -3    4     -0.27      0.00
   -4   -3    4     -0.05      0.00
   -3   -3    4      0.25      0.00
   -2   -3    4     -0.08      0.00
   -1   -3    4     -0.51      0.00
    0   -3    4     -0.18      0.00
    1   -3    4      0.32      0.00
    2   -3    4      0.72      0.00
    3   -3    4      1.12      0.00
    4   -3    4      0.61      0.00
    5   -3    4     -0.16      0.00
    6   -3    4      0.00      0.00
    7   -3    4      0.30      0.00
    8   -3    4      0.01      0.00
    9   -3    4      0.01      0.00
   10   -3    4      0.18      0.00
   11   -3    4     -0.25      0.00
   -9   -2    4      0.25      0.00
   -8   -2    4     -0.03      0.00
   -7   -2    4     -0.42      0.00
   -6   -2    4     -0.49      0.00
   -5   -2    4     -0.14      0.00
   -4   -2    4      0.19      0.00
   -3   -2    4      0.26      0.00
   -2   -2    4      0.30      0.00
   -1   -2    4      0.13      0.00
    0   -2    4     -0.15      0.00
    1   -2    4      0.42      0.00
    2   -2    4      1.49      0.00
    3   -2    4      1.22      0.00
    4   -2    4      0.16      0.00
    5   -2    4      0.09      0.00
    6   -2    4      0.09      0.00
    7   -2    4     -0.40      0.00
    8   -2    4      0.17      0.00
    9   -2    4      1.00      0.00
   10   -2    4      0.13      0.00
   11   -2    4     -1.19      0.00
   -9   -1    4      0.25      0.00
   -8   -1    4      0.04      0.00
   -7   -1    4     -0.31      0.00
   -6   -1    4     -0.42      0.00
   -5   -1    4     -0.40      0.00
   -4   -1    4     -0.57      0.00
   -3   -1    4     -0.54      0.00
   -2   -1    4     -0.17      0.00
   -1   -1    4      0.36      0.00
    0   -1    4      0.88      0.00
    1   -1    4      1.17      0.00
    2   -1    4      0.74      0.00
    3   -1    4     -0.07      0.00
    4   -1    4      0.07      0.00
    5   -1    4      0.49      0.00
    6   -1    4      0.05      0.00
    7   -1    4      0.28      0.00
    8   -1    4      1.07      0.00
    9   -1    4      0.50      0.00
   10   -1    4     -0.40      0.00
   11   -1    4     -0.11      0.00
   -9    0    4     -0.58      0.00
   -8    0    4     -0.09      0.00
   -7    0    4      0.04      0.00
   -6    0    4     -0.14      0.00
   -5    0    4     -0.33      0.00
   -4    0    4     -0.11      0.00
   -3    0    4     -0.66      0.00
   -2    0    4     -1.98      0.00
   -1    0    4     -1.92      0.00
    0    0    4      0.27      0.00
    1    0    4      2.37      0.00
    2    0    4      2.44      0.00
    3    0    4      2.06      0.00
    4    0    4      1.96      0.00
    5    0    4      0.79      0.00
    6    0    4     -0.14      0.00
    7    0    4      0.24      0.00
    8    0    4      0.13      0.00
    9    0    4     -0.54      0.00
   10    0    4     -0.57      0.00
   11    0    4     -0.31      0.00
   -9    1    4     -0.39      0.00
   -8    1    4     -0.52      0.00
   -7    1    4     -0.21      0.00
   -6    1    4     -0.04      0.00
   -5    1    4      0.32      0.00
   -4    1    4      0.49      0.00
   -3    1    4      0.83      0.00
   -2    1    4      1.84      0.00
   -1    1    4      2.47      0.00
    0    1    4      2.22      0.00
    1    1    4      1.74      0.00
    2    1    4      2.00      0.00
    3    1    4      2.30      0.00
    4    1    4      1.25      0.00
    5    1    4      0.11      0.00
    6    1    4      0.31      0.00
    7    1    4      0.29      0.00
    8    1    4     -0.53      0.00
    9    1    4     -0.63      0.00
   10    1    4      0.10      0.00
   11    1    4      0.57      0.00
   -9    2    4     -0.02      0.00
   -8    2    4      0.28      0.00
   -7    2    4     -0.12      0.00
   -6    2    4     -0.35      0.00
   -5    2    4     -0.31      0.00
   -4    2    4      0.03      0.00
   -3    2    4      0.46      0.00
   -2    2    4      0.44      0.00
   -1    2    4      0.83      0.00
    0    2    4      1.95      0.00
    1    2    4      2.52      0.00
    2    2    4      2.34      0.00
    3    2    4      1.98      0.00
    4    2    4      1.31      0.00
    5    2    4      0.82      0.00
    6    2    4      0.53      0.00
    7    2    4     -0.03      0.00
    8    2    4     -0.27      0.00
    9    2    4     -0.07      0.00
   10    2    4      0.02      0.00
   11    2    4     -0.02      0.00
   -9    3    4      0.23      0.00
   -8    3    4     -0.04      0.00
   -7    3    4     -0.09      0.00
   -6    3    4      0.06      0.00
   -5    3    4      0.10      0.00
   -4    3    4     -0.23      0.00
   -3    3    4     -0.65      0.00
   -2    3    4     -0.14      0.00
   -1    3    4      0.44      0.00
    0    3    4     -0.94      0.00
    1    3    4     -1.95      0.00
    3    3    4      2.78      0.00
    4    3    4      2.65      0.00
    5    3    4      1.22      0.00
    6    3    4     -0.23      0.00
    7    3    4     -0.63      0.00
    8    3    4     -0.02      0.00
    9    3    4      0.25      0.00
   10    3    4     -0.15      0.00
   11    3    4     -0.59      0.00
   -9    4    4      0.11      0.00
   -8    4    4     -0.42      0.00
   -7    4    4     -0.26      0.00
   -6    4    4     -0.01      0.00
   -5    4    4     -0.14      0.00
   -4    4    4     -0.16      0.00
   -3    4    4      0.29      0.00
   -2    4    4      0.04      0.00
   -1    4    4     -2.00      0.00
    0    4    4     -2.80      0.00
    1    4    4     -0.19      0.00
    2    4    4      1.52      0.00
    3    4    4      0.37      0.00
    4    4    4     -0.55      0.00
    5    4    4     -0.61      0.00
    6    4    4     -0.58      0.00
    7    4    4     -0.34      0.00
    8    4    4     -0.03      0.00
    9    4    4      0.17      0.00
   10    4    4      0.21      0.00
   11    4    4     -0.03      0.00
   -9    5    4     -1.27      0.00
   -8    5    4     -0.43      0.00
   -7    5    4     -0.04      0.00
   -6    5    4      0.02      0.00
   -5    5    4      0.19      0.00
   -4    5    4      0.46      0.00
   -3    5    4      0.82      0.00
   -2    5    4      0.49      0.00
   -1    5    4     -0.12      0.00
    0    5    4     -0.27      0.00
    1    5    4     -1.19      0.00
    2    5    4     -2.37      0.00
    3    5    4     -1.93      0.00
    4    5    4     -1.09      0.00
    5    5    4     -1.05      0.00
    6    5    4     -0.93      0.00
    7    5    4     -0.49      0.00
    8    5    4     -0.11      0.00
    9    5    4      0.22      0.00
   10    5    4      0.32      0.00
   11    5    4      0.13      0.00
   -8    6    4     -0.40      0.00
   -7    6    4      0.15      0.00
   -6    6    4      0.64      0.00
   -5    6    4      0.45      0.00
   -4    6    4      0.55      0.00
   -3    6    4      0.56      0.00
   -2    6    4      0.23      0.00
   -1    6    4      0.34      0.00
    0    6    4      0.38      0.00
    1    6    4     -0.35      0.00
    2    6    4     -1.12      0.00
    3    6    4     -1.30      0.00
    4    6    4     -0.99      0.00
    5    6    4     -0.50      0.00
    6    6    4     -0.30      0.00
    7    6    4     -0.36      0.00
    8    6    4     -0.06      0.00
    9    6    4      0.36      0.00
   10    6    4      0.26      0.00
   -8    7    4      0.32      0.00
   -7    7    4      0.33      0.00
   -6    7    4     -0.06      0.00
   -5    7    4      0.02      0.00
   -4    7    4     -0.06      0.00
   -3    7    4     -0.39      0.00
   -2    7    4     -0.54      0.00
   -1    7    4     -0.69      0.00
    0    7    4     -0.87      0.00
    1    7    4     -0.65      0.00
    2    7    4     -0.05      0.00
    3    7    4      0.33      0.00
    4    7    4      0.35      0.00
    5    7    4      0.26      0.00
    6    7    4      0.04      0.00
    7    7    4      0.12      0.00
    8    7    4      0.59      0.00
    9    7    4      0.49      0.00
   10    7    4      0.06      0.00
   -7    8    4     -0.35      0.00
   -6    8    4     -0.13      0.00
   -5    8    4      0.08      0.00
   -4    8    4      0.14      0.00
   -3    8    4     -0.08      0.00
   -2    8    4     -0.39      0.00
   -1    8    4     -0.34      0.00
    0    8    4     -0.34      0.00
    1    8    4     -0.54      0.00
    2    8    4     -0.31      0.00
    3    8    4      0.46      0.00
    4    8    4      0.85      0.00
    5    8    4      0.46      0.00
    6    8    4      0.19      0.00
    7    8    4      0.48      0.00
    8    8    4      0.25      0.00
    9    8    4     -0.21      0.00
   -6    9    4     -0.48      0.00
   -5    9    4      0.00      0.00
   -4    9    4      0.35      0.00
   -3    9    4     -0.01      0.00
   -2    9    4     -0.59      0.00
   -1    9    4     -0.71      0.00
    0    9    4     -0.21      0.00
    1    9    4      0.54      0.00
    2    9    4      0.71      0.00
    3    9    4      0.08      0.00
    4    9    4     -0.52      0.00
    5    9    4     -0.58      0.00
    6    9    4     -0.09      0.00
    7    9    4      0.20      0.00
    8    9    4     -0.03      0.00
   -5   10    4     -0.63      0.00
   -4   10    4     -0.02      0.00
   -3   10    4      0.31      0.00
   -2   10    4      0.57      0.00
   -1   10    4      0.20      0.00
    0   10    4     -0.67      0.00
    1   10    4     -0.90      0.00
    2   10    4     -0.34      0.00
    3   10    4      0.09      0.00
    4   10    4     -0.01      0.00
    5   10    4      0.17      0.00
    6   10    4      0.19      0.00
    7   10    4     -0.74      0.00
   -4   11    4     -0.35      0.00
   -3   11    4      0.00      0.00
   -2   11    4      0.42      0.00
   -1   11    4      0.35      0.00
    0   11    4      0.34      0.00
    1   11    4      0.23      0.00
    2   11    4     -0.13      0.00
    3   11    4     -0.21      0.00
    4   11    4     -0.18      0.00
    5   11    4     -0.90      0.00
   -1   12    4     -1.36      0.00
    0   12    4     -1.00      0.00
    1   12    4     -0.38      0.00
    2   12    4      0.81      0.00
    3   12    4      1.80      0.00
   -1   -9    5      0.31      0.00
    0   -9    5      0.45      0.00
    1   -9    5      0.17      0.00
    2   -9    5     -0.17      0.00
    3   -9    5     -0.16      0.00
   -3   -8    5     -1.19      0.00
   -2   -8    5     -0.01      0.00
   -1   -8    5     -0.46      0.00
    0   -8    5     -1.43      0.00
    1   -8    5     -1.30      0.00
    2   -8    5     -0.40      0.00
    3   -8    5      0.20      0.00
    4   -8    5      0.01      0.00
    5   -8    5     -0.07      0.00
    6   -8    5      0.09      0.00
   -5   -7    5     -0.43      0.00
   -4   -7    5     -1.11      0.00
   -3   -7    5     -1.08      0.00
   -2   -7    5     -0.84      0.00
   -1   -7    5      0.10      0.00
    0   -7    5      0.70      0.00
    1   -7    5      0.30      0.00
    2   -7    5     -0.16      0.00
    3   -7    5     -0.37      0.00
    4   -7    5     -0.12      0.00
    5   -7    5      0.03      0.00
    6   -7    5     -0.35      0.00
    7   -7    5     -0.48      0.00
   -6   -6    5     -0.96      0.00
   -5   -6    5     -0.06      0.00
   -4   -6    5      0.35      0.00
   -3   -6    5      0.00      0.00
   -2   -6    5     -0.08      0.00
   -1   -6    5      0.13      0.00
    0   -6    5      0.34      0.00
    1   -6    5      0.46      0.00
    2   -6    5      0.28      0.00
    3   -6    5      0.27      0.00
    4   -6    5      0.21      0.00
    5   -6    5      0.00      0.00
    6   -6    5      0.30      0.00
    7   -6    5      0.72      0.00
    8   -6    5      0.38      0.00
   -7   -5    5     -0.20      0.00
   -6   -5    5     -0.42      0.00
   -5   -5    5     -0.49      0.00
   -4   -5    5     -0.47      0.00
   -3   -5    5     -0.36      0.00
   -2   -5    5     -0.59      0.00
   -1   -5    5     -0.88      0.00
    0   -5    5     -0.59      0.00
    1   -5    5      0.15      0.00
    2   -5    5      0.46      0.00
    3   -5    5     -0.03      0.00
    4   -5    5     -0.23      0.00
    5   -5    5      0.26      0.00
    6   -5    5      0.54      0.00
    7   -5    5      0.46      0.00
    8   -5    5      0.66      0.00
   -7   -4    5     -0.44      0.00
   -6   -4    5      0.21      0.00
   -5   -4    5      0.30      0.00
   -4   -4    5      0.40      0.00
   -3   -4    5      0.38      0.00
   -2   -4    5      0.13      0.00
   -1   -4    5      0.01      0.00
    0   -4    5      0.40      0.00
    1   -4    5      0.81      0.00
    2   -4    5      0.65      0.00
    3   -4    5      0.13      0.00
    4   -4    5     -0.65      0.00
    5   -4    5     -1.29      0.00
    6   -4    5     -1.00      0.00
    7   -4    5     -0.26      0.00
    8   -4    5      0.12      0.00
    9   -4    5      0.14      0.00
   10   -4    5      0.10      0.00
   -8   -3    5      1.08      0.00
   -7   -3    5      0.23      0.00
   -6   -3    5     -0.15      0.00
   -5   -3    5      0.35      0.00
   -4   -3    5      0.47      0.00
   -3   -3    5      0.00      0.00
   -2   -3    5     -0.22      0.00
   -1   -3    5      0.35      0.00
    0   -3    5      0.79      0.00
    1   -3    5      0.26      0.00
    2   -3    5     -0.41      0.00
    3   -3    5     -0.41      0.00
    4   -3    5      0.00      0.00
    5   -3    5      0.60      0.00
    6   -3    5      0.72      0.00
    7   -3    5      0.04      0.00
    8   -3    5     -0.29      0.00
    9   -3    5     -0.12      0.00
   10   -3    5     -0.66      0.00
   -8   -2    5     -0.32      0.00
   -7   -2    5     -0.10      0.00
   -6   -2    5      0.27      0.00
   -5   -2    5      0.33      0.00
   -4   -2    5     -0.17      0.00
   -3   -2    5     -1.02      0.00
   -2   -2    5     -1.18      0.00
   -1   -2    5     -0.53      0.00
    0   -2    5      0.11      0.00
    1   -2    5      0.50      0.00
    2   -2    5      0.36      0.00
    3   -2    5     -0.45      0.00
    4   -2    5     -0.54      0.00
    5   -2    5      0.13      0.00
    6   -2    5      0.02      0.00
    7   -2    5     -0.27      0.00
    8   -2    5     -0.34      0.00
    9   -2    5     -0.85      0.00
   10   -2    5     -0.33      0.00
   11   -2    5      1.87      0.00
   -9   -1    5     -0.52      0.00
   -8   -1    5      0.13      0.00
   -7   -1    5      0.29      0.00
   -6   -1    5      0.29      0.00
   -5   -1    5      0.48      0.00
   -4   -1    5      0.72      0.00
   -3   -1    5      0.88      0.00
   -2   -1    5      0.43      0.00
   -1   -1    5     -0.31      0.00
    0   -1    5     -0.33      0.00
    1   -1    5      0.03      0.00
    2   -1    5     -0.04      0.00
    3   -1    5      0.16      0.00
    4   -1    5      0.55      0.00
    5   -1    5     -0.13      0.00
    6   -1    5     -0.81      0.00
    7   -1    5     -0.51      0.00
    8   -1    5     -0.31      0.00
    9   -1    5     -0.17      0.00
   10   -1    5      0.33      0.00
   11   -1    5      0.10      0.00
   -9    0    5      1.27      0.00
   -8    0    5      0.35      0.00
   -7    0    5      0.15      0.00
   -6    0    5      0.21      0.00
   -5    0    5     -0.58      0.00
   -4    0    5     -1.08      0.00
   -3    0    5     -0.58      0.00
   -2    0    5      0.56      0.00
   -1    0    5      1.37      0.00
    0    0    5      0.75      0.00
    1    0    5     -0.87      0.00
    2    0    5     -1.75      0.00
    3    0    5     -1.52      0.00
    4    0    5     -1.38      0.00
    5    0    5     -1.08      0.00
    6    0    5      0.07      0.00
    7    0    5      0.72      0.00
    8    0    5      0.10      0.00
    9    0    5     -0.24      0.00
   10    0    5     -0.03      0.00
   11    0    5     -0.07      0.00
   -9    1    5      0.00      0.00
   -8    1    5      0.41      0.00
   -7    1    5      0.25      0.00
   -6    1    5     -0.36      0.00
   -5    1    5     -0.20      0.00
   -4    1    5     -0.34      0.00
   -3    1    5     -1.18      0.00
   -2    1    5     -1.63      0.00
   -1    1    5     -1.92      0.00
    0    1    5     -2.25      0.00
    1    1    5     -2.14      0.00
    2    1    5     -1.41      0.00
    3    1    5     -0.61      0.00
    4    1    5     -0.17      0.00
    5    1    5      0.25      0.00
    6    1    5      0.24      0.00
    7    1    5     -0.43      0.00
    8    1    5     -0.18      0.00
    9    1    5      0.80      0.00
   10    1    5      0.90      0.00
   11    1    5      0.34      0.00
   -9    2    5     -0.10      0.00
   -8    2    5     -0.16      0.00
   -7    2    5     -0.22      0.00
   -6    2    5      0.26      0.00
   -5    2    5      0.58      0.00
   -4    2    5      0.86      0.00
   -3    2    5      1.13      0.00
   -2    2    5      0.29      0.00
   -1    2    5     -1.25      0.00
    0    2    5     -2.49      0.00
    1    2    5     -3.07      0.00
    2    2    5     -2.57      0.00
    3    2    5     -1.47      0.00
    4    2    5     -0.45      0.00
    5    2    5     -0.02      0.00
    6    2    5     -0.30      0.00
    7    2    5     -0.21      0.00
    8    2    5      0.24      0.00
    9    2    5      0.01      0.00
   10    2    5     -0.45      0.00
   11    2    5     -0.38      0.00
   -9    3    5      0.10      0.00
   -8    3    5     -0.07      0.00
   -7    3    5      0.00      0.00
   -6    3    5      0.05      0.00
   -5    3    5      0.02      0.00
   -4    3    5      0.11      0.00
   -3    3    5      0.34      0.00
   -2    3    5      0.80      0.00
   -1    3    5      0.83      0.00
    0    3    5      0.25      0.00
    1    3    5      0.14      0.00
    2    3    5      0.14      0.00
    3    3    5     -0.63      0.00
    4    3    5     -1.21      0.00
    5    3    5     -0.68      0.00
    6    3    5      0.11      0.00
    7    3    5      0.11      0.00
    8    3    5     -0.41      0.00
    9    3    5     -0.58      0.00
   10    3    5     -0.26      0.00
   11    3    5      0.10      0.00
   -9    4    5     -0.37      0.00
   -8    4    5     -0.49      0.00
   -7    4    5     -0.18      0.00
   -6    4    5      0.08      0.00
   -5    4    5     -0.10      0.00
   -4    4    5     -0.39      0.00
   -3    4    5     -0.45      0.00
   -2    4    5     -0.26      0.00
   -1    4    5      0.19      0.00
    0    4    5      0.89      0.00
    1    4    5      0.96      0.00
    3    4    5     -1.50      0.00
    4    4    5     -1.10      0.00
    5    4    5     -0.38      0.00
    6    4    5     -0.12      0.00
    7    4    5      0.16      0.00
    8    4    5      0.21      0.00
    9    4    5      0.03      0.00
   10    4    5      0.04      0.00
   11    4    5      0.04      0.00
   -8    5    5      0.02      0.00
   -7    5    5      0.31      0.00
   -6    5    5      0.01      0.00
   -5    5    5     -0.21      0.00
   -4    5    5     -0.24      0.00
   -3    5    5     -0.35      0.00
   -2    5    5     -0.55      0.00
   -1    5    5     -0.27      0.00
    0    5    5      0.96      0.00
    1    5    5      1.75      0.00
    2    5    5      1.11      0.00
    3    5    5      0.31      0.00
    4    5    5     -0.16      0.00
    5    5    5     -0.14      0.00
    6    5    5      0.48      0.00
    7    5    5      0.69      0.00
    8    5    5      0.45      0.00
    9    5    5      0.25      0.00
   10    5    5      0.11      0.00
   11    5    5      0.25      0.00
   -8    6    5      1.35      0.00
   -7    6    5      0.53      0.00
   -6    6    5      0.05      0.00
   -5    6    5      0.14      0.00
   -4    6    5      0.27      0.00
   -3    6    5     -0.14      0.00
   -2    6    5     -0.52      0.00
   -1    6    5      0.36      0.00
    0    6    5      1.49      0.00
    1    6    5      1.39      0.00
    2    6    5      1.05      0.00
    3    6    5      0.96      0.00
    4    6    5      0.82      0.00
    5    6    5      0.84      0.00
    6    6    5      0.86      0.00
    7    6    5      0.73      0.00
    8    6    5      0.36      0.00
    9    6    5     -0.22      0.00
   10    6    5     -0.65      0.00
   -8    7    5      0.32      0.00
   -7    7    5      0.33      0.00
   -6    7    5     -0.15      0.00
   -5    7    5     -0.49      0.00
   -4    7    5     -0.58      0.00
   -3    7    5     -0.57      0.00
   -2    7    5     -0.25      0.00
   -1    7    5     -0.04      0.00
    0    7    5     -0.20      0.00
    1    7    5     -0.07      0.00
    2    7    5      0.29      0.00
    3    7    5      0.25      0.00
    4    7    5      0.23      0.00
    5    7    5      0.64      0.00
    6    7    5      0.77      0.00
    7    7    5      0.30      0.00
    8    7    5     -0.07      0.00
    9    7    5     -0.19      0.00
   10    7    5     -0.09      0.00
   -7    8    5     -0.89      0.00
   -6    8    5     -0.58      0.00
   -5    8    5     -0.27      0.00
   -4    8    5     -0.31      0.00
   -3    8    5     -0.08      0.00
   -2    8    5      0.53      0.00
   -1    8    5      0.70      0.00
    0    8    5     -0.01      0.00
    1    8    5     -0.71      0.00
    2    8    5     -0.54      0.00
    3    8    5      0.25      0.00
    4    8    5      0.62      0.00
    5    8    5     -0.04      0.00
    6    8    5     -0.35      0.00
    7    8    5      0.42      0.00
    8    8    5      0.37      0.00
    9    8    5     -0.46      0.00
   -6    9    5      0.93      0.00
   -5    9    5      0.57      0.00
   -4    9    5      0.07      0.00
   -3    9    5     -0.09      0.00
   -2    9    5      0.07      0.00
   -1    9    5      0.34      0.00
    0    9    5      0.79      0.00
    1    9    5      1.09      0.00
    2    9    5      0.65      0.00
    3    9    5     -0.17      0.00
    4    9    5     -0.56      0.00
    5    9    5     -0.12      0.00
    6    9    5     -0.08      0.00
    7    9    5     -1.49      0.00
    8    9    5     -2.07      0.00
   -5   10    5      1.03      0.00
   -4   10    5      0.47      0.00
   -3   10    5     -0.17      0.00
   -2   10    5     -0.35      0.00
   -1   10    5     -0.21      0.00
    0   10    5     -0.06      0.00
    1   10    5      0.17      0.00
    2   10    5      0.26      0.00
    3   10    5     -0.13      0.00
    4   10    5     -0.56      0.00
    5   10    5     -0.45      0.00
    6   10    5      0.09      0.00
    7   10    5      0.94      0.00
   -3   11    5     -0.04      0.00
   -2   11    5      0.34      0.00
   -1   11    5      0.26      0.00
    0   11    5      0.37      0.00
    1   11    5      0.13      0.00
    2   11    5     -0.33      0.00
    3   11    5      0.20      0.00
    4   11    5      1.19      0.00
    5   11    5      1.15      0.00
    6   11    5      0.38      0.00
   -1   12    5     -0.08      0.00
    0   12    5      0.48      0.00
    1   12    5      1.03      0.00
    2   12    5      0.79      0.00
    3   12    5     -1.23      0.00
   -2   -8    6      0.08      0.00
   -1   -8    6      0.54      0.00
    0   -8    6      0.40      0.00
    1   -8    6      0.25      0.00
    2   -8    6      0.09      0.00
    3   -8    6      0.04      0.00
    4   -8    6     -0.04      0.00
    5   -8    6     -0.58      0.00
   -4   -7    6      2.57      0.00
   -3   -7    6      2.75      0.00
   -2   -7    6      0.62      0.00
   -1   -7    6     -0.74      0.00
    0   -7    6     -0.35      0.00
    1   -7    6      0.12      0.00
    2   -7    6      0.10      0.00
    3   -7    6     -0.38      0.00
    4   -7    6     -0.55      0.00
    5   -7    6      0.07      0.00
    6   -7    6      0.57      0.00
    7   -7    6      0.04      0.00
   -5   -6    6      0.13      0.00
   -4   -6    6     -0.87      0.00
   -3   -6    6     -1.11      0.00
   -2   -6    6     -0.10      0.00
   -1   -6    6      0.42      0.00
    0   -6    6     -0.12      0.00
    1   -6    6     -0.26      0.00
    2   -6    6     -0.22      0.00
    3   -6    6     -0.24      0.00
    4   -6    6     -0.11      0.00
    5   -6    6     -0.24      0.00
    6   -6    6     -0.46      0.00
    7   -6    6     -0.34      0.00
    8   -6    6      0.07      0.00
   -6   -5    6      0.07      0.00
   -5   -5    6      0.38      0.00
   -4   -5    6      0.64      0.00
   -3   -5    6      0.57      0.00
   -2   -5    6      0.13      0.00
   -1   -5    6     -0.23      0.00
    0   -5    6     -0.16      0.00
    1   -5    6     -0.40      0.00
    2   -5    6     -0.83      0.00
    3   -5    6     -0.83      0.00
    4   -5    6     -0.73      0.00
    5   -5    6     -0.60      0.00
    6   -5    6     -0.26      0.00
    7   -5    6      0.15      0.00
    8   -5    6      0.10      0.00
   -7   -4    6      0.52      0.00
   -6   -4    6      0.81      0.00
   -5   -4    6      0.11      0.00
   -4   -4    6     -0.79      0.00
   -3   -4    6     -1.19      0.00
   -2   -4    6     -0.84      0.00
   -1   -4    6      0.11      0.00
    0   -4    6      0.51      0.00
    1   -4    6     -0.06      0.00
    2   -4    6     -0.62      0.00
    3   -4    6     -0.44      0.00
    4   -4    6      0.08      0.00
    5   -4    6      0.33      0.00
    6   -4    6      0.19      0.00
    7   -4    6     -0.27      0.00
    8   -4    6     -0.21      0.00
    9   -4    6      0.30      0.00
   10   -4    6      0.20      0.00
   -6   -3    6     -0.47      0.00
   -5   -3    6     -0.26      0.00
   -4   -3    6     -0.26      0.00
   -3   -3    6     -0.19      0.00
   -2   -3    6      0.38      0.00
   -1   -3    6      0.76      0.00
    0   -3    6      0.46      0.00
    1   -3    6      0.10      0.00
    2   -3    6      0.16      0.00
    3   -3    6      0.23      0.00
    4   -3    6      0.25      0.00
    5   -3    6      0.36      0.00
    6   -3    6      0.14      0.00
    7   -3    6      0.14      0.00
    8   -3    6      0.45      0.00
    9   -3    6      0.25      0.00
   10   -3    6      0.11      0.00
   -8   -2    6      0.72      0.00
   -7   -2    6     -0.27      0.00
   -6   -2    6     -0.54      0.00
   -5   -2    6     -0.54      0.00
   -4   -2    6     -0.32      0.00
   -3   -2    6      0.23      0.00
   -2   -2    6      0.75      0.00
   -1   -2    6      0.85      0.00
    0   -2    6      0.31      0.00
    1   -2    6     -0.48      0.00
    2   -2    6     -0.77      0.00
    3   -2    6     -0.27      0.00
    4   -2    6      0.23      0.00
    5   -2    6     -0.04      0.00
    6   -2    6     -0.14      0.00
    7   -2    6      0.46      0.00
    8   -2    6      0.61      0.00
    9   -2    6      0.30      0.00
   10   -2    6      0.11      0.00
   11   -2    6     -0.43      0.00
   -8   -1    6     -0.23      0.00
   -7   -1    6      0.10      0.00
   -6   -1    6      0.40      0.00
   -5   -1    6      0.44      0.00
   -4   -1    6      0.21      0.00
   -3   -1    6      0.21      0.00
   -2   -1    6      0.24      0.00
   -1   -1    6     -0.16      0.00
    0   -1    6     -0.17      0.00
    1   -1    6      0.58      0.00
    2   -1    6      0.82      0.00
    3   -1    6      0.01      0.00
    4   -1    6     -0.69      0.00
    5   -1    6     -0.49      0.00
    6   -1    6      0.11      0.00
    7   -1    6      0.12      0.00
    8   -1    6     -0.24      0.00
    9   -1    6     -0.14      0.00
   10   -1    6      0.04      0.00
   11   -1    6     -0.26      0.00
   -8    0    6     -0.64      0.00
   -7    0    6     -0.17      0.00
   -6    0    6      0.17      0.00
   -5    0    6      0.18      0.00
   -4    0    6      0.77      0.00
   -3    0    6      1.20      0.00
   -2    0    6      0.92      0.00
   -1    0    6      0.79      0.00
    0    0    6      0.76      0.00
    1    0    6      0.45      0.00
    2    0    6      0.63      0.00
    3    0    6      1.36      0.00
    4    0    6      1.26      0.00
    5    0    6      0.63      0.00
    6    0    6      0.37      0.00
    7    0    6      0.02      0.00
    8    0    6     -0.27      0.00
    9    0    6     -0.14      0.00
   10    0    6     -0.20      0.00
   11    0    6     -0.32      0.00
   -8    1    6     -0.43      0.00
   -7    1    6     -0.48      0.00
   -6    1    6     -0.68      0.00
   -5    1    6     -0.12      0.00
   -4    1    6      0.06      0.00
   -3    1    6     -0.20      0.00
   -2    1    6      0.07      0.00
   -1    1    6      0.42      0.00
    0    1    6      0.64      0.00
    1    1    6      0.85      0.00
    2    1    6      0.62      0.00
    3    1    6     -0.24      0.00
    4    1    6     -0.67      0.00
    5    1    6     -0.33      0.00
    6    1    6     -0.34      0.00
    7    1    6     -0.54      0.00
    8    1    6     -0.20      0.00
    9    1    6      0.00      0.00
   10    1    6     -0.06      0.00
   11    1    6      0.23      0.00
   -8    2    6      0.64      0.00
   -7    2    6      0.27      0.00
   -6    2    6      0.45      0.00
   -5    2    6      0.28      0.00
   -4    2    6     -0.18      0.00
   -3    2    6     -0.52      0.00
   -2    2    6     -1.16      0.00
   -1    2    6     -1.33      0.00
    0    2    6     -0.37      0.00
    1    2    6      0.94      0.00
    2    2    6      1.37      0.00
    3    2    6      0.70      0.00
    4    2    6     -0.04      0.00
    5    2    6     -0.50      0.00
    6    2    6     -0.77      0.00
    7    2    6     -0.48      0.00
    8    2    6     -0.07      0.00
    9    2    6     -0.12      0.00
   10    2    6     -0.10      0.00
   11    2    6     -0.03      0.00
   -8    3    6      0.03      0.00
   -7    3    6      0.32      0.00
   -6    3    6      0.15      0.00
   -5    3    6     -0.30      0.00
   -4    3    6     -0.40      0.00
   -3    3    6     -0.29      0.00
   -2    3    6     -0.15      0.00
   -1    3    6      0.16      0.00
    0    3    6      0.69      0.00
    1    3    6      1.14      0.00
    2    3    6      1.12      0.00
    3    3    6      0.93      0.00
    4    3    6      0.52      0.00
    5    3    6     -0.12      0.00
    6    3    6     -0.24      0.00
    7    3    6      0.04      0.00
    8    3    6      0.19      0.00
    9    3    6      0.52      0.00
   10    3    6      0.57      0.00
   11    3    6      0.06      0.00
   -8    4    6     -0.13      0.00
   -7    4    6      0.18      0.00
   -6    4    6     -0.04      0.00
   -5    4    6     -0.19      0.00
   -4    4    6      0.03      0.00
   -3    4    6      0.20      0.00
   -2    4    6      0.46      0.00
   -1    4    6      0.58      0.00
    0    4    6      0.19      0.00
    1    4    6      0.05      0.00
    2    4    6      0.76      0.00
    3    4    6      1.31      0.00
    4    4    6      0.89      0.00
    5    4    6      0.04      0.00
    6    4    6     -0.30      0.00
    7    4    6      0.10      0.00
    8    4    6      0.36      0.00
    9    4    6     -0.02      0.00
   10    4    6      0.01      0.00
   11    4    6      0.68      0.00
   -8    5    6      0.49      0.00
   -7    5    6     -0.05      0.00
   -6    5    6     -0.43      0.00
   -5    5    6     -0.21      0.00
   -4    5    6      0.14      0.00
   -3    5    6      0.42      0.00
   -2    5    6      0.00      0.00
   -1    5    6     -0.96      0.00
    0    5    6     -1.17      0.00
    1    5    6     -0.96      0.00
    2    5    6     -1.16      0.00
    4    5    6      0.22      0.00
    5    5    6      0.66      0.00
    6    5    6      0.41      0.00
    7    5    6     -0.29      0.00
    8    5    6     -0.52      0.00
    9    5    6     -0.06      0.00
   10    5    6     -0.40      0.00
   11    5    6     -1.29      0.00
   -8    6    6     -0.05      0.00
   -7    6    6     -0.27      0.00
   -6    6    6     -0.22      0.00
   -5    6    6      0.01      0.00
   -4    6    6      0.08      0.00
   -3    6    6      0.00      0.00
   -2    6    6      0.29      0.00
   -1    6    6      0.75      0.00
    0    6    6     -0.08      0.00
    1    6    6     -1.73      0.00
    2    6    6     -1.69      0.00
    3    6    6     -0.42      0.00
    4    6    6      0.25      0.00
    5    6    6      0.39      0.00
    6    6    6      0.05      0.00
    7    6    6     -0.24      0.00
    8    6    6     -0.19      0.00
    9    6    6     -0.22      0.00
   10    6    6      0.28      0.00
   -7    7    6     -1.35      0.00
   -6    7    6     -0.18      0.00
   -5    7    6      0.33      0.00
   -4    7    6      0.12      0.00
   -3    7    6      0.06      0.00
   -2    7    6      0.39      0.00
   -1    7    6      0.41      0.00
    0    7    6     -0.15      0.00
    1    7    6     -0.46      0.00
    2    7    6     -0.38      0.00
    3    7    6     -0.21      0.00
    4    7    6      0.04      0.00
    5    7    6     -0.20      0.00
    6    7    6     -0.76      0.00
    7    7    6     -0.93      0.00
    8    7    6     -0.47      0.00
    9    7    6      0.36      0.00
   10    7    6      0.51      0.00
   -6    8    6      0.14      0.00
   -5    8    6      0.21      0.00
   -4    8    6      0.41      0.00
   -3    8    6      0.46      0.00
   -2    8    6      0.47      0.00
   -1    8    6      0.23      0.00
    0    8    6     -0.03      0.00
    1    8    6      0.15      0.00
    2    8    6      0.35      0.00
    3    8    6      0.10      0.00
    4    8    6     -0.42      0.00
    5    8    6     -0.82      0.00
    6    8    6     -0.73      0.00
    7    8    6     -0.24      0.00
    8    8    6     -0.11      0.00
    9    8    6     -0.15      0.00
   -6    9    6      0.65      0.00
   -5    9    6      0.19      0.00
   -4    9    6     -0.04      0.00
   -3    9    6      0.39      0.00
   -2    9    6      0.50      0.00
   -1    9    6      0.12      0.00
    0    9    6      0.36      0.00
    1    9    6      0.85      0.00
    2    9    6      0.51      0.00
    3    9    6     -0.18      0.00
    4    9    6     -0.41      0.00
    5    9    6     -0.02      0.00
    6    9    6      0.37      0.00
    7    9    6      0.09      0.00
    8    9    6      0.30      0.00
   -5   10    6     -1.52      0.00
   -4   10    6     -0.45      0.00
   -3   10    6     -0.08      0.00
   -2   10    6     -0.46      0.00
   -1   10    6     -0.80      0.00
    0   10    6     -1.29      0.00
    1   10    6     -1.78      0.00
    2   10    6     -1.33      0.00
    3   10    6     -0.34      0.00
    4   10    6      0.27      0.00
    5   10    6      0.41      0.00
    6   10    6      0.29      0.00
    7   10    6      0.63      0.00
   -3   11    6     -0.72      0.00
   -2   11    6     -0.12      0.00
   -1   11    6     -0.14      0.00
    0   11    6     -0.42      0.00
    1   11    6     -0.49      0.00
    2   11    6     -0.46      0.00
    3   11    6     -0.01      0.00
    4   11    6      0.54      0.00
    5   11    6      0.24      0.00
    6   11    6     -0.36      0.00
    0   12    6      0.72      0.00
    1   12    6      0.86      0.00
    2   12    6      1.04      0.00
    3   12    6      1.15      0.00
    1   -8    7     -0.15      0.00
    2   -8    7      0.48      0.00
   -2   -7    7     -0.14      0.00
   -1   -7    7      0.45      0.00
    0   -7    7      0.68      0.00
    1   -7    7      0.23      0.00
    2   -7    7      0.13      0.00
    3   -7    7      0.17      0.00
    4   -7    7      0.01      0.00
    5   -7    7     -0.05      0.00
    6   -7    7      0.38      0.00
   -4   -6    7     -1.27      0.00
   -3   -6    7     -0.77      0.00
   -2   -6    7     -0.10      0.00
   -1   -6    7      0.29      0.00
    0   -6    7      0.19      0.00
    1   -6    7      0.22      0.00
    2   -6    7      0.19      0.00
    3   -6    7      0.47      0.00
    4   -6    7      0.97      0.00
    5   -6    7      0.60      0.00
    6   -6    7     -0.24      0.00
    7   -6    7     -0.37      0.00
   -5   -5    7     -0.07      0.00
   -4   -5    7     -0.19      0.00
   -3   -5    7      0.11      0.00
   -2   -5    7      0.50      0.00
   -1   -5    7      0.51      0.00
    0   -5    7      0.45      0.00
    1   -5    7      0.07      0.00
    2   -5    7     -0.14      0.00
    3   -5    7      0.26      0.00
    4   -5    7      0.33      0.00
    5   -5    7      0.00      0.00
    6   -5    7     -0.23      0.00
    7   -5    7     -0.49      0.00
    8   -5    7     -0.80      0.00
   -6   -4    7      0.39      0.00
   -5   -4    7      0.44      0.00
   -4   -4    7      0.52      0.00
   -3   -4    7      0.63      0.00
   -2   -4    7      0.49      0.00
   -1   -4    7      0.21      0.00
    0   -4    7     -0.32      0.00
    1   -4    7     -0.52      0.00
    2   -4    7     -0.05      0.00
    3   -4    7      0.03      0.00
    4   -4    7     -0.30      0.00
    5   -4    7     -0.19      0.00
    6   -4    7      0.19      0.00
    7   -4    7      0.20      0.00
    8   -4    7     -0.08      0.00
   -6   -3    7      0.51      0.00
   -5   -3    7     -0.05      0.00
   -4   -3    7     -0.03      0.00
   -3   -3    7      0.02      0.00
   -2   -3    7     -0.16      0.00
   -1   -3    7     -0.78      0.00
    0   -3    7     -1.24      0.00
    1   -3    7     -0.84      0.00
    2   -3    7     -0.25      0.00
    3   -3    7     -0.10      0.00
    4   -3    7     -0.09      0.00
    5   -3    7      0.07      0.00
    6   -3    7      0.26      0.00
    7   -3    7      0.54      0.00
    8   -3    7      0.65      0.00
    9   -3    7      0.04      0.00
   10   -3    7     -0.42      0.00
   -7   -2    7     -0.46      0.00
   -6   -2    7     -0.31      0.00
   -5   -2    7     -0.17      0.00
   -4   -2    7     -0.13      0.00
   -3   -2    7     -0.01      0.00
   -2   -2    7     -0.27      0.00
   -1   -2    7     -0.67      0.00
    0   -2    7     -0.65      0.00
    1   -2    7     -0.43      0.00
    2   -2    7     -0.33      0.00
    3   -2    7     -0.23      0.00
    4   -2    7     -0.13      0.00
    5   -2    7     -0.20      0.00
    6   -2    7     -0.02      0.00
    7   -2    7      0.15      0.00
    8   -2    7     -0.46      0.00
    9   -2    7     -0.46      0.00
   10   -2    7      0.35      0.00
   -7   -1    7      0.04      0.00
   -6   -1    7      0.34      0.00
   -5   -1    7     -0.18      0.00
   -4   -1    7     -0.63      0.00
   -3   -1    7     -0.58      0.00
   -2   -1    7     -0.18      0.00
   -1   -1    7     -0.19      0.00
    0   -1    7     -0.45      0.00
    1   -1    7     -0.25      0.00
    2   -1    7      0.11      0.00
    3   -1    7      0.16      0.00
    4   -1    7      0.16      0.00
    5   -1    7      0.41      0.00
    6   -1    7      0.21      0.00
    7   -1    7     -0.58      0.00
    8   -1    7     -0.32      0.00
    9   -1    7      0.44      0.00
   10   -1    7      0.18      0.00
   11   -1    7     -0.08      0.00
   -8    0    7      0.87      0.00
   -7    0    7      0.59      0.00
   -6    0    7      0.15      0.00
   -5    0    7     -0.10      0.00
   -4    0    7     -0.23      0.00
   -3    0    7     -0.62      0.00
   -2    0    7     -0.83      0.00
   -1    0    7      0.24      0.00
    0    0    7      1.34      0.00
    1    0    7      0.57      0.00
    2    0    7     -0.71      0.00
    3    0    7     -0.36      0.00
    4    0    7      0.75      0.00
    5    0    7      0.95      0.00
    6    0    7      0.48      0.00
    7    0    7      0.40      0.00
    8    0    7      0.45      0.00
    9    0    7      0.33      0.00
   10    0    7      0.37      0.00
   11    0    7      0.30      0.00
   -8    1    7      0.55      0.00
   -7    1    7     -0.01      0.00
   -6    1    7     -0.49      0.00
   -5    1    7      0.04      0.00
   -4    1    7      0.54      0.00
   -3    1    7      0.60      0.00
   -2    1    7      0.67      0.00
   -1    1    7      0.09      0.00
    0    1    7     -0.50      0.00
    1    1    7      0.21      0.00
    2    1    7      1.14      0.00
    3    1    7      0.75      0.00
    4    1    7     -0.11      0.00
    5    1    7     -0.19      0.00
    6    1    7     -0.03      0.00
    7    1    7      0.08      0.00
    8    1    7      0.48      0.00
    9    1    7      0.56      0.00
   10    1    7      0.11      0.00
   11    1    7     -0.19      0.00
   -8    2    7     -0.56      0.00
   -7    2    7     -0.29      0.00
   -6    2    7      0.45      0.00
   -5    2    7      0.13      0.00
   -4    2    7     -0.37      0.00
   -3    2    7      0.11      0.00
   -2    2    7      0.58      0.00
   -1    2    7      0.77      0.00
    0    2    7      0.63      0.00
    1    2    7      0.04      0.00
    2    2    7     -0.39      0.00
    3    2    7     -0.28      0.00
    4    2    7      0.18      0.00
    5    2    7      0.26      0.00
    6    2    7      0.27      0.00
    7    2    7      0.71      0.00
    8    2    7      0.62      0.00
    9    2    7     -0.19      0.00
   10    2    7     -0.65      0.00
   11    2    7     -0.52      0.00
   -8    3    7      0.17      0.00
   -7    3    7      0.18      0.00
   -6    3    7     -0.12      0.00
   -5    3    7     -0.33      0.00
   -4    3    7     -0.39      0.00
   -3    3    7     -0.77      0.00
   -2    3    7     -0.75      0.00
   -1    3    7     -0.13      0.00
    0    3    7      0.24      0.00
    1    3    7     -0.26      0.00
    2    3    7     -0.91      0.00
    3    3    7     -0.38      0.00
    4    3    7      0.36      0.00
    5    3    7      0.61      0.00
    6    3    7      1.17      0.00
    7    3    7      1.29      0.00
    8    3    7      0.39      0.00
    9    3    7     -0.19      0.00
   10    3    7     -0.05      0.00
   11    3    7     -0.01      0.00
   -8    4    7     -0.22      0.00
   -7    4    7     -0.21      0.00
   -6    4    7     -0.04      0.00
   -5    4    7      0.58      0.00
   -4    4    7      1.03      0.00
   -3    4    7      0.72      0.00
   -2    4    7      0.14      0.00
   -1    4    7     -0.22      0.00
    0    4    7     -0.58      0.00
    1    4    7     -0.75      0.00
    2    4    7     -0.78      0.00
    3    4    7     -1.38      0.00
    4    4    7     -1.25      0.00
    5    4    7      0.13      0.00
    6    4    7      0.42      0.00
    7    4    7     -0.55      0.00
    8    4    7     -0.62      0.00
    9    4    7      0.16      0.00
   10    4    7      0.50      0.00
   11    4    7      0.41      0.00
   -7    5    7      0.22      0.00
   -6    5    7      0.10      0.00
   -5    5    7      0.55      0.00
   -4    5    7      0.55      0.00
   -3    5    7      0.30      0.00
   -2    5    7      0.10      0.00
   -1    5    7     -0.15      0.00
    0    5    7      0.24      0.00
    1    5    7      0.55      0.00
    2    5    7     -0.21      0.00
    3    5    7     -0.66      0.00
    4    5    7     -0.56      0.00
    5    5    7     -0.72      0.00
    6    5    7     -0.44      0.00
    7    5    7     -0.02      0.00
    8    5    7     -0.35      0.00
    9    5    7     -0.69      0.00
   10    5    7     -0.43      0.00
   11    5    7     -0.14      0.00
   -7    6    7     -0.04      0.00
   -6    6    7      0.23      0.00
   -5    6    7     -0.18      0.00
   -4    6    7     -0.70      0.00
   -2    6    7     -0.44      0.00
   -1    6    7      0.28      0.00
    0    6    7      0.73      0.00
    1    6    7      0.65      0.00
    4    6    7     -0.59      0.00
    5    6    7     -0.57      0.00
    6    6    7     -0.15      0.00
    7    6    7      0.06      0.00
    8    6    7      0.24      0.00
    9    6    7     -0.15      0.00
   10    6    7     -0.56      0.00
   -7    7    7      0.02      0.00
   -6    7    7      0.24      0.00
   -5    7    7     -0.13      0.00
   -4    7    7     -0.30      0.00
   -3    7    7     -0.28      0.00
   -2    7    7     -0.17      0.00
   -1    7    7     -0.36      0.00
    0    7    7     -0.65      0.00
    1    7    7     -0.18      0.00
    2    7    7      0.49      0.00
    3    7    7      0.64      0.00
    4    7    7      0.42      0.00
    5    7    7     -0.09      0.00
    6    7    7     -0.08      0.00
    7    7    7      0.41      0.00
    8    7    7      0.27      0.00
    9    7    7      0.09      0.00
   10    7    7      0.08      0.00
   -6    8    7      0.25      0.00
   -5    8    7     -0.31      0.00
   -4    8    7     -0.15      0.00
   -3    8    7      0.15      0.00
   -2    8    7     -0.23      0.00
   -1    8    7     -1.23      0.00
    0    8    7     -1.41      0.00
    1    8    7     -0.41      0.00
    2    8    7      0.34      0.00
    3    8    7      0.46      0.00
    4    8    7      0.47      0.00
    5    8    7      0.47      0.00
    6    8    7      0.37      0.00
    7    8    7      0.19      0.00
    8    8    7      0.01      0.00
    9    8    7     -0.61      0.00
   -5    9    7      0.40      0.00
   -4    9    7      0.47      0.00
   -3    9    7      0.17      0.00
   -2    9    7     -0.22      0.00
   -1    9    7     -0.16      0.00
    0    9    7      0.28      0.00
    1    9    7      0.21      0.00
    2    9    7     -0.10      0.00
    3    9    7     -0.08      0.00
    4    9    7     -0.09      0.00
    5    9    7     -0.03      0.00
    6    9    7      0.12      0.00
    7    9    7      0.11      0.00
    8    9    7      0.28      0.00
   -4   10    7      0.02      0.00
   -3   10    7     -0.22      0.00
   -2   10    7     -0.12      0.00
   -1   10    7      0.58      0.00
    0   10    7      0.86      0.00
    1   10    7      0.56      0.00
    2   10    7      0.45      0.00
    3   10    7      0.34      0.00
    4   10    7     -0.01      0.00
    5   10    7     -0.29      0.00
    6   10    7     -0.19      0.00
    7   10    7      0.23      0.00
   -3   11    7      0.87      0.00
   -2   11    7      0.74      0.00
   -1   11    7      0.17      0.00
    0   11    7      0.31      0.00
    1   11    7      0.92      0.00
    2   11    7      0.73      0.00
    3   11    7      0.17      0.00
    4   11    7      0.16      0.00
    5   11    7      0.21      0.00
    6   11    7     -0.08      0.00
    0   12    7      0.61      0.00
    1   12    7      0.33      0.00
    2   12    7      0.32      0.00
    0   -7    8      0.78      0.00
    1   -7    8      0.33      0.00
    2   -7    8     -0.06      0.00
    3   -7    8      0.04      0.00
    4   -7    8      0.51      0.00
   -2   -6    8      0.51      0.00
   -1   -6    8     -0.05      0.00
    0   -6    8     -0.40      0.00
    1   -6    8     -0.16      0.00
    2   -6    8     -0.13      0.00
    3   -6    8     -0.04      0.00
    4   -6    8      0.20      0.00
    5   -6    8      0.02      0.00
    6   -6    8      0.27      0.00
   -4   -5    8      0.33      0.00
   -3   -5    8     -0.45      0.00
   -2   -5    8     -0.70      0.00
   -1   -5    8     -0.97      0.00
    0   -5    8     -0.70      0.00
    1   -5    8     -0.18      0.00
    2   -5    8      0.40      0.00
    3   -5    8      0.46      0.00
    4   -5    8     -0.37      0.00
    5   -5    8     -0.51      0.00
    6   -5    8      0.17      0.00
    7   -5    8      0.33      0.00
    8   -5    8      0.07      0.00
   -5   -4    8     -0.48      0.00
   -4   -4    8      0.12      0.00
   -3   -4    8      0.78      0.00
   -2   -4    8      0.50      0.00
   -1   -4    8      0.30      0.00
    0   -4    8      0.29      0.00
    1   -4    8      0.54      0.00
    2   -4    8      0.67      0.00
    3   -4    8      0.07      0.00
    4   -4    8     -0.14      0.00
    5   -4    8      0.30      0.00
    6   -4    8      0.27      0.00
    7   -4    8     -0.03      0.00
    8   -4    8      0.21      0.00
   -5   -3    8     -1.19      0.00
   -4   -3    8     -0.35      0.00
   -3   -3    8      0.23      0.00
   -2   -3    8      0.63      0.00
   -1   -3    8      0.64      0.00
    0   -3    8      0.60      0.00
    1   -3    8      0.53      0.00
    2   -3    8      0.24      0.00
    3   -3    8      0.32      0.00
    4   -3    8      0.58      0.00
    5   -3    8      0.18      0.00
    6   -3    8     -0.48      0.00
    7   -3    8     -0.91      0.00
    8   -3    8     -1.33      0.00
    9   -3    8     -1.70      0.00
   -6   -2    8      0.57      0.00
   -5   -2    8      0.57      0.00
   -4   -2    8      0.22      0.00
   -3   -2    8     -0.24      0.00
   -2   -2    8     -0.55      0.00
   -1   -2    8     -0.35      0.00
    0   -2    8      0.00      0.00
    1   -2    8      0.05      0.00
    2   -2    8     -0.06      0.00
    3   -2    8     -0.04      0.00
    4   -2    8      0.08      0.00
    5   -2    8     -0.02      0.00
    6   -2    8     -0.49      0.00
    7   -2    8     -0.75      0.00
    8   -2    8     -0.16      0.00
    9   -2    8      1.06      0.00
   10   -2    8      1.71      0.00
   -7   -1    8      0.07      0.00
   -6   -1    8      0.03      0.00
   -5   -1    8      0.35      0.00
   -4   -1    8      0.84      0.00
   -3   -1    8      0.82      0.00
   -2   -1    8      0.32      0.00
   -1   -1    8     -0.26      0.00
    0   -1    8     -0.35      0.00
    1   -1    8     -0.02      0.00
    2   -1    8      0.05      0.00
    3   -1    8     -0.17      0.00
    4   -1    8     -0.42      0.00
    5   -1    8     -0.61      0.00
    6   -1    8     -0.47      0.00
    7   -1    8     -0.07      0.00
    8   -1    8      0.15      0.00
    9   -1    8     -0.45      0.00
   10   -1    8     -1.36      0.00
   -7    0    8     -0.50      0.00
   -6    0    8     -0.56      0.00
   -5    0    8     -0.35      0.00
   -4    0    8     -0.03      0.00
   -3    0    8      0.19      0.00
   -2    0    8      0.01      0.00
   -1    0    8     -0.40      0.00
    0    0    8     -0.95      0.00
    1    0    8     -1.40      0.00
    2    0    8     -0.95      0.00
    3    0    8     -0.32      0.00
    4    0    8     -0.67      0.00
    5    0    8     -1.03      0.00
    6    0    8     -0.57      0.00
    7    0    8      0.07      0.00
    8    0    8      0.14      0.00
    9    0    8     -0.24      0.00
   10    0    8     -0.41      0.00
   11    0    8     -0.58      0.00
   -7    1    8      0.18      0.00
   -6    1    8      0.09      0.00
   -5    1    8     -0.01      0.00
   -4    1    8     -0.39      0.00
   -3    1    8     -0.71      0.00
   -2    1    8     -0.50      0.00
   -1    1    8     -0.49      0.00
    0    1    8     -0.92      0.00
    1    1    8     -0.95      0.00
    2    1    8     -0.88      0.00
    3    1    8     -1.10      0.00
    4    1    8     -0.81      0.00
    5    1    8     -0.25      0.00
    6    1    8     -0.05      0.00
    7    1    8      0.05      0.00
    8    1    8     -0.15      0.00
    9    1    8     -0.55      0.00
   10    1    8     -0.30      0.00
   11    1    8      0.74      0.00
   -7    2    8     -0.53      0.00
   -6    2    8      0.34      0.00
   -5    2    8      0.48      0.00
   -4    2    8      0.29      0.00
   -3    2    8      0.43      0.00
   -2    2    8      0.28      0.00
   -1    2    8      0.16      0.00
    0    2    8      0.51      0.00
    1    2    8      0.55      0.00
    2    2    8      0.17      0.00
    3    2    8      0.01      0.00
    4    2    8     -0.01      0.00
    5    2    8     -0.16      0.00
    6    2    8     -0.29      0.00
    7    2    8     -0.71      0.00
    8    2    8     -1.12      0.00
    9    2    8     -0.68      0.00
   10    2    8      0.17      0.00
   11    2    8      0.24      0.00
   -7    3    8     -0.02      0.00
   -6    3    8     -0.43      0.00
   -5    3    8     -0.64      0.00
   -4    3    8     -0.06      0.00
   -3    3    8      0.42      0.00
   -2    3    8      0.82      0.00
   -1    3    8      1.12      0.00
    0    3    8      0.82      0.00
    1    3    8      0.38      0.00
    2    3    8      0.17      0.00
    3    3    8      0.14      0.00
    4    3    8     -0.03      0.00
    5    3    8     -0.28      0.00
    6    3    8     -0.37      0.00
    7    3    8     -0.47      0.00
    8    3    8     -0.44      0.00
    9    3    8     -0.07      0.00
   10    3    8      0.23      0.00
   11    3    8      0.29      0.00
   -7    4    8      0.29      0.00
   -6    4    8     -0.47      0.00
   -5    4    8     -0.74      0.00
   -4    4    8     -0.86      0.00
   -3    4    8     -0.81      0.00
   -2    4    8     -0.36      0.00
   -1    4    8     -0.05      0.00
    0    4    8     -0.05      0.00
    1    4    8      0.03      0.00
    2    4    8      0.26      0.00
    3    4    8     -0.07      0.00
    4    4    8     -0.64      0.00
    5    4    8     -0.63      0.00
    6    4    8     -0.51      0.00
    7    4    8     -0.30      0.00
    8    4    8      0.34      0.00
    9    4    8      0.55      0.00
   10    4    8     -0.08      0.00
   11    4    8     -0.61      0.00
   -7    5    8     -0.87      0.00
   -6    5    8     -0.07      0.00
   -5    5    8      0.31      0.00
   -4    5    8     -0.24      0.00
   -3    5    8     -0.47      0.00
   -2    5    8     -0.47      0.00
    0    5    8     -0.91      0.00
    1    5    8     -0.30      0.00
    2    5    8      0.74      0.00
    3    5    8      2.27      0.00
    4    5    8      2.99      0.00
    5    5    8      1.55      0.00
    6    5    8     -0.12      0.00
    7    5    8     -0.16      0.00
    8    5    8      0.53      0.00
    9    5    8      0.57      0.00
   10    5    8      0.01      0.00
   11    5    8     -0.39      0.00
   -7    6    8      0.29      0.00
   -6    6    8      0.55      0.00
   -5    6    8     -0.14      0.00
   -4    6    8     -0.43      0.00
   -3    6    8      0.10      0.00
   -2    6    8      0.68      0.00
   -1    6    8      1.04      0.00
    0    6    8      0.64      0.00
    1    6    8     -0.30      0.00
    2    6    8     -0.43      0.00
    3    6    8     -0.13      0.00
    4    6    8      0.03      0.00
    5    6    8      0.62      0.00
    6    6    8      0.79      0.00
    7    6    8      0.19      0.00
    8    6    8     -0.09      0.00
    9    6    8      0.45      0.00
   10    6    8      1.41      0.00
   -6    7    8      0.23      0.00
   -5    7    8      0.74      0.00
   -1    7    8     -0.02      0.00
    0    7    8      0.33      0.00
    4    7    8      0.67      0.00
    5    7    8      0.10      0.00
    6    7    8     -0.67      0.00
    7    7    8     -0.83      0.00
    8    7    8     -0.48      0.00
    9    7    8      0.31      0.00
   10    7    8      0.60      0.00
   -4    8    8     -0.61      0.00
   -3    8    8     -0.62      0.00
   -2    8    8     -0.34      0.00
   -1    8    8     -0.20      0.00
    0    8    8      0.15      0.00
    1    8    8      0.23      0.00
    2    8    8     -0.59      0.00
    3    8    8     -1.27      0.00
    4    8    8     -1.07      0.00
    5    8    8     -0.47      0.00
    6    8    8     -0.06      0.00
    7    8    8      0.15      0.00
    8    8    8      0.44      0.00
    9    8    8      0.35      0.00
   -5    9    8     -0.37      0.00
   -4    9    8     -0.67      0.00
   -3    9    8     -0.79      0.00
   -2    9    8     -0.44      0.00
   -1    9    8      0.40      0.00
    0    9    8      0.81      0.00
    1    9    8      0.33      0.00
    2    9    8     -0.07      0.00
    3    9    8     -0.37      0.00
    4    9    8     -0.97      0.00
    5    9    8     -0.64      0.00
    6    9    8      0.50      0.00
   -4   10    8      0.33      0.00
   -3   10    8      0.27      0.00
   -2   10    8     -0.05      0.00
   -1   10    8     -0.18      0.00
    0   10    8     -0.06      0.00
    1   10    8      0.08      0.00
    2   10    8     -0.07      0.00
    3   10    8     -0.33      0.00
    4   10    8      0.09      0.00
    5   10    8      0.30      0.00
    6   10    8     -0.45      0.00
    7   10    8     -0.80      0.00
   -2   11    8     -0.05      0.00
   -1   11    8     -0.27      0.00
    0   11    8     -0.57      0.00
    1   11    8     -0.65      0.00
    2   11    8     -0.64      0.00
    3   11    8     -0.18      0.00
    4   11    8      0.42      0.00
    5   11    8      0.55      0.00
    6   11    8      0.44      0.00
    1   12    8     -1.40      0.00
    2   12    8     -1.38      0.00
    0   -6    9      0.33      0.00
    1   -6    9     -0.19      0.00
    2   -6    9     -0.77      0.00
    3   -6    9     -0.36      0.00
    4   -6    9      0.06      0.00
    5   -6    9     -0.60      0.00
   -2   -5    9     -0.07      0.00
   -1   -5    9     -0.35      0.00
    0   -5    9     -0.63      0.00
    1   -5    9     -0.48      0.00
    2   -5    9     -0.08      0.00
    3   -5    9     -0.17      0.00
    4   -5    9     -0.48      0.00
    5   -5    9      0.22      0.00
    6   -5    9      0.67      0.00
    7   -5    9     -0.24      0.00
   -4   -4    9      0.58      0.00
   -3   -4    9     -0.28      0.00
   -2   -4    9     -1.12      0.00
   -1   -4    9     -0.61      0.00
    0   -4    9      0.19      0.00
    1   -4    9      0.35      0.00
    2   -4    9      0.18      0.00
    3   -4    9      0.08      0.00
    4   -4    9      0.49      0.00
    5   -4    9      0.66      0.00
    6   -4    9      0.29      0.00
    7   -4    9      0.28      0.00
    8   -4    9      0.34      0.00
   -5   -3    9     -0.12      0.00
   -4   -3    9     -0.06      0.00
   -3   -3    9     -0.55      0.00
   -2   -3    9     -0.59      0.00
   -1   -3    9     -0.14      0.00
    0   -3    9      0.44      0.00
    1   -3    9      0.64      0.00
    2   -3    9      0.32      0.00
    3   -3    9      0.40      0.00
    4   -3    9      0.58      0.00
    5   -3    9      0.10      0.00
    6   -3    9     -0.13      0.00
    7   -3    9      0.57      0.00
   -5   -2    9      0.31      0.00
   -4   -2    9      0.12      0.00
   -3   -2    9     -0.05      0.00
   -2   -2    9      0.14      0.00
   -1   -2    9      0.32      0.00
    0   -2    9      0.35      0.00
    1   -2    9      0.53      0.00
    2   -2    9      0.69      0.00
    3   -2    9      0.19      0.00
    4   -2    9     -0.53      0.00
    5   -2    9     -0.49      0.00
    6   -2    9      0.21      0.00
    7   -2    9      0.70      0.00
    8   -2    9      0.53      0.00
    9   -2    9     -0.07      0.00
   -6   -1    9      1.02      0.00
   -5   -1    9      0.79      0.00
   -4   -1    9      0.47      0.00
   -3   -1    9      0.25      0.00
   -2   -1    9      0.25      0.00
   -1   -1    9      0.51      0.00
    0   -1    9      0.84      0.00
    1   -1    9      0.79      0.00
    2   -1    9      0.52      0.00
    3   -1    9      0.46      0.00
    4   -1    9      0.42      0.00
    5   -1    9      0.46      0.00
    6   -1    9      0.62      0.00
    7   -1    9      0.35      0.00
    8   -1    9     -0.21      0.00
    9   -1    9     -0.14      0.00
   10   -1    9      0.58      0.00
   -6    0    9     -0.12      0.00
   -5    0    9     -0.57      0.00
   -4    0    9     -0.63      0.00
   -3    0    9     -0.38      0.00
   -2    0    9     -0.03      0.00
   -1    0    9      0.52      0.00
    0    0    9      0.99      0.00
    1    0    9      1.04      0.00
    2    0    9      0.86      0.00
    3    0    9      0.48      0.00
    4    0    9      0.19      0.00
    5    0    9      0.28      0.00
    6    0    9      0.31      0.00
    7    0    9      0.18      0.00
    8    0    9      0.26      0.00
    9    0    9      0.37      0.00
   10    0    9      0.36      0.00
   -6    1    9     -0.21      0.00
   -5    1    9     -0.15      0.00
   -4    1    9     -0.40      0.00
   -3    1    9     -0.52      0.00
   -2    1    9     -0.35      0.00
   -1    1    9     -0.32      0.00
    0    1    9     -0.38      0.00
    1    1    9     -0.04      0.00
    2    1    9      0.24      0.00
    3    1    9      0.30      0.00
    4    1    9      0.66      0.00
    5    1    9      0.82      0.00
    6    1    9      0.30      0.00
    7    1    9     -0.15      0.00
    8    1    9     -0.30      0.00
    9    1    9      0.03      0.00
   10    1    9      0.70      0.00
   -6    2    9      0.81      0.00
   -5    2    9      0.47      0.00
   -4    2    9      0.22      0.00
   -3    2    9      0.00      0.00
   -2    2    9     -0.37      0.00
   -1    2    9     -0.51      0.00
    0    2    9     -0.29      0.00
    1    2    9     -0.13      0.00
    2    2    9      0.05      0.00
    3    2    9      0.51      0.00
    4    2    9      0.72      0.00
    5    2    9      0.47      0.00
    6    2    9      0.39      0.00
    7    2    9      0.31      0.00
    8    2    9      0.42      0.00
    9    2    9      0.59      0.00
   10    2    9     -0.13      0.00
   11    2    9     -1.20      0.00
   -6    3    9      0.32      0.00
   -5    3    9      0.15      0.00
   -4    3    9      0.75      0.00
   -3    3    9      0.91      0.00
   -2    3    9      0.39      0.00
   -1    3    9     -0.21      0.00
    0    3    9     -0.53      0.00
    1    3    9     -0.50      0.00
    2    3    9     -0.21      0.00
    3    3    9      0.10      0.00
    4    3    9      0.25      0.00
    5    3    9      0.31      0.00
    6    3    9      0.11      0.00
    7    3    9     -0.07      0.00
    8    3    9      0.07      0.00
    9    3    9      0.14      0.00
   10    3    9      0.12      0.00
   11    3    9      0.19      0.00
   -6    4    9     -0.33      0.00
   -5    4    9      0.73      0.00
   -4    4    9      0.82      0.00
   -3    4    9      0.36      0.00
   -2    4    9      0.16      0.00
   -1    4    9     -0.07      0.00
    0    4    9     -0.45      0.00
    1    4    9     -0.51      0.00
    2    4    9     -0.32      0.00
    3    4    9     -0.26      0.00
    4    4    9     -0.12      0.00
    5    4    9      0.21      0.00
    6    4    9      0.37      0.00
    7    4    9      0.16      0.00
    8    4    9     -0.25      0.00
    9    4    9     -0.45      0.00
   10    4    9     -0.18      0.00
   11    4    9      0.31      0.00
   -6    5    9      0.38      0.00
   -5    5    9      0.21      0.00
   -4    5    9     -0.31      0.00
   -3    5    9     -0.19      0.00
   -2    5    9     -0.05      0.00
   -1    5    9     -0.20      0.00
    0    5    9      0.14      0.00
    1    5    9      0.49      0.00
    2    5    9      0.02      0.00
    3    5    9     -0.77      0.00
    4    5    9     -1.21      0.00
    5    5    9     -1.10      0.00
    6    5    9     -0.37      0.00
    7    5    9      0.38      0.00
    8    5    9      0.20      0.00
    9    5    9     -0.60      0.00
   10    5    9     -0.66      0.00
   -6    6    9      0.32      0.00
   -5    6    9     -0.65      0.00
   -4    6    9     -0.16      0.00
   -3    6    9      0.39      0.00
   -2    6    9      0.01      0.00
   -1    6    9     -0.02      0.00
    0    6    9      0.14      0.00
    1    6    9     -0.04      0.00
    2    6    9     -0.32      0.00
    3    6    9     -0.99      0.00
    4    6    9     -1.69      0.00
    5    6    9     -1.27      0.00
    6    6    9     -0.08      0.00
    7    6    9      0.69      0.00
    8    6    9      0.65      0.00
    9    6    9     -0.05      0.00
   10    6    9     -1.02      0.00
   -5    7    9     -0.80      0.00
   -4    7    9     -0.30      0.00
   -3    7    9     -0.40      0.00
   -2    7    9     -0.18      0.00
   -1    7    9      0.11      0.00
    0    7    9      0.24      0.00
    1    7    9      0.36      0.00
    2    7    9     -0.02      0.00
    3    7    9     -0.55      0.00
    4    7    9     -0.50      0.00
    5    7    9     -0.37      0.00
    6    7    9     -0.17      0.00
    7    7    9      0.23      0.00
    8    7    9      0.20      0.00
    9    7    9     -0.02      0.00
   10    7    9     -0.27      0.00
   -5    8    9     -0.02      0.00
   -4    8    9     -0.58      0.00
   -3    8    9     -0.35      0.00
    3    8    9     -0.19      0.00
    4    8    9      0.25      0.00
    5    8    9      0.04      0.00
    6    8    9      0.01      0.00
    7    8    9      0.11      0.00
    8    8    9      0.16      0.00
    9    8    9     -0.39      0.00
   -2    9    9      0.94      0.00
   -1    9    9      0.71      0.00
    0    9    9      0.89      0.00
    1    9    9      1.03      0.00
    2    9    9      1.14      0.00
    4    9    9      0.07      0.00
    5    9    9      0.14      0.00
    6    9    9      0.52      0.00
    7    9    9      0.46      0.00
    8    9    9      0.32      0.00
   -3   10    9     -0.42      0.00
   -2   10    9     -0.32      0.00
   -1   10    9     -0.26      0.00
    0   10    9     -0.34      0.00
    1   10    9     -0.68      0.00
    2   10    9     -0.91      0.00
    3   10    9      0.13      0.00
    7   10    9     -0.69      0.00
   -1   11    9     -0.45      0.00
    0   11    9     -1.01      0.00
    1   11    9     -1.28      0.00
    2   11    9     -0.74      0.00
    4   11    9     -0.95      0.00
    5   11    9     -1.42      0.00
    0   -5   10      0.32      0.00
    1   -5   10      0.18      0.00
    2   -5   10      0.24      0.00
    3   -5   10     -0.16      0.00
    4   -5   10     -0.71      0.00
    5   -5   10     -0.84      0.00
   -2   -4   10      1.07      0.00
   -1   -4   10      1.56      0.00
    0   -4   10      1.13      0.00
    1   -4   10      0.03      0.00
    2   -4   10     -0.74      0.00
    3   -4   10     -0.97      0.00
    4   -4   10     -0.90      0.00
    5   -4   10     -0.71      0.00
    6   -4   10     -0.25      0.00
    7   -4   10      0.49      0.00
   -3   -3   10     -0.22      0.00
   -2   -3   10      0.39      0.00
   -1   -3   10     -0.15      0.00
    0   -3   10     -0.96      0.00
    1   -3   10     -1.19      0.00
    2   -3   10     -1.19      0.00
    3   -3   10     -0.79      0.00
    4   -3   10     -0.03      0.00
    5   -3   10      0.10      0.00
    6   -3   10     -0.34      0.00
    7   -3   10     -1.00      0.00
   -4   -2   10      0.37      0.00
   -3   -2   10     -0.32      0.00
   -2   -2   10     -0.19      0.00
   -1   -2   10     -0.25      0.00
    0   -2   10     -0.86      0.00
    1   -2   10     -1.28      0.00
    2   -2   10     -0.97      0.00
    3   -2   10     -0.58      0.00
    4   -2   10     -0.68      0.00
    5   -2   10     -0.40      0.00
    6   -2   10      0.22      0.00
    7   -2   10      0.30      0.00
    8   -2   10      0.34      0.00
    9   -2   10      0.91      0.00
   -5   -1   10     -0.65      0.00
   -4   -1   10     -0.70      0.00
   -3   -1   10     -0.04      0.00
   -2   -1   10      0.06      0.00
   -1   -1   10     -0.11      0.00
    0   -1   10     -0.10      0.00
    1   -1   10     -0.35      0.00
    2   -1   10     -0.64      0.00
    3   -1   10     -0.41      0.00
    4   -1   10      0.18      0.00
    5   -1   10      0.52      0.00
    6   -1   10      0.52      0.00
    7   -1   10      0.25      0.00
    8   -1   10     -0.48      0.00
    9   -1   10     -1.38      0.00
   -5    0   10     -1.00      0.00
   -4    0   10     -0.13      0.00
   -3    0   10     -0.01      0.00
   -2    0   10     -0.05      0.00
   -1    0   10      0.12      0.00
    0    0   10      0.11      0.00
    1    0   10     -0.11      0.00
    2    0   10     -0.19      0.00
    3    0   10     -0.13      0.00
    4    0   10      0.24      0.00
    5    0   10      0.51      0.00
    6    0   10     -0.06      0.00
    7    0   10     -0.56      0.00
    8    0   10      0.09      0.00
    9    0   10      0.73      0.00
   10    0   10      0.36      0.00
   -5    1   10      0.89      0.00
   -4    1   10      0.55      0.00
   -3    1   10      0.51      0.00
   -2    1   10      0.49      0.00
   -1    1   10      0.19      0.00
    0    1   10     -0.09      0.00
    1    1   10      0.05      0.00
    2    1   10      0.10      0.00
    3    1   10     -0.08      0.00
    4    1   10     -0.34      0.00
    5    1   10     -0.75      0.00
    6    1   10     -0.62      0.00
    7    1   10      0.09      0.00
    8    1   10      0.20      0.00
    9    1   10     -0.07      0.00
   10    1   10     -0.08      0.00
   -6    2   10     -1.19      0.00
   -5    2   10     -0.77      0.00
   -4    2   10      0.40      0.00
   -3    2   10      0.99      0.00
   -2    2   10      0.75      0.00
   -1    2   10      0.27      0.00
    0    2   10      0.12      0.00
    1    2   10      0.15      0.00
    2    2   10      0.14      0.00
    3    2   10     -0.08      0.00
    4    2   10     -0.62      0.00
    5    2   10     -0.75      0.00
    6    2   10     -0.34      0.00
    7    2   10     -0.27      0.00
    8    2   10     -0.27      0.00
    9    2   10     -0.14      0.00
   10    2   10     -0.31      0.00
   -6    3   10     -0.56      0.00
   -5    3   10     -0.68      0.00
   -4    3   10     -1.74      0.00
   -3    3   10     -2.36      0.00
   -2    3   10     -1.49      0.00
   -1    3   10     -0.02      0.00
    0    3   10      0.61      0.00
    1    3   10      0.25      0.00
    2    3   10     -0.24      0.00
    3    3   10     -0.36      0.00
    4    3   10     -0.38      0.00
    5    3   10     -0.50      0.00
    6    3   10     -0.39      0.00
    7    3   10      0.30      0.00
    8    3   10      0.79      0.00
    9    3   10      0.59      0.00
   10    3   10      0.70      0.00
   -6    4   10      0.28      0.00
   -5    4   10      0.04      0.00
   -4    4   10      0.10      0.00
   -3    4   10      0.28      0.00
   -2    4   10      0.07      0.00
   -1    4   10     -0.40      0.00
    0    4   10     -0.55      0.00
    1    4   10     -0.20      0.00
    2    4   10      0.25      0.00
    3    4   10      0.39      0.00
    4    4   10      0.34      0.00
    5    4   10      0.25      0.00
    6    4   10      0.03      0.00
    7    4   10     -0.08      0.00
    8    4   10      0.11      0.00
    9    4   10      0.19      0.00
   10    4   10     -0.46      0.00
   -5    5   10      0.55      0.00
   -4    5   10      0.00      0.00
   -3    5   10     -0.08      0.00
   -2    5   10      0.14      0.00
   -1    5   10      0.35      0.00
    0    5   10      0.71      0.00
    1    5   10      0.87      0.00
    2    5   10      0.55      0.00
    3    5   10      0.45      0.00
    4    5   10      0.79      0.00
    5    5   10      0.75      0.00
    6    5   10      0.02      0.00
    7    5   10     -0.80      0.00
    8    5   10     -0.96      0.00
    9    5   10     -0.48      0.00
   10    5   10      0.24      0.00
   -5    6   10     -0.64      0.00
   -4    6   10      0.01      0.00
   -3    6   10      0.25      0.00
   -2    6   10     -0.02      0.00
   -1    6   10      0.36      0.00
    0    6   10      0.44      0.00
    1    6   10     -0.21      0.00
    2    6   10     -0.35      0.00
    3    6   10      0.15      0.00
    4    6   10      0.55      0.00
    5    6   10      0.66      0.00
    6    6   10      0.24      0.00
    7    6   10     -0.68      0.00
    8    6   10     -1.12      0.00
    9    6   10     -0.07      0.00
   10    6   10      1.44      0.00
   -5    7   10      0.81      0.00
   -4    7   10      0.95      0.00
   -3    7   10      0.07      0.00
   -2    7   10     -0.39      0.00
   -1    7   10     -0.93      0.00
    0    7   10     -1.31      0.00
    1    7   10     -0.75      0.00
    2    7   10     -0.06      0.00
    3    7   10      0.51      0.00
    4    7   10      1.05      0.00
    5    7   10      0.92      0.00
    6    7   10      0.43      0.00
    7    7   10      0.19      0.00
    8    7   10     -0.04      0.00
    9    7   10     -0.50      0.00
   -4    8   10      0.44      0.00
   -3    8   10     -0.24      0.00
   -2    8   10     -0.73      0.00
   -1    8   10     -0.75      0.00
    0    8   10     -0.29      0.00
    1    8   10      0.19      0.00
    2    8   10      0.75      0.00
    3    8   10      1.01      0.00
    4    8   10      0.65      0.00
    5    8   10      0.48      0.00
    6    8   10      0.40      0.00
    7    8   10     -0.20      0.00
    8    8   10     -0.42      0.00
    9    8   10      0.05      0.00
   -3    9   10     -0.10      0.00
   -2    9   10      0.41      0.00
   -1    9   10      0.24      0.00
    0    9   10      0.35      0.00
    1    9   10      0.51      0.00
    2    9   10     -0.01      0.00
    3    9   10     -0.66      0.00
    4    9   10     -0.43      0.00
    5    9   10      0.28      0.00
    6    9   10      0.35      0.00
    7    9   10      0.01      0.00
    8    9   10     -0.35      0.00
    4   10   10     -0.36      0.00
    0   11   10     -0.07      0.00
    1   11   10      0.05      0.00
    2   11   10      0.94      0.00
    4   11   10     -0.34      0.00
    5   11   10     -1.49      0.00
    0   -4   11     -0.79      0.00
    1   -4   11      0.08      0.00
    2   -4   11      0.93      0.00
    3   -4   11      0.98      0.00
    4   -4   11      0.11      0.00
    5   -4   11     -0.17      0.00
   -2   -3   11      0.84      0.00
   -1   -3   11      0.51      0.00
    0   -3   11      0.43      0.00
    1   -3   11      1.08      0.00
    2   -3   11      1.04      0.00
    3   -3   11      0.67      0.00
    4   -3   11      0.83      0.00
    5   -3   11      0.39      0.00
    6   -3   11     -0.37      0.00
    7   -3   11     -0.02      0.00
   -3   -2   11      0.93      0.00
   -2   -2   11     -0.37      0.00
   -1   -2   11     -0.76      0.00
    0   -2   11     -0.15      0.00
    1   -2   11      0.18      0.00
    2   -2   11      0.45      0.00
    3   -2   11      0.75      0.00
    4   -2   11      0.21      0.00
    5   -2   11     -0.13      0.00
    6   -2   11      0.03      0.00
    7   -2   11     -0.43      0.00
   -3   -1   11     -0.57      0.00
   -2   -1   11     -0.18      0.00
   -1   -1   11      0.02      0.00
    0   -1   11      0.11      0.00
    1   -1   11      0.31      0.00
    2   -1   11      0.46      0.00
    3   -1   11      0.13      0.00
    4   -1   11     -0.07      0.00
    5   -1   11     -0.17      0.00
    6   -1   11     -0.60      0.00
    7   -1   11     -0.43      0.00
    8   -1   11      0.08      0.00
   -4    0   11     -0.02      0.00
   -3    0   11      0.38      0.00
   -2    0   11      0.27      0.00
   -1    0   11     -0.23      0.00
    0    0   11     -0.48      0.00
    1    0   11     -0.13      0.00
    2    0   11      0.24      0.00
    3    0   11      0.34      0.00
    4    0   11      0.14      0.00
    5    0   11     -0.39      0.00
    6    0   11     -0.66      0.00
    7    0   11     -0.60      0.00
    8    0   11     -0.33      0.00
    9    0   11     -0.13      0.00
   -4    1   11      0.73      0.00
   -3    1   11     -0.58      0.00
   -2    1   11     -0.46      0.00
   -1    1   11      0.47      0.00
    0    1   11      0.46      0.00
    1    1   11     -0.30      0.00
    2    1   11     -0.57      0.00
    3    1   11     -0.35      0.00
    4    1   11     -0.20      0.00
    5    1   11     -0.05      0.00
    6    1   11      0.31      0.00
    7    1   11      0.58      0.00
    8    1   11      0.25      0.00
    9    1   11      0.15      0.00
   -5    2   11      0.21      0.00
   -4    2   11      0.70      0.00
   -3    2   11      0.74      0.00
   -2    2   11      0.27      0.00
   -1    2   11     -0.21      0.00
    0    2   11      0.08      0.00
    1    2   11      0.55      0.00
    2    2   11      0.38      0.00
    3    2   11      0.27      0.00
    4    2   11      0.43      0.00
    5    2   11      0.41      0.00
    6    2   11      0.18      0.00
    7    2   11     -0.24      0.00
    8    2   11     -0.57      0.00
    9    2   11     -1.00      0.00
   10    2   11     -1.52      0.00
   -5    3   11      0.25      0.00
   -4    3   11     -0.24      0.00
   -3    3   11      0.03      0.00
   -2    3   11      0.15      0.00
   -1    3   11     -0.05      0.00
    0    3   11     -0.09      0.00
    1    3   11     -0.01      0.00
    2    3   11      0.13      0.00
    3    3   11     -0.09      0.00
    4    3   11     -0.28      0.00
    5    3   11      0.17      0.00
    6    3   11      0.46      0.00
    7    3   11      0.28      0.00
    8    3   11      0.01      0.00
    9    3   11     -0.17      0.00
   10    3   11     -0.21      0.00
   -5    4   11     -0.46      0.00
   -4    4   11      0.07      0.00
   -3    4   11      0.37      0.00
   -2    4   11      0.27      0.00
   -1    4   11     -0.10      0.00
    0    4   11     -0.45      0.00
    1    4   11     -0.15      0.00
    2    4   11      0.21      0.00
    3    4   11      0.04      0.00
    4    4   11     -0.15      0.00
    5    4   11      0.01      0.00
    6    4   11      0.36      0.00
    7    4   11      0.45      0.00
    8    4   11      0.32      0.00
    9    4   11      0.60      0.00
   10    4   11      1.09      0.00
   -4    5   11      0.46      0.00
   -3    5   11      0.37      0.00
   -2    5   11      0.20      0.00
   -1    5   11      0.17      0.00
    0    5   11      0.20      0.00
    1    5   11     -0.19      0.00
    2    5   11     -0.35      0.00
    3    5   11      0.17      0.00
    4    5   11      0.36      0.00
    5    5   11     -0.22      0.00
    6    5   11     -0.40      0.00
    7    5   11      0.31      0.00
    8    5   11      0.71      0.00
    9    5   11      0.09      0.00
   10    5   11     -0.53      0.00
   -4    6   11     -0.83      0.00
   -3    6   11     -0.04      0.00
   -2    6   11      0.40      0.00
   -1    6   11      0.58      0.00
    0    6   11      0.30      0.00
    1    6   11      0.14      0.00
    2    6   11      0.17      0.00
    3    6   11     -0.25      0.00
    4    6   11     -0.80      0.00
    5    6   11     -0.67      0.00
    6    6   11     -0.03      0.00
    7    6   11      0.59      0.00
    8    6   11      1.03      0.00
    9    6   11      0.94      0.00
   -4    7   11      0.60      0.00
   -3    7   11     -0.64      0.00
   -2    7   11     -0.50      0.00
   -1    7   11     -0.01      0.00
    0    7   11      0.17      0.00
    1    7   11      0.06      0.00
    2    7   11     -0.37      0.00
    3    7   11     -0.45      0.00
    4    7   11     -0.18      0.00
    5    7   11     -0.22      0.00
    6    7   11     -0.23      0.00
    7    7   11      0.09      0.00
    8    7   11      0.41      0.00
    9    7   11      0.53      0.00
   -3    8   11     -0.77      0.00
   -2    8   11      0.56      0.00
   -1    8   11      1.09      0.00
    0    8   11      1.09      0.00
    1    8   11      0.78      0.00
    2    8   11      0.40      0.00
    3    8   11     -0.49      0.00
    5    8   11     -1.31      0.00
    6    8   11     -0.67      0.00
    7    8   11     -0.40      0.00
    8    8   11     -0.06      0.00
   -2    9   11      0.35      0.00
   -1    9   11     -0.48      0.00
    0    9   11     -0.46      0.00
    1    9   11     -0.10      0.00
    2    9   11     -0.05      0.00
    3    9   11      0.24      0.00
    4    9   11      0.74      0.00
    5    9   11      0.06      0.00
    6    9   11     -1.10      0.00
    7    9   11     -0.95      0.00
   -1   10   11     -1.02      0.00
    0   10   11     -0.54      0.00
    1   10   11     -0.95      0.00
    2   10   11     -0.90      0.00
    3   10   11     -0.52      0.00
    4   10   11     -0.51      0.00
    5   10   11     -0.07      0.00
    6   10   11      1.14      0.00
    2   11   11      0.07      0.00
    1   -3   12     -0.72      0.00
    2   -3   12     -1.42      0.00
    3   -3   12     -0.70      0.00
    4   -3   12      1.29      0.00
   -1   -2   12      0.81      0.00
    0   -2   12      0.79      0.00
    1   -2   12      0.08      0.00
    2   -2   12      0.04      0.00
    3   -2   12     -0.09      0.00
    4   -2   12     -1.13      0.00
    5   -2   12     -0.67      0.00
    6   -2   12      1.09      0.00
   -2   -1   12      0.21      0.00
   -1   -1   12      0.59      0.00
    0   -1   12      0.48      0.00
    1   -1   12      0.35      0.00
    2   -1   12      0.02      0.00
    3   -1   12     -0.62      0.00
    4   -1   12     -0.49      0.00
    5   -1   12     -0.10      0.00
    6   -1   12     -0.11      0.00
    7   -1   12      0.60      0.00
   -3    0   12      0.77      0.00
   -2    0   12      0.00      0.00
   -1    0   12     -0.21      0.00
    0    0   12     -0.05      0.00
    1    0   12     -0.12      0.00
    2    0   12     -0.40      0.00
    3    0   12     -0.09      0.00
    4    0   12      0.37      0.00
    5    0   12      0.24      0.00
    6    0   12      0.18      0.00
    7    0   12      0.17      0.00
    8    0   12      0.32      0.00
   -3    1   12     -0.06      0.00
   -2    1   12     -0.41      0.00
   -1    1   12     -0.96      0.00
    0    1   12     -1.21      0.00
    1    1   12     -0.81      0.00
    2    1   12     -0.09      0.00
    3    1   12      0.01      0.00
    4    1   12     -0.35      0.00
    5    1   12     -0.06      0.00
    6    1   12      0.52      0.00
    7    1   12      0.63      0.00
    8    1   12      0.27      0.00
    9    1   12     -0.46      0.00
   -3    2   12     -1.73      0.00
   -2    2   12     -0.11      0.00
   -1    2   12      0.19      0.00
    0    2   12     -0.04      0.00
    1    2   12      0.19      0.00
    2    2   12      0.21      0.00
    3    2   12      0.08      0.00
    4    2   12      0.27      0.00
    5    2   12      0.40      0.00
    6    2   12      0.38      0.00
    7    2   12      0.35      0.00
    8    2   12      0.30      0.00
    9    2   12      0.45      0.00
   -4    3   12      0.67      0.00
   -3    3   12      0.45      0.00
   -2    3   12     -0.23      0.00
   -1    3   12      0.20      0.00
    0    3   12      0.89      0.00
    1    3   12      0.34      0.00
    2    3   12     -0.16      0.00
    3    3   12      0.13      0.00
    4    3   12      0.33      0.00
    5    3   12      0.24      0.00
    6    3   12     -0.28      0.00
    7    3   12     -0.90      0.00
    8    3   12     -0.54      0.00
    9    3   12      0.53      0.00
   -4    4   12      1.04      0.00
   -3    4   12      0.54      0.00
   -2    4   12      0.29      0.00
   -1    4   12      0.46      0.00
    0    4   12      0.00      0.00
    1    4   12     -0.52      0.00
    2    4   12     -0.80      0.00
    3    4   12     -0.82      0.00
    4    4   12     -0.32      0.00
    5    4   12     -0.24      0.00
    6    4   12     -0.59      0.00
    7    4   12     -0.44      0.00
    8    4   12     -0.52      0.00
    9    4   12     -1.23      0.00
   -3    5   12     -0.68      0.00
   -2    5   12     -0.48      0.00
   -1    5   12     -0.47      0.00
    0    5   12      0.16      0.00
    1    5   12      0.67      0.00
    2    5   12      0.17      0.00
    3    5   12     -0.47      0.00
    4    5   12     -0.65      0.00
    5    5   12     -0.27      0.00
    6    5   12      0.17      0.00
    7    5   12     -0.31      0.00
    8    5   12     -1.06      0.00
    9    5   12     -1.05      0.00
   -3    6   12     -0.01      0.00
   -2    6   12     -0.59      0.00
   -1    6   12     -0.61      0.00
    0    6   12     -0.77      0.00
    1    6   12     -0.85      0.00
    2    6   12     -0.27      0.00
    3    6   12      0.05      0.00
    4    6   12     -0.02      0.00
    5    6   12      0.11      0.00
    6    6   12      0.22      0.00
    7    6   12      0.18      0.00
    8    6   12      0.32      0.00
    9    6   12      0.69      0.00
   -3    7   12      0.84      0.00
   -2    7   12      0.97      0.00
   -1    7   12     -0.19      0.00
    0    7   12     -1.09      0.00
    1    7   12     -0.58      0.00
    2    7   12      0.16      0.00
    3    7   12      0.59      0.00
    4    7   12      0.50      0.00
    5    7   12      0.10      0.00
    6    7   12      0.07      0.00
    7    7   12      0.06      0.00
    8    7   12     -0.61      0.00
   -2    8   12      0.45      0.00
   -1    8   12      0.39      0.00
    0    8   12      0.60      0.00
    1    8   12      0.09      0.00
    2    8   12     -0.11      0.00
    3    8   12      0.56      0.00
    5    8   12      1.71      0.00
    6    8   12      0.27      0.00
    7    8   12     -1.11      0.00
   -1    9   12     -0.41      0.00
    0    9   12     -0.16      0.00
    1    9   12      0.33      0.00
    2    9   12      0.14      0.00
    3    9   12     -0.66      0.00
    5    9   12     -0.21      0.00
    6    9   12      1.65      0.00
    1   10   12     -0.23      0.00
    2   10   12     -0.50      0.00
    3   10   12      0.24      0.00
    4   10   12      0.56      0.00
    5   10   12      0.06      0.00
    0   -1   13      0.09      0.00
    1   -1   13      0.25      0.00
    2   -1   13      0.10      0.00
    3   -1   13      0.30      0.00
    4   -1   13      1.04      0.00
    5   -1   13      0.73      0.00
   -1    0   13      0.56      0.00
    0    0   13      0.29      0.00
    1    0   13      0.12      0.00
    2    0   13     -0.10      0.00
    3    0   13      0.04      0.00
    4    0   13      0.38      0.00
    5    0   13      0.43      0.00
    6    0   13      0.11      0.00
    7    0   13     -1.05      0.00
   -1    1   13      0.25      0.00
    0    1   13      0.49      0.00
    1    1   13      0.40      0.00
    2    1   13      0.31      0.00
    3    1   13     -0.15      0.00
    4    1   13     -0.72      0.00
    5    1   13     -0.59      0.00
    6    1   13     -0.37      0.00
    7    1   13     -0.21      0.00
   -2    2   13      0.52      0.00
   -1    2   13     -0.06      0.00
    0    2   13      0.15      0.00
    1    2   13      0.42      0.00
    2    2   13     -0.07      0.00
    3    2   13     -0.31      0.00
    4    2   13     -0.09      0.00
    5    2   13     -0.34      0.00
    6    2   13     -0.68      0.00
    7    2   13     -0.74      0.00
    8    2   13     -1.15      0.00
   -2    3   13      0.46      0.00
   -1    3   13     -0.02      0.00
    0    3   13     -0.06      0.00
    1    3   13     -0.27      0.00
    2    3   13      0.20      0.00
    3    3   13      0.60      0.00
    4    3   13      0.10      0.00
    5    3   13     -0.29      0.00
    6    3   13     -0.16      0.00
    7    3   13      0.39      0.00
    8    3   13      1.48      0.00
   -2    4   13     -0.36      0.00
   -1    4   13      0.35      0.00
    0    4   13     -0.48      0.00
    1    4   13     -0.60      0.00
    2    4   13     -0.18      0.00
    3    4   13     -0.02      0.00
    4    4   13      0.35      0.00
    5    4   13      0.53      0.00
    6    4   13      0.55      0.00
    7    4   13      0.92      0.00
    8    4   13      0.67      0.00
   -2    5   13      0.51      0.00
   -1    5   13     -0.30      0.00
    0    5   13     -0.40      0.00
    1    5   13     -0.01      0.00
    2    5   13      0.75      0.00
    3    5   13      1.70      0.00
    4    5   13      1.49      0.00
    5    5   13      0.54      0.00
    6    5   13      0.04      0.00
    7    5   13     -0.47      0.00
    8    5   13     -0.55      0.00
   -2    6   13     -0.79      0.00
   -1    6   13     -0.05      0.00
    0    6   13      0.67      0.00
    1    6   13      0.65      0.00
    2    6   13      0.25      0.00
    3    6   13     -0.21      0.00
    4    6   13     -0.07      0.00
    5    6   13      0.29      0.00
    6    6   13      0.04      0.00
    7    6   13      0.17      0.00
    8    6   13      0.91      0.00
   -1    7   13      0.13      0.00
    0    7   13      0.50      0.00
    1    7   13      0.76      0.00
    2    7   13      0.35      0.00
    3    7   13     -0.13      0.00
    4    7   13     -0.24      0.00
    5    7   13     -0.01      0.00
    6    7   13      0.44      0.00
    7    7   13      0.17      0.00
    0    8   13      0.61      0.00
    1    8   13      0.61      0.00
    2    8   13      0.11      0.00
    3    8   13     -0.47      0.00
    5    8   13     -0.77      0.00
    6    8   13     -0.87      0.00
    1    9   13     -1.48      0.00
    2    9   13     -0.36      0.00
    3    9   13      0.16      0.00
    5    9   13     -1.75      0.00
    1    1   14      0.23      0.00
    2    1   14      0.02      0.00
    3    1   14      0.42      0.00
    4    1   14      0.26      0.00
    5    1   14      0.03      0.00
    0    2   14     -0.19      0.00
    1    2   14     -0.17      0.00
    2    2   14     -0.14      0.00
    3    2   14      0.06      0.00
    4    2   14      0.33      0.00
    5    2   14     -0.02      0.00
    6    2   14     -0.03      0.00
    0    3   14     -0.01      0.00
    1    3   14     -0.58      0.00
    2    3   14     -0.85      0.00
    3    3   14     -0.72      0.00
    4    3   14     -0.28      0.00
    5    3   14      0.58      0.00
    6    3   14      0.25      0.00
    7    3   14     -1.53      0.00
    0    4   14     -0.63      0.00
    1    4   14      0.13      0.00
    2    4   14      0.53      0.00
    3    4   14     -0.13      0.00
    4    4   14     -0.53      0.00
    5    4   14     -0.58      0.00
    6    4   14     -0.04      0.00
    7    4   14      0.82      0.00
    0    5   14      0.55      0.00
    1    5   14      1.16      0.00
    2    5   14      0.54      0.00
    3    5   14     -0.27      0.00
    4    5   14     -1.34      0.00
    5    5   14     -1.56      0.00
    6    5   14     -0.51      0.00
    7    5   14      0.20      0.00
    0    6   14      1.11      0.00
    1    6   14     -0.22      0.00
    2    6   14     -0.92      0.00
    3    6   14     -1.28      0.00
    4    6   14     -0.78      0.00
    5    6   14     -0.19      0.00
    6    6   14     -0.82      0.00
    1    7   14     -1.64      0.00
    2    7   14     -1.21      0.00
    3    7   14     -0.11      0.00
    4    7   14      0.25      0.00
    5    7   14     -0.12      0.00
    6    7   14      0.31      0.00
    2    8   14      0.49      0.00
    3    8   14      0.37      0.00
   12    0    0     -1.12      0.00
  -12    1    0      0.80      0.00
   12    1    0      0.38      0.00
  -12    2    0     -1.02      0.00
   12    2    0     -0.49      0.00
  -12    3    0      1.04      0.00
  -11    3    0      0.42      0.00
   11    3    0      1.27      0.00
   12    3    0      0.95      0.00
  -11    4    0     -0.48      0.00
   11    4    0     -1.81      0.00
  -11    5    0     -1.28      0.00
   11    5    0     -0.40      0.00
  -10    6    0      1.10      0.00
   10    6    0      0.06      0.00
  -10    7    0     -0.57      0.00
   -9    7    0     -0.52      0.00
    9    7    0      0.69      0.00
   10    7    0      0.62      0.00
   -9    8    0     -0.45      0.00
    9    8    0     -0.04      0.00
   -8    9    0      0.99      0.00
   -7    9    0      1.59      0.00
    7    9    0      1.21      0.00
    8    9    0      0.57      0.00
   -7   10    0     -1.01      0.00
   -6   10    0     -0.87      0.00
    6   10    0     -0.14      0.00
    7   10    0     -0.45      0.00
   -6   11    0      0.10      0.00
   -5   11    0     -0.89      0.00
   -4   11    0     -1.08      0.00
    4   11    0     -0.23      0.00
    5   11    0      0.13      0.00
    6   11    0      0.06      0.00
   -3   12    0      0.14      0.00
   -2   12    0      0.44      0.00
   -1   12    0      1.58      0.00
    0   12    0      1.76      0.00
    1   12    0      1.13      0.00
    2   12    0      0.80      0.00
    3   12    0      0.74      0.00
   -2  -12    1      0.16      0.00
   -1  -12    1     -0.23      0.00
    0  -12    1     -0.38      0.00
    1  -12    1      0.00      0.00
    2  -12    1     -0.14      0.00
   -5  -11    1      0.80      0.00
   -4  -11    1      0.35      0.00
   -3  -11    1     -0.58      0.00
   -2  -11    1     -0.52      0.00
    2  -11    1     -0.99      0.00
    3  -11    1     -0.41      0.00
    4  -11    1     -0.36      0.00
    5  -11    1     -0.21      0.00
   -6  -10    1     -0.26      0.00
   -5  -10    1     -0.62      0.00
    6  -10    1     -0.22      0.00
    7  -10    1     -0.51      0.00
   -8   -9    1     -0.11      0.00
   -7   -9    1      0.30      0.00
    7   -9    1      0.38      0.00
    8   -9    1      0.22      0.00
   -9   -8    1      1.15      0.00
   -8   -8    1      0.49      0.00
    8   -8    1     -0.50      0.00
    9   -8    1      0.22      0.00
   -9   -7    1      0.30      0.00
    9   -7    1      0.15      0.00
   10   -7    1      0.07      0.00
  -10   -6    1      0.30      0.00
   10   -6    1     -0.44      0.00
  -11   -5    1     -0.50      0.00
  -10   -5    1     -0.16      0.00
   11   -5    1     -0.01      0.00
  -11   -4    1      2.08      0.00
   11   -4    1      1.22      0.00
  -11   -3    1     -1.04      0.00
   12   -3    1     -0.63      0.00
  -11   -2    1     -0.48      0.00
   12   -2    1     -0.23      0.00
  -12   -1    1      0.68      0.00
  -11   -1    1      0.88      0.00
   12   -1    1     -0.13      0.00
  -12    0    1     -0.06      0.00
    0    0    1    -26.87      0.00
    1    0    1    -42.20      0.00
    2    0    1    -34.65      0.00
   12    0    1      0.90      0.00
  -12    1    1     -0.77      0.00
    0    1    1    -37.92      0.00
    1    1    1    -26.34      0.00
   12    1    1      1.00      0.00
  -12    2    1      1.02      0.00
  -11    2    1      1.16      0.00
   12    2    1     -0.54      0.00
  -11    3    1     -1.30      0.00
   12    3    1     -0.60      0.00
  -11    4    1      1.11      0.00
   11    4    1      1.07      0.00
   12    4    1      1.28      0.00
  -11    5    1      0.87      0.00
   11    5    1      0.77      0.00
  -10    6    1     -0.14      0.00
   11    6    1     -0.53      0.00
  -10    7    1     -0.13      0.00
   -9    7    1     -0.01      0.00
   10    7    1      0.25      0.00
   -9    8    1      0.47      0.00
    9    8    1     -0.60      0.00
   10    8    1     -1.14      0.00
   -8    9    1      0.55      0.00
    8    9    1     -2.05      0.00
    9    9    1     -0.76      0.00
   -7   10    1     -0.66      0.00
   -6   10    1     -0.88      0.00
    7   10    1     -0.04      0.00
    8   10    1      0.37      0.00
   -6   11    1      1.38      0.00
   -5   11    1      1.66      0.00
   -4   11    1      0.71      0.00
    5   11    1      0.05      0.00
    6   11    1      0.17      0.00
   -4   12    1      0.53      0.00
   -3   12    1      0.48      0.00
   -2   12    1     -0.07      0.00
   -1   12    1      0.00      0.00
    0   12    1     -0.04      0.00
    1   12    1     -0.42      0.00
    2   12    1      0.09      0.00
    3   12    1      1.14      0.00
    4   12    1      1.25      0.00
   -4  -11    2     -0.42      0.00
   -3  -11    2     -1.08      0.00
   -2  -11    2     -0.86      0.00
   -1  -11    2     -0.10      0.00
    0  -11    2      0.49      0.00
    1  -11    2      0.52      0.00
    2  -11    2      0.98      0.00
    3  -11    2      1.60      0.00
    4  -11    2      0.52      0.00
    5  -11    2     -0.96      0.00
   -6  -10    2     -0.24      0.00
   -5  -10    2     -0.87      0.00
   -4  -10    2     -0.83      0.00
    5  -10    2      1.25      0.00
    6  -10    2      0.75      0.00
   -7   -9    2      1.01      0.00
   -6   -9    2      0.84      0.00
    7   -9    2      1.43      0.00
    8   -9    2      0.84      0.00
   -8   -8    2     -0.62      0.00
   -7   -8    2     -1.60      0.00
    8   -8    2     -0.45      0.00
    9   -8    2     -0.04      0.00
   -9   -7    2     -1.53      0.00
   -8   -7    2     -1.53      0.00
    9   -7    2      0.47      0.00
   10   -7    2      0.09      0.00
  -10   -6    2      0.05      0.00
   -9   -6    2      0.23      0.00
   10   -6    2      0.38      0.00
  -10   -5    2     -0.84      0.00
   11   -5    2      0.73      0.00
  -11   -4    2     -0.02      0.00
  -10   -4    2      0.35      0.00
   11   -4    2     -1.05      0.00
  -11   -3    2     -0.66      0.00
   12   -3    2      0.09      0.00
  -11   -2    2      0.85      0.00
   12   -2    2     -0.05      0.00
  -11   -1    2     -0.06      0.00
   12   -1    2      0.66      0.00
  -11    0    2     -0.49      0.00
   12    0    2     -0.90      0.00
  -11    1    2     -0.14      0.00
   12    1    2     -1.01      0.00
  -11    2    2      0.79      0.00
   12    2    2      0.88      0.00
  -11    3    2     -1.03      0.00
   12    3    2     -1.29      0.00
  -11    4    2      0.05      0.00
   12    4    2      0.85      0.00
  -11    5    2     -1.27      0.00
  -10    5    2     -2.02      0.00
   11    5    2     -0.65      0.00
   12    5    2     -1.02      0.00
  -10    6    2      0.53      0.00
   11    6    2      0.12      0.00
  -10    7    2      0.27      0.00
   -9    7    2      0.24      0.00
   10    7    2      0.96      0.00
   11    7    2      0.88      0.00
   -9    8    2     -0.38      0.00
    9    8    2     -0.29      0.00
   10    8    2     -0.37      0.00
   -8    9    2     -0.41      0.00
    8    9    2     -0.15      0.00
    9    9    2      0.27      0.00
   -7   10    2      0.25      0.00
   -6   10    2      0.40      0.00
    7   10    2      1.09      0.00
    8   10    2      1.61      0.00
   -6   11    2     -0.28      0.00
   -5   11    2     -0.35      0.00
    5   11    2      0.41      0.00
    6   11    2     -0.10      0.00
    7   11    2     -0.67      0.00
   -4   12    2      0.14      0.00
   -3   12    2      0.20      0.00
   -2   12    2      0.17      0.00
   -1   12    2      0.00      0.00
    0   12    2     -0.89      0.00
    1   12    2     -1.45      0.00
    2   12    2     -1.15      0.00
    3   12    2     -1.29      0.00
    4   12    2     -1.92      0.00
    5   12    2     -1.59      0.00
    0   13    2      0.91      0.00
    1   13    2      1.23      0.00
   -2  -11    3      0.44      0.00
   -1  -11    3      1.17      0.00
    0  -11    3      1.43      0.00
    1  -11    3      0.56      0.00
    2  -11    3     -0.48      0.00
    3  -11    3     -0.80      0.00
    4  -11    3     -0.90      0.00
   -5  -10    3      0.28      0.00
   -4  -10    3      1.33      0.00
   -3  -10    3      2.09      0.00
   -2  -10    3      1.60      0.00
    4  -10    3     -0.46      0.00
    5  -10    3      0.43      0.00
    6  -10    3      0.37      0.00
   -6   -9    3      0.16      0.00
   -5   -9    3      0.06      0.00
    6   -9    3     -1.65      0.00
    7   -9    3     -1.05      0.00
    8   -9    3     -0.90      0.00
   -7   -8    3     -0.03      0.00
    8   -8    3     -0.08      0.00
    9   -8    3      0.48      0.00
   -8   -7    3      1.23      0.00
    9   -7    3     -1.27      0.00
   10   -7    3     -0.66      0.00
   -9   -6    3     -0.25      0.00
    9   -6    3      0.47      0.00
   10   -6    3     -0.18      0.00
  -10   -5    3     -0.48      0.00
   -9   -5    3      0.02      0.00
   11   -5    3      0.42      0.00
  -10   -4    3      0.84      0.00
   -9   -4    3      0.43      0.00
   11   -4    3     -0.29      0.00
  -10   -3    3     -0.43      0.00
   12   -3    3      0.58      0.00
  -11   -2    3     -0.34      0.00
   12   -2    3      0.48      0.00
  -11   -1    3      0.90      0.00
   12   -1    3     -0.43      0.00
  -11    0    3     -1.04      0.00
   12    0    3      0.37      0.00
  -11    1    3      1.63      0.00
    8    1    3      1.18      0.00
   12    1    3      0.06      0.00
  -11    2    3     -0.32      0.00
    1    2    3     -1.12      0.00
   12    2    3     -0.02      0.00
  -11    3    3     -0.89      0.00
   12    3    3      0.76      0.00
  -11    4    3      1.14      0.00
  -10    4    3      1.29      0.00
   12    4    3      0.34      0.00
  -10    5    3      0.61      0.00
   12    5    3     -0.20      0.00
  -10    6    3      0.15      0.00
   11    6    3     -0.02      0.00
   -9    7    3     -0.52      0.00
   10    7    3     -1.22      0.00
   11    7    3     -0.66      0.00
   -9    8    3     -0.16      0.00
   -8    8    3     -0.10      0.00
   10    8    3      0.51      0.00
   -8    9    3      1.32      0.00
   -7    9    3      1.29      0.00
    9    9    3      0.25      0.00
   -7   10    3     -0.02      0.00
   -6   10    3      0.08      0.00
    8   10    3     -0.33      0.00
   -6   11    3     -0.13      0.00
   -5   11    3      0.03      0.00
    6   11    3      0.86      0.00
    7   11    3      0.17      0.00
   -4   12    3      0.04      0.00
   -3   12    3      0.32      0.00
   -2   12    3      0.80      0.00
   -1   12    3      1.42      0.00
    3   12    3      0.82      0.00
    4   12    3      0.41      0.00
    5   12    3     -0.04      0.00
    6   12    3     -0.08      0.00
   -1   13    3     -1.00      0.00
    0   13    3     -0.47      0.00
    1   13    3      0.36      0.00
    2   13    3     -0.12      0.00
    3   13    3     -0.46      0.00
    1  -11    4     -0.08      0.00
   -3  -10    4     -0.27      0.00
   -2  -10    4     -0.73      0.00
   -1  -10    4     -1.04      0.00
    0  -10    4     -1.12      0.00
    1  -10    4     -0.98      0.00
    2  -10    4     -0.59      0.00
    3  -10    4     -0.28      0.00
    4  -10    4      0.36      0.00
    5  -10    4      0.74      0.00
   -5   -9    4     -0.75      0.00
   -4   -9    4     -0.97      0.00
    6   -9    4     -0.33      0.00
    7   -9    4      0.34      0.00
   -7   -8    4     -1.16      0.00
   -6   -8    4     -1.00      0.00
    7   -8    4      1.12      0.00
    8   -8    4      0.60      0.00
   -8   -7    4     -0.44      0.00
   -7   -7    4      0.17      0.00
    9   -7    4      0.15      0.00
   -8   -6    4      0.46      0.00
    9   -6    4      0.59      0.00
   10   -6    4      0.82      0.00
   -9   -5    4      0.89      0.00
   10   -5    4     -1.75      0.00
   11   -5    4     -0.94      0.00
  -10   -4    4     -0.03      0.00
   -9   -4    4     -0.21      0.00
   11   -4    4      0.89      0.00
  -10   -3    4     -0.41      0.00
   12   -3    4     -0.44      0.00
  -10   -2    4      0.13      0.00
   12   -2    4     -1.33      0.00
  -10   -1    4      0.33      0.00
   12   -1    4      0.50      0.00
  -11    0    4     -0.89      0.00
  -10    0    4     -1.22      0.00
   12    0    4     -0.25      0.00
  -11    1    4      0.38      0.00
  -10    1    4      0.36      0.00
   12    1    4      0.46      0.00
  -11    2    4     -0.54      0.00
  -10    2    4     -0.71      0.00
   12    2    4     -0.19      0.00
  -11    3    4      0.29      0.00
  -10    3    4      0.41      0.00
    2    3    4      0.34      0.00
   12    3    4     -0.62      0.00
  -10    4    4      0.52      0.00
   12    4    4     -0.19      0.00
  -10    5    4     -1.30      0.00
   12    5    4     -0.02      0.00
  -10    6    4      0.44      0.00
   -9    6    4      0.03      0.00
   11    6    4     -0.01      0.00
   12    6    4     -0.01      0.00
   -9    7    4     -0.25      0.00
   11    7    4      0.16      0.00
   -9    8    4      0.45      0.00
   -8    8    4      0.01      0.00
   10    8    4      0.07      0.00
   -8    9    4     -0.21      0.00
   -7    9    4     -0.45      0.00
    9    9    4     -0.18      0.00
   10    9    4     -0.30      0.00
   -7   10    4     -1.49      0.00
   -6   10    4     -1.41      0.00
    8   10    4     -1.15      0.00
    9   10    4     -0.45      0.00
   -6   11    4      0.83      0.00
   -5   11    4      0.25      0.00
    6   11    4     -1.70      0.00
    7   11    4     -0.91      0.00
    8   11    4      0.45      0.00
   -4   12    4      0.39      0.00
   -3   12    4     -0.41      0.00
   -2   12    4     -1.30      0.00
    4   12    4      1.90      0.00
    5   12    4      1.42      0.00
    6   12    4      0.71      0.00
   -2   13    4      0.25      0.00
   -1   13    4     -0.34      0.00
    0   13    4     -0.46      0.00
    1   13    4      0.13      0.00
    2   13    4      0.28      0.00
    3   13    4     -0.02      0.00
   -2  -10    5     -0.85      0.00
   -1  -10    5     -0.23      0.00
    0  -10    5      0.62      0.00
    1  -10    5      0.89      0.00
    2  -10    5      0.53      0.00
    3  -10    5      0.19      0.00
    4  -10    5      0.05      0.00
   -4   -9    5      1.81      0.00
   -3   -9    5      1.18      0.00
   -2   -9    5      0.27      0.00
    4   -9    5      0.11      0.00
    5   -9    5      0.34      0.00
    6   -9    5      0.47      0.00
   -6   -8    5     -0.10      0.00
   -5   -8    5     -0.55      0.00
   -4   -8    5     -1.58      0.00
    7   -8    5      0.15      0.00
    8   -8    5      0.08      0.00
   -7   -7    5      0.73      0.00
   -6   -7    5      0.67      0.00
    8   -7    5     -0.12      0.00
    9   -7    5      0.28      0.00
   -8   -6    5     -1.34      0.00
   -7   -6    5     -1.39      0.00
    9   -6    5     -0.35      0.00
   10   -6    5     -0.47      0.00
   -8   -5    5      0.23      0.00
    9   -5    5      1.19      0.00
   10   -5    5      1.20      0.00
   11   -5    5      0.51      0.00
   -9   -4    5     -0.60      0.00
   -8   -4    5     -1.20      0.00
   11   -4    5      0.10      0.00
   -9   -3    5      0.89      0.00
   11   -3    5     -1.45      0.00
   12   -3    5     -0.99      0.00
  -10   -2    5      0.19      0.00
   -9   -2    5     -0.03      0.00
   12   -2    5      2.74      0.00
  -10   -1    5     -0.69      0.00
   12   -1    5     -0.59      0.00
  -10    0    5      1.09      0.00
   12    0    5     -0.17      0.00
  -10    1    5      0.23      0.00
   12    1    5      0.03      0.00
  -10    2    5     -0.44      0.00
   12    2    5      0.01      0.00
  -10    3    5      0.28      0.00
   12    3    5      0.28      0.00
  -10    4    5     -0.07      0.00
    2    4    5     -0.33      0.00
   12    4    5     -0.06      0.00
  -10    5    5     -0.39      0.00
   -9    5    5     -0.48      0.00
   12    5    5      0.45      0.00
   -9    6    5      1.33      0.00
   11    6    5     -0.66      0.00
   12    6    5     -0.37      0.00
   -9    7    5      0.02      0.00
   11    7    5      0.16      0.00
   -8    8    5     -0.56      0.00
   10    8    5     -0.48      0.00
   11    8    5     -0.16      0.00
   -8    9    5      0.05      0.00
   -7    9    5      0.63      0.00
    9    9    5     -0.65      0.00
   10    9    5      0.22      0.00
   -7   10    5      0.77      0.00
   -6   10    5      1.10      0.00
    8   10    5      1.57      0.00
    9   10    5      0.98      0.00
   -6   11    5     -0.03      0.00
   -5   11    5     -0.46      0.00
   -4   11    5     -0.63      0.00
    7   11    5      0.21      0.00
    8   11    5      0.19      0.00
   -4   12    5      0.52      0.00
   -3   12    5      0.29      0.00
   -2   12    5     -0.29      0.00
    4   12    5     -3.21      0.00
    5   12    5     -2.80      0.00
    6   12    5     -0.83      0.00
   -2   13    5      1.18      0.00
   -1   13    5      1.25      0.00
    0   13    5      0.57      0.00
    1   13    5     -0.44      0.00
    2   13    5     -1.12      0.00
    3   13    5     -0.57      0.00
    4   13    5      0.28      0.00
   -3   -9    6      0.74      0.00
   -2   -9    6      1.35      0.00
   -1   -9    6      1.28      0.00
    0   -9    6      0.38      0.00
    1   -9    6     -0.41      0.00
    2   -9    6     -0.48      0.00
    3   -9    6     -0.29      0.00
    4   -9    6     -0.59      0.00
    5   -9    6     -0.68      0.00
   -4   -8    6     -1.37      0.00
   -3   -8    6     -1.13      0.00
    6   -8    6     -1.43      0.00
    7   -8    6     -1.23      0.00
   -6   -7    6      0.29      0.00
   -5   -7    6      1.00      0.00
    8   -7    6     -0.87      0.00
    9   -7    6     -0.73      0.00
   -7   -6    6      1.28      0.00
   -6   -6    6      1.06      0.00
    9   -6    6      0.25      0.00
   10   -6    6      0.06      0.00
   -8   -5    6      0.70      0.00
   -7   -5    6      0.43      0.00
    9   -5    6     -0.22      0.00
   10   -5    6     -0.21      0.00
   -8   -4    6      0.19      0.00
   11   -4    6     -0.04      0.00
   -9   -3    6     -1.76      0.00
   -8   -3    6     -1.34      0.00
   -7   -3    6     -0.66      0.00
   11   -3    6      0.41      0.00
   -9   -2    6      1.16      0.00
   12   -2    6     -1.24      0.00
   -9   -1    6     -0.06      0.00
   12   -1    6     -0.35      0.00
  -10    0    6     -0.22      0.00
   -9    0    6     -0.55      0.00
   12    0    6      0.02      0.00
  -10    1    6     -0.44      0.00
   -9    1    6     -0.74      0.00
   12    1    6      0.33      0.00
  -10    2    6      0.44      0.00
   -9    2    6      0.85      0.00
   12    2    6     -0.13      0.00
  -10    3    6     -0.24      0.00
   -9    3    6     -0.13      0.00
   12    3    6     -0.23      0.00
   -9    4    6     -0.41      0.00
   12    4    6      0.77      0.00
   -9    5    6      0.47      0.00
    3    5    6     -0.77      0.00
   12    5    6     -1.13      0.00
   -9    6    6     -0.05      0.00
   11    6    6      0.93      0.00
   12    6    6      0.57      0.00
   -8    7    6     -1.64      0.00
   11    7    6      0.01      0.00
   -8    8    6      0.26      0.00
   -7    8    6      0.34      0.00
   10    8    6      0.41      0.00
   11    8    6      0.79      0.00
   -7    9    6      0.56      0.00
    9    9    6      1.19      0.00
   10    9    6      0.76      0.00
   -6   10    6     -1.62      0.00
    8   10    6      0.87      0.00
    9   10    6     -0.12      0.00
   -5   11    6      0.07      0.00
   -4   11    6     -0.82      0.00
    7   11    6     -0.60      0.00
    8   11    6     -0.77      0.00
   -4   12    6      0.80      0.00
   -3   12    6      0.48      0.00
   -2   12    6     -0.26      0.00
   -1   12    6      0.09      0.00
    4   12    6      1.32      0.00
    5   12    6      1.80      0.00
    6   12    6      1.67      0.00
    7   12    6      0.57      0.00
   -1   13    6     -0.82      0.00
    0   13    6     -1.56      0.00
    1   13    6     -1.79      0.00
    2   13    6     -1.68      0.00
    3   13    6     -0.91      0.00
    4   13    6     -0.03      0.00
    0   -9    7     -0.09      0.00
    1   -9    7     -0.26      0.00
    2   -9    7     -0.17      0.00
    3   -9    7      0.69      0.00
    4   -9    7      1.20      0.00
   -3   -8    7     -0.03      0.00
   -2   -8    7     -0.64      0.00
   -1   -8    7     -1.63      0.00
    0   -8    7     -1.38      0.00
    3   -8    7      0.17      0.00
    4   -8    7      0.15      0.00
    5   -8    7      0.99      0.00
    6   -8    7      1.19      0.00
   -5   -7    7      0.31      0.00
   -4   -7    7      0.23      0.00
   -3   -7    7      0.04      0.00
    7   -7    7      0.94      0.00
    8   -7    7      0.80      0.00
   -6   -6    7     -2.21      0.00
   -5   -6    7     -2.22      0.00
    8   -6    7      0.16      0.00
    9   -6    7      0.47      0.00
   -7   -5    7     -0.92      0.00
   -6   -5    7     -0.58      0.00
    9   -5    7     -1.01      0.00
   10   -5    7     -0.77      0.00
   -7   -4    7     -0.25      0.00
    9   -4    7     -0.07      0.00
   10   -4    7      0.08      0.00
   11   -4    7      0.03      0.00
   -8   -3    7      1.28      0.00
   -7   -3    7      1.43      0.00
   11   -3    7     -0.19      0.00
   -8   -2    7     -0.07      0.00
   11   -2    7      0.61      0.00
   12   -2    7      0.57      0.00
   -9   -1    7     -0.93      0.00
   -8   -1    7     -0.93      0.00
   12   -1    7      0.18      0.00
   -9    0    7      0.58      0.00
   12    0    7      0.00      0.00
   -9    1    7      0.33      0.00
   12    1    7     -0.20      0.00
   -9    2    7     -0.16      0.00
   12    2    7     -0.18      0.00
   -9    3    7      0.30      0.00
   12    3    7     -0.14      0.00
   -9    4    7     -0.16      0.00
   12    4    7      0.17      0.00
   -9    5    7      0.55      0.00
   -8    5    7      0.72      0.00
   12    5    7     -0.01      0.00
   -8    6    7     -0.11      0.00
   -3    6    7     -0.71      0.00
    2    6    7      0.84      0.00
    3    6    7      0.42      0.00
   11    6    7     -0.15      0.00
   12    6    7      0.21      0.00
   -8    7    7     -0.56      0.00
   11    7    7     -0.33      0.00
   -8    8    7      1.28      0.00
   -7    8    7      1.28      0.00
   10    8    7     -1.23      0.00
   11    8    7     -0.93      0.00
   -7    9    7     -0.55      0.00
   -6    9    7     -0.07      0.00
    9    9    7      0.64      0.00
   10    9    7      0.45      0.00
   -6   10    7     -0.04      0.00
   -5   10    7     -0.02      0.00
    8   10    7      0.18      0.00
    9   10    7     -0.55      0.00
   -5   11    7      0.75      0.00
   -4   11    7      0.71      0.00
    7   11    7     -0.33      0.00
    8   11    7     -0.42      0.00
   -3   12    7     -0.06      0.00
   -2   12    7     -0.22      0.00
   -1   12    7      0.43      0.00
    3   12    7     -0.18      0.00
    4   12    7     -1.33      0.00
    5   12    7     -1.73      0.00
    6   12    7     -1.01      0.00
    7   12    7     -0.34      0.00
   -1   13    7      0.14      0.00
    0   13    7      0.13      0.00
    1   13    7      0.34      0.00
    2   13    7      0.46      0.00
    3   13    7      0.78      0.00
    4   13    7      0.92      0.00
   -1   -8    8     -0.14      0.00
    0   -8    8     -0.12      0.00
    1   -8    8      0.11      0.00
    2   -8    8      0.21      0.00
    3   -8    8     -0.56      0.00
    4   -8    8     -1.59      0.00
    5   -8    8     -1.55      0.00
   -3   -7    8     -0.35      0.00
   -2   -7    8     -0.30      0.00
   -1   -7    8      0.44      0.00
    5   -7    8      0.55      0.00
    6   -7    8     -0.33      0.00
    7   -7    8     -1.01      0.00
   -5   -6    8      1.06      0.00
   -4   -6    8      1.60      0.00
   -3   -6    8      1.04      0.00
    7   -6    8      0.93      0.00
    8   -6    8      0.84      0.00
   -6   -5    8      1.22      0.00
   -5   -5    8      1.67      0.00
    9   -5    8      0.04      0.00
   -7   -4    8      0.92      0.00
   -6   -4    8      0.49      0.00
    9   -4    8      0.88      0.00
   10   -4    8      1.15      0.00
   -7   -3    8     -1.04      0.00
   -6   -3    8     -1.77      0.00
   10   -3    8     -1.70      0.00
   11   -3    8     -1.18      0.00
   -8   -2    8      0.52      0.00
   -7   -2    8      0.33      0.00
   11   -2    8      1.20      0.00
   -8   -1    8     -0.03      0.00
   11   -1    8     -1.19      0.00
   12   -1    8     -0.43      0.00
   -8    0    8     -0.22      0.00
   12    0    8     -0.48      0.00
   -8    1    8      0.16      0.00
   12    1    8      1.16      0.00
   -9    2    8     -0.27      0.00
   -8    2    8     -0.78      0.00
   12    2    8     -0.03      0.00
   -9    3    8     -0.70      0.00
   -8    3    8     -0.45      0.00
   12    3    8      0.11      0.00
   -8    4    8      0.69      0.00
   12    4    8     -0.32      0.00
   -8    5    8     -0.65      0.00
   -1    5    8     -0.83      0.00
   12    5    8     -0.35      0.00
   -8    6    8     -0.36      0.00
   11    6    8      1.63      0.00
   12    6    8      0.79      0.00
   -8    7    8      0.28      0.00
   -7    7    8      0.35      0.00
   -4    7    8      1.58      0.00
   -3    7    8      1.19      0.00
   -2    7    8      0.26      0.00
    1    7    8      0.94      0.00
    2    7    8      1.01      0.00
    3    7    8      0.73      0.00
   11    7    8      0.13      0.00
   -7    8    8     -0.17      0.00
   -6    8    8     -0.57      0.00
   -5    8    8     -0.49      0.00
   10    8    8      0.19      0.00
   11    8    8      0.51      0.00
   -6    9    8     -0.36      0.00
    7    9    8      0.55      0.00
    8    9    8     -0.51      0.00
    9    9    8     -0.88      0.00
   10    9    8     -0.26      0.00
   -5   10    8      0.04      0.00
    8   10    8     -0.40      0.00
    9   10    8     -0.21      0.00
   -4   11    8     -0.48      0.00
   -3   11    8     -0.33      0.00
    7   11    8      0.13      0.00
    8   11    8     -0.18      0.00
   -3   12    8      0.15      0.00
   -2   12    8      0.12      0.00
   -1   12    8      0.49      0.00
    0   12    8     -0.18      0.00
    3   12    8     -0.65      0.00
    4   12    8     -0.35      0.00
    5   12    8     -0.19      0.00
    6   12    8      0.09      0.00
    7   12    8      0.17      0.00
    0   13    8     -0.76      0.00
    1   13    8      0.23      0.00
    2   13    8      0.23      0.00
    3   13    8     -0.30      0.00
    4   13    8     -0.20      0.00
   -2   -7    9      0.34      0.00
   -1   -7    9      0.49      0.00
    0   -7    9      0.22      0.00
    1   -7    9      0.13      0.00
    2   -7    9     -0.12      0.00
    3   -7    9     -0.55      0.00
    4   -7    9     -0.39      0.00
    5   -7    9      0.22      0.00
    6   -7    9      0.47      0.00
   -3   -6    9     -0.69      0.00
   -2   -6    9     -0.12      0.00
   -1   -6    9      0.27      0.00
    6   -6    9     -0.96      0.00
    7   -6    9     -0.39      0.00
   -5   -5    9     -1.24      0.00
   -4   -5    9     -1.69      0.00
   -3   -5    9     -0.70      0.00
    8   -5    9     -0.74      0.00
    9   -5    9     -0.19      0.00
   -5   -4    9      0.52      0.00
    9   -4    9      0.00      0.00
   10   -4    9     -0.41      0.00
   -6   -3    9     -0.40      0.00
    8   -3    9      1.43      0.00
    9   -3    9      1.49      0.00
   10   -3    9      0.86      0.00
   -7   -2    9     -1.24      0.00
   -6   -2    9     -0.43      0.00
   10   -2    9     -0.55      0.00
   11   -2    9     -0.42      0.00
   -7   -1    9      0.56      0.00
   11   -1    9      0.84      0.00
   -8    0    9      0.75      0.00
   -7    0    9      0.60      0.00
   11    0    9      0.35      0.00
   12    0    9      0.37      0.00
   -8    1    9     -0.36      0.00
   -7    1    9     -0.49      0.00
   11    1    9      0.79      0.00
   12    1    9      0.04      0.00
   -8    2    9      0.38      0.00
   -7    2    9      0.76      0.00
   12    2    9     -1.23      0.00
   -8    3    9      1.39      0.00
   -7    3    9      1.25      0.00
   12    3    9      0.27      0.00
   -8    4    9     -0.81      0.00
   -7    4    9     -1.13      0.00
   12    4    9      0.46      0.00
   -8    5    9      0.06      0.00
   -7    5    9      0.05      0.00
   11    5    9      0.07      0.00
   12    5    9      0.37      0.00
   -7    6    9      0.88      0.00
   11    6    9     -1.56      0.00
   -7    7    9     -0.72      0.00
   -6    7    9     -1.33      0.00
   11    7    9     -0.50      0.00
   -6    8    9      0.22      0.00
   -2    8    9      0.39      0.00
   -1    8    9      0.23      0.00
    0    8    9     -0.86      0.00
    1    8    9     -1.66      0.00
    2    8    9     -1.30      0.00
   10    8    9     -0.94      0.00
   11    8    9     -0.57      0.00
   -6    9    9      0.62      0.00
   -5    9    9      1.21      0.00
   -4    9    9      1.47      0.00
   -3    9    9      1.39      0.00
    3    9    9      0.75      0.00
    9    9    9      0.78      0.00
   10    9    9      1.15      0.00
   -5   10    9     -0.22      0.00
   -4   10    9     -0.50      0.00
    4   10    9      2.23      0.00
    5   10    9      2.51      0.00
    6   10    9      0.51      0.00
    8   10    9     -0.05      0.00
    9   10    9      0.50      0.00
   -4   11    9     -0.24      0.00
   -3   11    9     -0.40      0.00
   -2   11    9     -0.34      0.00
    3   11    9     -0.30      0.00
    6   11    9     -0.35      0.00
    7   11    9      0.66      0.00
    8   11    9      0.43      0.00
   -2   12    9      0.01      0.00
   -1   12    9      0.41      0.00
    0   12    9      1.15      0.00
    1   12    9      2.31      0.00
    2   12    9      2.90      0.00
    3   12    9      2.05      0.00
    4   12    9      0.47      0.00
    5   12    9     -0.47      0.00
    6   12    9     -0.67      0.00
    1   13    9     -0.10      0.00
    2   13    9     -0.69      0.00
    3   13    9     -0.87      0.00
    4   13    9     -0.25      0.00
    2   -7   10     -0.65      0.00
    3   -7   10     -0.50      0.00
   -2   -6   10     -0.26      0.00
   -1   -6   10     -0.96      0.00
    0   -6   10     -0.59      0.00
    1   -6   10      0.22      0.00
    2   -6   10      0.88      0.00
    3   -6   10      1.32      0.00
    4   -6   10      0.85      0.00
    5   -6   10      0.10      0.00
    6   -6   10      0.15      0.00
   -3   -5   10      0.87      0.00
   -2   -5   10      0.73      0.00
   -1   -5   10      0.54      0.00
    6   -5   10     -1.08      0.00
    7   -5   10     -1.12      0.00
    8   -5   10     -0.43      0.00
   -4   -4   10      0.94      0.00
   -3   -4   10      0.88      0.00
    8   -4   10      0.77      0.00
    9   -4   10      0.37      0.00
   -5   -3   10     -0.84      0.00
   -4   -3   10     -0.99      0.00
    8   -3   10     -1.77      0.00
    9   -3   10     -1.97      0.00
   10   -3   10     -1.22      0.00
   -6   -2   10      1.18      0.00
   -5   -2   10      1.33      0.00
   10   -2   10      1.37      0.00
   -6   -1   10      0.29      0.00
   10   -1   10     -1.77      0.00
   11   -1   10     -1.38      0.00
   -7    0   10     -0.78      0.00
   -6    0   10     -1.59      0.00
   11    0   10     -0.25      0.00
   -7    1   10      0.16      0.00
   -6    1   10      0.85      0.00
   11    1   10     -0.11      0.00
   12    1   10     -0.11      0.00
   -7    2   10     -0.67      0.00
   11    2   10     -0.27      0.00
   12    2   10      0.16      0.00
   -7    3   10     -0.78      0.00
   11    3   10      1.10      0.00
   12    3   10      0.82      0.00
   -7    4   10      0.31      0.00
   11    4   10     -1.15      0.00
   12    4   10     -0.86      0.00
   -7    5   10      0.37      0.00
   -6    5   10      0.79      0.00
   11    5   10      0.50      0.00
   -7    6   10      0.28      0.00
   -6    6   10     -0.29      0.00
   11    6   10      1.61      0.00
   -6    7   10     -0.36      0.00
   10    7   10     -0.66      0.00
   11    7   10      0.00      0.00
   -6    8   10      0.71      0.00
   -5    8   10      1.06      0.00
   10    8   10      0.44      0.00
   -5    9   10     -1.15      0.00
   -4    9   10     -1.16      0.00
    9    9   10     -0.57      0.00
   10    9   10     -0.33      0.00
   -4   10   10      0.46      0.00
   -3   10   10      0.29      0.00
   -2   10   10     -0.10      0.00
   -1   10   10      0.07      0.00
    0   10   10      0.24      0.00
    1   10   10      0.19      0.00
    2   10   10      0.14      0.00
    3   10   10      0.01      0.00
    5   10   10     -1.25      0.00
    6   10   10     -1.79      0.00
    7   10   10     -1.17      0.00
    8   10   10     -0.38      0.00
    9   10   10     -0.24      0.00
   -3   11   10      0.32      0.00
   -2   11   10      0.56      0.00
   -1   11   10      0.41      0.00
    3   11   10      1.19      0.00
    6   11   10     -0.44      0.00
    7   11   10      0.73      0.00
    8   11   10      0.47      0.00
   -1   12   10     -0.10      0.00
    0   12   10     -0.06      0.00
    1   12   10     -0.05      0.00
    2   12   10     -0.82      0.00
    3   12   10     -1.47      0.00
    4   12   10     -0.22      0.00
    5   12   10      1.70      0.00
    6   12   10      1.57      0.00
    2   -6   11      0.45      0.00
    3   -6   11      0.82      0.00
   -1   -5   11     -0.12      0.00
    0   -5   11     -0.53      0.00
    1   -5   11     -0.60      0.00
    2   -5   11     -0.69      0.00
    3   -5   11     -0.69      0.00
    4   -5   11      0.51      0.00
    5   -5   11      1.85      0.00
    6   -5   11      1.47      0.00
   -3   -4   11     -1.16      0.00
   -2   -4   11     -1.85      0.00
   -1   -4   11     -1.52      0.00
    6   -4   11      0.60      0.00
    7   -4   11      0.81      0.00
    8   -4   11      0.16      0.00
   -4   -3   11     -0.48      0.00
   -3   -3   11      0.12      0.00
    8   -3   11      0.57      0.00
    9   -3   11      0.42      0.00
   -5   -2   11      0.65      0.00
   -4   -2   11      1.35      0.00
    8   -2   11     -0.51      0.00
    9   -2   11      0.15      0.00
   10   -2   11      0.16      0.00
   -5   -1   11     -0.88      0.00
   -4   -1   11     -1.03      0.00
    9   -1   11      0.26      0.00
   10   -1   11      0.51      0.00
   -6    0   11     -0.62      0.00
   -5    0   11     -0.59      0.00
   10    0   11     -0.28      0.00
   11    0   11     -0.25      0.00
   -6    1   11      1.30      0.00
   -5    1   11      1.84      0.00
   10    1   11      0.86      0.00
   11    1   11      1.16      0.00
   -6    2   11      0.01      0.00
   11    2   11     -1.14      0.00
   -6    3   11      0.66      0.00
   11    3   11     -0.42      0.00
   -6    4   11     -0.42      0.00
   11    4   11      1.10      0.00
   -6    5   11     -0.19      0.00
   -5    5   11      0.21      0.00
   11    5   11     -0.39      0.00
   -6    6   11     -0.80      0.00
   -5    6   11     -1.35      0.00
   10    6   11      0.05      0.00
   11    6   11     -0.89      0.00
   -5    7   11      1.46      0.00
   10    7   11      0.19      0.00
   11    7   11     -0.28      0.00
   -5    8   11     -1.35      0.00
   -4    8   11     -1.99      0.00
    4    8   11     -1.48      0.00
    9    8   11      0.05      0.00
   10    8   11     -0.02      0.00
   -4    9   11      0.94      0.00
   -3    9   11      1.15      0.00
    8    9   11     -0.17      0.00
    9    9   11      0.29      0.00
   -3   10   11     -1.31      0.00
   -2   10   11     -1.94      0.00
    7   10   11      1.69      0.00
    8   10   11      1.07      0.00
   -2   11   11      0.93      0.00
   -1   11   11      0.60      0.00
    0   11   11      0.05      0.00
    1   11   11      0.13      0.00
    3   11   11     -0.02      0.00
    4   11   11      0.32      0.00
    5   11   11      0.53      0.00
    6   11   11      0.16      0.00
    7   11   11     -0.49      0.00
    0   12   11      0.30      0.00
    1   12   11      0.70      0.00
    2   12   11      0.51      0.00
    3   12   11     -0.31      0.00
    4   12   11     -0.81      0.00
    5   12   11     -0.35      0.00
    2   -5   12      0.16      0.00
    3   -5   12     -0.56      0.00
   -1   -4   12      1.42      0.00
    0   -4   12      1.29      0.00
    1   -4   12      0.79      0.00
    2   -4   12      0.45      0.00
    3   -4   12      0.16      0.00
    4   -4   12     -0.50      0.00
    5   -4   12     -0.57      0.00
    6   -4   12      0.24      0.00
   -2   -3   12     -0.37      0.00
   -1   -3   12     -0.76      0.00
    0   -3   12     -0.58      0.00
    5   -3   12      1.17      0.00
    6   -3   12     -0.88      0.00
    7   -3   12     -1.53      0.00
    8   -3   12     -0.57      0.00
   -3   -2   12     -0.21      0.00
   -2   -2   12      0.16      0.00
    7   -2   12      1.10      0.00
    8   -2   12      0.15      0.00
    9   -2   12      0.09      0.00
   -4   -1   12     -0.52      0.00
   -3   -1   12     -0.31      0.00
    8   -1   12      0.88      0.00
    9   -1   12     -0.27      0.00
   10   -1   12     -0.76      0.00
   -5    0   12      0.99      0.00
   -4    0   12      1.46      0.00
    9    0   12      1.01      0.00
   10    0   12      1.00      0.00
   -5    1   12     -0.17      0.00
   -4    1   12     -0.10      0.00
   10    1   12     -0.76      0.00
   -5    2   12     -1.61      0.00
   -4    2   12     -2.65      0.00
   10    2   12      0.40      0.00
   11    2   12      0.10      0.00
   -5    3   12      0.28      0.00
   10    3   12      1.33      0.00
   11    3   12      1.14      0.00
   -5    4   12      0.56      0.00
   10    4   12     -1.68      0.00
   11    4   12     -1.21      0.00
   -5    5   12      0.12      0.00
   -4    5   12     -0.53      0.00
   10    5   12     -0.54      0.00
   11    5   12     -0.16      0.00
   -5    6   12      0.34      0.00
   -4    6   12      0.39      0.00
   10    6   12      0.82      0.00
   -5    7   12      0.31      0.00
   -4    7   12      0.52      0.00
    9    7   12     -1.35      0.00
   10    7   12     -1.12      0.00
   -4    8   12      0.04      0.00
   -3    8   12      0.70      0.00
    4    8   12      1.53      0.00
    8    8   12     -0.71      0.00
    9    8   12      0.22      0.00
   10    8   12      0.40      0.00
   -3    9   12      0.00      0.00
   -2    9   12     -0.36      0.00
    4    9   12     -0.97      0.00
    7    9   12      2.88      0.00
    8    9   12      1.67      0.00
    9    9   12     -0.06      0.00
   -2   10   12      0.54      0.00
   -1   10   12      1.30      0.00
    0   10   12      0.95      0.00
    6   10   12     -0.78      0.00
    7   10   12     -1.42      0.00
    8   10   12     -1.03      0.00
   -1   11   12     -0.63      0.00
    0   11   12     -0.85      0.00
    1   11   12      0.45      0.00
    2   11   12      1.43      0.00
    3   11   12      0.98      0.00
    4   11   12      0.32      0.00
    5   11   12      0.37      0.00
    6   11   12      0.55      0.00
    7   11   12      0.45      0.00
    2   12   12     -1.22      0.00
    3   12   12     -1.08      0.00
    4   12   12     -0.36      0.00
    0   -3   13      0.26      0.00
    1   -3   13     -0.13      0.00
    2   -3   13     -0.59      0.00
    3   -3   13     -0.07      0.00
    4   -3   13      0.60      0.00
    5   -3   13      0.28      0.00
    6   -3   13     -0.15      0.00
   -2   -2   13     -0.25      0.00
   -1   -2   13     -0.73      0.00
    0   -2   13     -1.29      0.00
    1   -2   13     -0.52      0.00
    2   -2   13      1.20      0.00
    3   -2   13      1.11      0.00
    4   -2   13     -0.63      0.00
    5   -2   13     -0.82      0.00
    6   -2   13      0.22      0.00
    7   -2   13      0.17      0.00
   -2   -1   13     -0.27      0.00
   -1   -1   13     -0.21      0.00
    6   -1   13     -0.33      0.00
    7   -1   13     -0.09      0.00
    8   -1   13      0.39      0.00
   -3    0   13      0.28      0.00
   -2    0   13      0.65      0.00
    8    0   13     -1.89      0.00
    9    0   13     -1.17      0.00
   -4    1   13     -0.51      0.00
   -3    1   13     -0.82      0.00
   -2    1   13     -0.40      0.00
    8    1   13      0.33      0.00
    9    1   13      0.45      0.00
   10    1   13      0.23      0.00
   -4    2   13      0.45      0.00
   -3    2   13      0.90      0.00
    9    2   13     -1.24      0.00
   10    2   13     -0.58      0.00
   -4    3   13      1.37      0.00
   -3    3   13      1.55      0.00
    9    3   13      1.82      0.00
   10    3   13      0.82      0.00
   -4    4   13     -1.37      0.00
   -3    4   13     -1.80      0.00
    9    4   13     -0.04      0.00
   10    4   13     -0.07      0.00
   -4    5   13     -0.06      0.00
   -3    5   13      0.59      0.00
    9    5   13      0.30      0.00
   10    5   13      0.81      0.00
   -4    6   13     -0.38      0.00
   -3    6   13     -0.64      0.00
    9    6   13      0.92      0.00
   10    6   13      0.32      0.00
   -3    7   13     -0.74      0.00
   -2    7   13     -0.33      0.00
    8    7   13     -0.67      0.00
    9    7   13     -0.80      0.00
   -3    8   13      0.20      0.00
   -2    8   13     -0.22      0.00
   -1    8   13     -0.11      0.00
    4    8   13     -0.77      0.00
    7    8   13     -0.23      0.00
    8    8   13      0.87      0.00
    9    8   13      0.92      0.00
   -2    9   13     -0.34      0.00
   -1    9   13     -0.68      0.00
    0    9   13     -1.62      0.00
    4    9   13     -0.65      0.00
    6    9   13     -1.34      0.00
    7    9   13     -0.44      0.00
    8    9   13     -0.47      0.00
   -1   10   13      0.54      0.00
    0   10   13      0.78      0.00
    1   10   13      0.38      0.00
    2   10   13     -0.29      0.00
    3   10   13     -0.01      0.00
    4   10   13      1.11      0.00
    5   10   13      1.67      0.00
    6   10   13      0.52      0.00
    7   10   13     -0.99      0.00
    1   11   13      0.11      0.00
    2   11   13      0.41      0.00
    3   11   13     -0.13      0.00
    4   11   13     -0.92      0.00
    5   11   13     -1.01      0.00
    1   -2   14      0.64      0.00
    2   -2   14      0.95      0.00
    3   -2   14     -0.04      0.00
    4   -2   14     -0.95      0.00
    5   -2   14     -0.39      0.00
    0   -1   14      1.05      0.00
    1   -1   14     -0.09      0.00
    2   -1   14     -1.85      0.00
    3   -1   14     -1.74      0.00
    4   -1   14     -0.31      0.00
    5   -1   14     -0.01      0.00
    6   -1   14     -0.48      0.00
    7   -1   14     -0.21      0.00
   -1    0   14     -1.32      0.00
    0    0   14     -1.59      0.00
    1    0   14     -0.27      0.00
    2    0   14      0.90      0.00
    3    0   14      0.67      0.00
    4    0   14      0.15      0.00
    5    0   14      0.31      0.00
    6    0   14      0.59      0.00
    7    0   14      0.26      0.00
    8    0   14      0.12      0.00
   -2    1   14      0.11      0.00
   -1    1   14      0.56      0.00
    0    1   14      0.80      0.00
    6    1   14      0.33      0.00
    7    1   14      0.77      0.00
    8    1   14      0.90      0.00
    9    1   14      0.43      0.00
   -2    2   14      0.31      0.00
   -1    2   14      0.04      0.00
    7    2   14      1.00      0.00
    8    2   14      1.29      0.00
    9    2   14      0.59      0.00
   -3    3   14     -0.76      0.00
   -2    3   14     -1.15      0.00
   -1    3   14     -0.37      0.00
    8    3   14     -2.01      0.00
    9    3   14     -0.99      0.00
   -3    4   14      0.11      0.00
   -2    4   14      0.46      0.00
   -1    4   14     -0.08      0.00
    8    4   14      0.30      0.00
    9    4   14     -0.80      0.00
   -3    5   14      0.54      0.00
   -2    5   14     -0.21      0.00
   -1    5   14     -0.62      0.00
    8    5   14      0.44      0.00
    9    5   14      0.57      0.00
   -3    6   14      0.87      0.00
   -2    6   14      1.49      0.00
   -1    6   14      1.98      0.00
    7    6   14     -1.21      0.00
    8    6   14     -0.49      0.00
    9    6   14     -0.04      0.00
   -2    7   14      0.22      0.00
   -1    7   14     -0.42      0.00
    0    7   14     -1.30      0.00
    7    7   14      0.77      0.00
    8    7   14      0.05      0.00
    9    7   14     -0.60      0.00
   -2    8   14     -0.45      0.00
   -1    8   14     -0.33      0.00
    0    8   14      0.07      0.00
    1    8   14      0.33      0.00
    4    8   14      0.45      0.00
    5    8   14      0.57      0.00
    6    8   14     -0.19      0.00
    7    8   14     -0.75      0.00
    8    8   14     -0.20      0.00
   -1    9   14      0.15      0.00
    0    9   14      0.29      0.00
    1    9   14      0.51      0.00
    2    9   14      0.44      0.00
    3    9   14      0.34      0.00
    4    9   14      0.52      0.00
    5    9   14      0.98      0.00
    6    9   14      1.83      0.00
    7    9   14      1.71      0.00
    1   10   14      0.30      0.00
    2   10   14      0.15      0.00
    3   10   14     -0.04      0.00
    4   10   14     -0.21      0.00
    5   10   14     -0.24      0.00
    6   10   14     -0.46      0.00
    1    0   15     -0.04      0.00
    2    0   15      0.21      0.00
    3    0   15      0.24      0.00
    4    0   15      0.08      0.00
    5    0   15     -0.05      0.00
    6    0   15     -0.16      0.00
    0    1   15      0.36      0.00
    1    1   15     -0.22      0.00
    2    1   15     -0.71      0.00
    3    1   15     -0.46      0.00
    4    1   15     -0.53      0.00
    5    1   15     -0.85      0.00
    6    1   15     -0.58      0.00
    7    1   15     -0.11      0.00
   -1    2   15     -0.23      0.00
    0    2   15     -0.52      0.00
    1    2   15     -0.09      0.00
    2    2   15      0.25      0.00
    3    2   15      0.09      0.00
    4    2   15      0.42      0.00
    5    2   15      0.71      0.00
    6    2   15     -0.10      0.00
    7    2   15     -1.02      0.00
    8    2   15     -1.09      0.00
   -1    3   15      0.74      0.00
    0    3   15      0.75      0.00
    1    3   15      0.72      0.00
    2    3   15      0.96      0.00
    3    3   15      0.68      0.00
    4    3   15     -0.06      0.00
    5    3   15      0.05      0.00
    6    3   15      0.89      0.00
    7    3   15      0.95      0.00
    8    3   15      0.53      0.00
   -1    4   15     -0.59      0.00
    0    4   15     -0.59      0.00
    1    4   15     -0.21      0.00
    2    4   15     -0.11      0.00
    3    4   15      0.15      0.00
    4    4   15      0.41      0.00
    5    4   15     -0.29      0.00
    6    4   15     -0.82      0.00
    7    4   15      0.09      0.00
    8    4   15      0.77      0.00
   -1    5   15      0.14      0.00
    0    5   15      0.33      0.00
    1    5   15     -0.37      0.00
    2    5   15     -0.86      0.00
    3    5   15     -0.11      0.00
    4    5   15      0.99      0.00
    5    5   15      1.60      0.00
    6    5   15      0.94      0.00
    7    5   15     -0.77      0.00
    8    5   15     -1.26      0.00
   -1    6   15     -0.77      0.00
    0    6   15     -0.65      0.00
    1    6   15     -0.29      0.00
    2    6   15      0.41      0.00
    3    6   15      0.63      0.00
    4    6   15      0.82      0.00
    5    6   15      1.18      0.00
    6    6   15      1.17      0.00
    7    6   15      1.10      0.00
    8    6   15      0.80      0.00
   -1    7   15     -0.49      0.00
    0    7   15     -0.36      0.00
    1    7   15      0.35      0.00
    2    7   15      0.73      0.00
    3    7   15      0.80      0.00
    4    7   15      0.42      0.00
    5    7   15     -0.16      0.00
    6    7   15      0.07      0.00
    7    7   15      0.45      0.00
    0    8   15      0.69      0.00
    1    8   15      0.72      0.00
    2    8   15      0.62      0.00
    3    8   15      0.00      0.00
    4    8   15     -0.54      0.00
    5    8   15     -0.55      0.00
    6    8   15     -0.70      0.00
    7    8   15     -0.64      0.00
    1    9   15     -0.73      0.00
    2    9   15     -1.41      0.00
    3    9   15     -1.09      0.00
    4    9   15     -0.42      0.00
    5    9   15     -0.32      0.00
    0    0    0      0.00      0.00
# SQUEEZE RESULTS (Version = 110917)
# Note: Data are Listed for all Voids in the P1 Unit Cell
# i.e. Centre of Gravity, Solvent Accessible Volume,
# Recovered number of Electrons in the Void and
# Details about the Squeezed Material
loop_
  _platon_squeeze_void_nr
  _platon_squeeze_void_average_x
  _platon_squeeze_void_average_y
  _platon_squeeze_void_average_z
  _platon_squeeze_void_volume
  _platon_squeeze_void_count_electrons
  _platon_squeeze_void_content
   1  0.038  0.499  0.349       417       235 ' '
# Missing Reflections Below sin(th)/lambda = 0.25
loop_
  _platon_missing_refln_index_h
  _platon_missing_refln_index_k
  _platon_missing_refln_index_l
  _platon_missing_refln_theta
    0    0    1     1.801
    1    0    1     2.391
    2    0    1     4.167
    0    1    1     2.252
    1    1    1     2.746
    1    2    3     5.432
    2    3    4     7.884
    2    4    5     9.890
_platon_squeeze_void_probe_radius                  1.20
_platon_squeeze_details
)
TITL 1 in P-1
CELL    9.9510   10.3190   12.6140     68.75     73.03     83.92
SPGR P-1
# Solvent Accessible Volume =       417
# Electrons Found in S.A.V. =       235
# Note: Atoms in Void are Labelled as Cxxx and Qxxx for all Others
C101 0.966 0.225 0.501 !       3.96 eA-3
C102 0.855 0.344 0.504 !       3.68 eA-3
C103 0.791 0.412 0.392 !       3.41 eA-3
C104 0.791 0.499 0.389 !       3.12 eA-3
C105 0.156 0.469 0.025 !       2.96 eA-3
C106 0.944 0.466 0.075 !       2.78 eA-3
C107 0.343 0.469 0.031 !       2.69 eA-3
Q108 0.970 0.311 0.372 !       2.66 eA-3
C109 1.000 0.500 0.000 !       2.47 eA-3
C110 0.844 0.475 0.086 !       2.18 eA-3
C111 0.972 0.467 0.446 !       2.16 eA-3
C112 0.224 0.405 0.100 !       2.10 eA-3
C113 0.156 0.347 0.195 !       2.08 eA-3
C114 0.096 0.373 0.292 !       1.99 eA-3
Q115 0.500 0.680 0.294 !       1.95 eA-3
Q116 0.474 0.748 0.210 !       1.92 eA-3
Q117 0.405 0.690 0.269 !       1.86 eA-3
C118 1.000 0.500 0.500 !       1.73 eA-3
C119 0.986 0.315 0.431 !       1.73 eA-3
Q120 0.818 0.994 0.236 !       1.57 eA-3
Q121 0.549 0.689 0.220 !       1.45 eA-3
Q122 0.054 0.541 0.472 !       1.43 eA-3
C123 0.084 0.439 0.484 !       1.30 eA-3
Q124 0.845 0.994 0.346 !       1.30 eA-3
Q125 1.001 0.603 0.438 !       1.23 eA-3
Q126 0.120 0.462 0.232 !       1.20 eA-3
C127 0.049 0.438 0.350 !       1.18 eA-3
Q128 0.519 0.966 0.243 !       1.16 eA-3
C129 0.844 0.477 0.296 !       1.07 eA-3
Q130 1.015 0.289 0.284 !       1.04 eA-3
Q131 0.373 0.811 0.415 !       1.02 eA-3
Q132 0.739 0.697 0.249 !       1.01 eA-3
C133 0.893 0.586 0.435 !       1.00 eA-3
C134 0.506 0.439 0.004 !       0.98 eA-3
Q135 0.486 0.654 0.220 !       0.95 eA-3
C136 0.909 0.498 0.329 !       0.94 eA-3
Q137 0.127 0.594 0.315 !       0.92 eA-3
Q138 0.087 0.495 0.149 !       0.91 eA-3
Q139 0.038 0.526 0.213 !       0.89 eA-3
Q140 0.056 0.148 0.399 !       0.89 eA-3
Q141 0.776 0.942 0.455 !       0.87 eA-3
Q142 0.881 0.720 0.392 !       0.87 eA-3
Q143 0.125 0.630 0.270 !       0.86 eA-3
Q144 0.860 0.188 0.440 !       0.86 eA-3
Q145 0.061 0.727 0.377 !       0.86 eA-3
Q146 0.978 0.754 0.391 !       0.85 eA-3
Q147 0.173 0.308 0.313 !       0.84 eA-3
Q148 0.180 0.499 0.425 !       0.84 eA-3
Q149 0.108 0.684 0.281 !       0.81 eA-3
Q150 0.989 0.908 0.316 !       0.79 eA-3
Q151 0.960 0.558 0.358 !       0.78 eA-3
Q152 0.218 0.561 0.135 !       0.78 eA-3
Q153 0.749 0.752 0.135 !       0.77 eA-3
Q154 0.124 0.992 0.437 !       0.77 eA-3
Q155 0.993 0.538 0.149 !       0.77 eA-3
Q156 0.252 0.994 0.463 !       0.75 eA-3
Q157 0.939 0.321 0.242 !       0.75 eA-3
Q158 0.661 0.615 0.011 !       0.74 eA-3
Q159 0.068 0.659 0.333 !       0.73 eA-3
Q160 0.905 0.666 0.342 !       0.73 eA-3
Q161 0.343 0.399 0.125 !       0.72 eA-3
Q162 0.119 0.034 0.342 !       0.72 eA-3
Q163 0.145 0.218 0.487 !       0.71 eA-3
Q164 0.197 0.682 0.269 !       0.70 eA-3
Q165 0.670 0.746 0.115 !       0.70 eA-3
Q166 0.058 0.131 0.282 !       0.70 eA-3
Q167 0.123 0.751 0.079 !       0.69 eA-3
Q168 0.928 0.575 0.238 !       0.69 eA-3
Q169 0.915 0.756 0.101 !       0.69 eA-3
Q170 0.438 0.901 0.363 !       0.68 eA-3
Q171 0.819 0.283 0.370 !       0.67 eA-3
Q172 0.064 0.321 0.136 !       0.66 eA-3
Q173 0.960 0.593 0.257 !       0.65 eA-3
Q174 0.715 0.853 0.467 !       0.64 eA-3
Q175 1.012 0.753 0.307 !       0.64 eA-3
Q176 0.981 0.849 0.297 !       0.64 eA-3
Q177 0.392 0.177 0.125 !       0.63 eA-3
Q178 0.311 0.476 0.424 !       0.62 eA-3
Q179 0.040 0.222 0.225 !       0.62 eA-3
Q180 0.689 0.757 0.198 !       0.62 eA-3
Q181 0.987 0.174 0.341 !       0.61 eA-3
Q182 0.209 0.755 0.203 !       0.61 eA-3
Q183 0.791 0.343 0.189 !       0.61 eA-3
Q184 0.936 0.795 0.299 !       0.60 eA-3
Q185 0.864 1.006 0.486 !       0.59 eA-3
Q186 0.845 0.062 0.113 !       0.59 eA-3
Q187 0.881 0.089 0.245 !       0.59 eA-3
Q188 0.978 0.592 0.055 !       0.59 eA-3
Q189 0.886 0.971 0.423 !       0.58 eA-3
Q190 0.230 0.165 0.304 !       0.58 eA-3
Q191 0.982 1.002 0.375 !       0.57 eA-3
Q192 0.742 1.015 0.316 !       0.57 eA-3
Q193 0.830 0.631 0.271 !       0.57 eA-3
Q194 0.153 0.596 0.175 !       0.57 eA-3
Q195 0.042 0.064 0.330 !       0.57 eA-3
Q196 0.180 0.908 0.463 !       0.57 eA-3
Q197 0.057 0.183 0.013 !       0.57 eA-3
Q198 0.971 0.748 0.182 !       0.56 eA-3
Q199 0.149 0.815 0.330 !       0.56 eA-3
)
;
_shelx_fab_checksum              9941
loop_
_space_group_symop_operation_xyz
'x, y, z'
'-x, -y, -z'
loop_
_atom_site_label
_atom_site_type_symbol
_atom_site_fract_x
_atom_site_fract_y
_atom_site_fract_z
_atom_site_U_iso_or_equiv
_atom_site_adp_type
_atom_site_occupancy
_atom_site_site_symmetry_order
_atom_site_calc_flag
_atom_site_refinement_flags_posn
_atom_site_refinement_flags_adp
_atom_site_refinement_flags_occupancy
_atom_site_disorder_assembly
_atom_site_disorder_group
Cd1 Cd 0.500000 0.000000 0.000000 0.0317(2) Uani 1 2 d S . P . .
Cd2 Cd 0.52561(5) 0.30213(5) -0.24528(4) 0.0326(2) Uani 1 1 d . . . . .
O2 O 0.7979(7) 0.3159(7) -0.2486(6) 0.0589(16) Uani 1 1 d . . . . .
O4 O 1.3238(6) 0.1577(8) -0.0301(7) 0.064(2) Uani 1 1 d . . . . .
C6 C 1.0910(7) 0.1843(7) -0.0471(7) 0.0325(15) Uani 1 1 d . . . . .
O3 O 1.2937(6) 0.2557(7) -0.2092(6) 0.0587(17) Uani 1 1 d . . . . .
C5 C 0.9993(7) 0.2238(7) -0.1185(7) 0.0327(15) Uani 1 1 d . . . . .
H5 H 1.034374 0.263656 -0.200104 0.039 Uiso 1 1 calc R U . . .
O8 O 0.5259(6) -0.0275(7) 0.8218(5) 0.0532(15) Uani 1 1 d . . . . .
O7 O 0.4991(7) -0.4771(6) 0.7648(6) 0.0571(16) Uani 1 1 d . . . . .
O6 O 0.5923(7) -0.4972(6) 0.5932(5) 0.0518(15) Uani 1 1 d . . . . .
O1 O 0.6283(5) 0.2029(6) -0.0936(5) 0.0414(12) Uani 1 1 d . . . . .
C15 C 0.6692(10) 0.0014(9) 0.5132(9) 0.061(3) Uani 1 1 d . . . . .
H15 H 0.695337 0.094605 0.481092 0.073 Uiso 1 1 calc R U . . .
C9 C 0.8051(7) 0.1450(7) 0.0544(7) 0.0359(17) Uani 1 1 d . . . . .
H9 H 0.709210 0.129307 0.088921 0.043 Uiso 1 1 calc R U . . .
C1 C 0.7561(8) 0.2433(7) -0.1430(6) 0.0346(16) Uani 1 1 d . . . . .
O5 O 0.9201(8) 0.0987(8) 0.3165(6) 0.074(2) Uani 1 1 d . U . . .
O9 O 0.6043(6) 0.1587(6) 0.6598(6) 0.0571(16) Uani 1 1 d . . . . .
C4 C 0.8556(7) 0.2036(7) -0.0678(7) 0.0321(15) Uani 1 1 d . . . . .
C14 C 0.6077(8) -0.0575(8) 0.6342(7) 0.0417(18) Uani 1 1 d . . . . .
C12 C 0.5958(9) -0.2725(8) 0.6058(7) 0.0407(18) Uani 1 1 d . . . . .
C13 C 0.5705(8) -0.1960(7) 0.6801(7) 0.0370(17) Uani 1 1 d . . . . .
H13 H 0.528522 -0.237879 0.760599 0.044 Uiso 1 1 calc R U . . .
C11 C 0.5780(8) 0.0296(8) 0.7132(8) 0.0423(18) Uani 1 1 d . . . . .
C3 C 0.8521(9) 0.0612(10) 0.2596(7) 0.0551(19) Uani 1 1 d D U . . .
C8 C 0.8961(8) 0.1098(8) 0.1254(7) 0.0457(16) Uani 1 1 d D U . . .
C7 C 1.0397(8) 0.1299(8) 0.0738(7) 0.0403(18) Uani 1 1 d . . . . .
H7 H 1.101126 0.106431 0.121053 0.048 Uiso 1 1 calc R U . . .
C10 C 0.5590(8) -0.4244(8) 0.6574(7) 0.0389(17) Uani 1 1 d . . . . .
C17 C 0.6572(10) -0.2139(8) 0.4867(7) 0.052(2) Uani 1 1 d . . . . .
H17 H 0.674552 -0.267796 0.438952 0.062 Uiso 1 1 calc R U . . .
C2 C 1.2464(8) 0.2003(9) -0.0989(8) 0.0429(19) Uani 1 1 d . . . . .
N1 N 0.7472(9) -0.0227(8) 0.3089(7) 0.0603(18) Uani 1 1 d . U . . .
H1 H 0.708795 -0.047248 0.266210 0.072 Uiso 1 1 calc R U . . .
C16 C 0.6929(11) -0.0768(9) 0.4383(9) 0.060(2) Uani 1 1 d . U . . .
loop_
_atom_site_aniso_label
_atom_site_aniso_U_11
_atom_site_aniso_U_22
_atom_site_aniso_U_33
_atom_site_aniso_U_23
_atom_site_aniso_U_13
_atom_site_aniso_U_12
Cd1 0.0277(4) 0.0371(4) 0.0277(4) -0.0081(3) -0.0061(3) -0.0050(3)
Cd2 0.0270(3) 0.0307(3) 0.0339(3) -0.0071(2) -0.0041(2) -0.0020(2)
O2 0.049(4) 0.066(4) 0.055(4) -0.006(3) -0.022(3) -0.007(3)
O4 0.028(3) 0.112(6) 0.092(5) -0.076(5) -0.031(3) 0.022(3)
C6 0.025(3) 0.034(4) 0.046(4) -0.022(3) -0.012(3) 0.003(3)
O3 0.029(3) 0.080(4) 0.067(4) -0.035(4) 0.001(3) -0.009(3)
C5 0.027(4) 0.033(3) 0.036(4) -0.013(3) -0.002(3) -0.007(3)
O8 0.054(4) 0.063(4) 0.040(3) -0.023(3) 0.004(3) -0.018(3)
O7 0.071(4) 0.034(3) 0.051(4) -0.014(3) 0.007(3) -0.007(3)
O6 0.082(4) 0.037(3) 0.046(3) -0.017(3) -0.032(3) 0.010(3)
O1 0.028(3) 0.046(3) 0.054(3) -0.018(3) -0.015(2) 0.000(2)
C15 0.063(6) 0.035(4) 0.066(6) -0.017(4) 0.009(5) -0.002(4)
C9 0.020(3) 0.029(3) 0.048(4) -0.006(3) 0.002(3) -0.010(3)
C1 0.036(4) 0.029(3) 0.034(4) -0.006(3) -0.006(3) -0.009(3)
O5 0.073(5) 0.097(5) 0.053(3) -0.026(4) -0.007(3) -0.034(4)
O9 0.050(4) 0.042(3) 0.077(4) -0.032(3) 0.000(3) -0.002(3)
C4 0.023(3) 0.025(3) 0.048(4) -0.012(3) -0.009(3) -0.004(3)
C14 0.036(4) 0.035(4) 0.045(5) -0.015(3) 0.008(3) -0.006(3)
C12 0.049(5) 0.035(4) 0.042(4) -0.017(3) -0.017(4) 0.010(3)
C13 0.033(4) 0.035(4) 0.034(4) -0.010(3) 0.002(3) -0.002(3)
C11 0.033(4) 0.044(4) 0.051(5) -0.025(4) 0.001(3) -0.009(3)
C3 0.041(4) 0.067(5) 0.055(3) -0.021(4) -0.010(3) -0.002(3)
C8 0.037(4) 0.046(4) 0.053(3) -0.017(3) -0.015(3) 0.012(3)
C7 0.028(4) 0.049(4) 0.042(4) -0.015(4) -0.013(3) 0.011(3)
C10 0.042(4) 0.037(4) 0.048(5) -0.022(4) -0.020(4) 0.008(3)
C17 0.077(6) 0.035(4) 0.036(4) -0.015(3) -0.008(4) 0.011(4)
C2 0.032(4) 0.052(5) 0.053(5) -0.036(4) -0.001(4) -0.004(3)
N1 0.069(5) 0.055(4) 0.056(3) -0.013(3) -0.018(3) -0.015(3)
C16 0.068(6) 0.041(5) 0.056(3) -0.014(3) -0.001(4) 0.014(4)
loop_
_atom_type_symbol
_atom_type_description
_atom_type_scat_dispersion_real
_atom_type_scat_dispersion_imag
_atom_type_scat_source
C C 0.0033 0.0016 'International Tables Vol C Tables 4.2.6.8 and 6.1.1.4'
H H 0.0000 0.0000 'International Tables Vol C Tables 4.2.6.8 and 6.1.1.4'
N N 0.0061 0.0033 'International Tables Vol C Tables 4.2.6.8 and 6.1.1.4'
O O 0.0106 0.0060 'International Tables Vol C Tables 4.2.6.8 and 6.1.1.4'
Cd Cd -0.8075 1.2024 'International Tables Vol C Tables 4.2.6.8 and 6.1.1.4'
loop_
_geom_angle_atom_site_label_1
_geom_angle_atom_site_label_2
_geom_angle_atom_site_label_3
_geom_angle
_geom_angle_site_symmetry_1
_geom_angle_site_symmetry_3
_geom_angle_publ_flag
O4 Cd1 O4 180.0(6) 2_755 1_455 ?
O4 Cd1 O1 100.1(2) 2_755 . ?
O4 Cd1 O1 79.9(2) 1_455 . ?
O4 Cd1 O1 79.9(2) 2_755 2_655 ?
O4 Cd1 O1 100.1(2) 1_455 2_655 ?
O1 Cd1 O1 180.0 . 2_655 ?
O4 Cd1 O8 91.4(2) 2_755 2_656 ?
O4 Cd1 O8 88.6(2) 1_455 2_656 ?
O1 Cd1 O8 88.9(2) . 2_656 ?
O1 Cd1 O8 91.1(2) 2_655 2_656 ?
O4 Cd1 O8 88.6(2) 2_755 1_554 ?
O4 Cd1 O8 91.4(2) 1_455 1_554 ?
O1 Cd1 O8 91.1(2) . 1_554 ?
O1 Cd1 O8 88.9(2) 2_655 1_554 ?
O8 Cd1 O8 180.0(3) 2_656 1_554 ?
O4 Cd1 Cd2 125.2(2) 2_755 . ?
O4 Cd1 Cd2 54.8(2) 1_455 . ?
O1 Cd1 Cd2 40.74(13) . . ?
O1 Cd1 Cd2 139.26(13) 2_655 . ?
O8 Cd1 Cd2 116.66(16) 2_656 . ?
O8 Cd1 Cd2 63.34(16) 1_554 . ?
O4 Cd1 Cd2 54.8(2) 2_755 2_655 ?
O4 Cd1 Cd2 125.2(2) 1_455 2_655 ?
O1 Cd1 Cd2 139.26(13) . 2_655 ?
O1 Cd1 Cd2 40.74(13) 2_655 2_655 ?
O8 Cd1 Cd2 63.34(16) 2_656 2_655 ?
O8 Cd1 Cd2 116.66(16) 1_554 2_655 ?
Cd2 Cd1 Cd2 180.0 . 2_655 ?
O9 Cd2 O3 95.2(2) 1_554 1_455 ?
O9 Cd2 O1 98.3(2) 1_554 . ?
O3 Cd2 O1 117.9(2) 1_455 . ?
O9 Cd2 O6 96.2(2) 1_554 1_564 ?
O3 Cd2 O6 110.4(2) 1_455 1_564 ?
O1 Cd2 O6 127.7(2) . 1_564 ?
O9 Cd2 O7 152.0(2) 1_554 1_564 ?
O3 Cd2 O7 98.0(2) 1_455 1_564 ?
O1 Cd2 O7 97.2(2) . 1_564 ?
O6 Cd2 O7 56.0(2) 1_564 1_564 ?
O9 Cd2 C10 124.0(2) 1_554 1_564 ?
O3 Cd2 C10 107.6(2) 1_455 1_564 ?
O1 Cd2 C10 113.3(2) . 1_564 ?
O6 Cd2 C10 28.1(2) 1_564 1_564 ?
O7 Cd2 C10 28.0(2) 1_564 1_564 ?
O9 Cd2 Cd1 82.53(18) 1_554 . ?
O3 Cd2 Cd1 82.06(18) 1_455 . ?
O1 Cd2 Cd1 40.97(13) . . ?
O6 Cd2 Cd1 167.57(16) 1_564 . ?
O7 Cd2 Cd1 123.68(16) 1_564 . ?
C10 Cd2 Cd1 149.33(17) 1_564 . ?
C2 O4 Cd1 138.2(5) . 1_655 ?
C7 C6 C5 120.3(6) . . ?
C7 C6 C2 118.2(7) . . ?
C5 C6 C2 121.5(7) . . ?
C2 O3 Cd2 106.6(5) . 1_655 ?
C4 C5 C6 120.1(7) . . ?
C4 C5 H5 120.0 . . ?
C6 C5 H5 120.0 . . ?
C11 O8 Cd1 141.9(5) . 1_556 ?
C10 O7 Cd2 91.4(5) . 1_546 ?
C10 O6 Cd2 91.5(5) . 1_546 ?
C1 O1 Cd2 102.4(5) . . ?
C1 O1 Cd1 139.7(5) . . ?
Cd2 O1 Cd1 98.28(19) . . ?
C14 C15 C16 121.5(8) . . ?
C14 C15 H15 119.3 . . ?
C16 C15 H15 119.3 . . ?
C8 C9 C4 120.7(6) . . ?
C8 C9 H9 119.7 . . ?
C4 C9 H9 119.7 . . ?
O2 C1 O1 122.5(7) . . ?
O2 C1 C4 119.6(7) . . ?
O1 C1 C4 117.8(6) . . ?
C11 O9 Cd2 119.3(5) . 1_556 ?
C9 C4 C5 119.1(7) . . ?
C9 C4 C1 120.1(6) . . ?
C5 C4 C1 120.8(7) . . ?
C13 C14 C15 118.3(7) . . ?
C13 C14 C11 120.8(7) . . ?
C15 C14 C11 120.8(7) . . ?
C17 C12 C13 121.6(7) . . ?
C17 C12 C10 119.1(7) . . ?
C13 C12 C10 119.3(7) . . ?
C14 C13 C12 119.8(7) . . ?
C14 C13 H13 120.1 . . ?
C12 C13 H13 120.1 . . ?
O8 C11 O9 125.5(7) . . ?
O8 C11 C14 119.1(7) . . ?
O9 C11 C14 115.4(7) . . ?
N1 C3 O5 124.3(8) . . ?
N1 C3 C8 114.3(8) . . ?
O5 C3 C8 121.3(8) . . ?
C9 C8 C7 119.7(7) . . ?
C9 C8 C3 125.3(7) . . ?
C7 C8 C3 114.8(7) . . ?
C6 C7 C8 120.0(7) . . ?
C6 C7 H7 120.0 . . ?
C8 C7 H7 120.0 . . ?
O7 C10 O6 120.8(7) . . ?
O7 C10 C12 119.3(7) . . ?
O6 C10 C12 119.9(7) . . ?
O7 C10 Cd2 60.6(4) . 1_546 ?
O6 C10 Cd2 60.5(4) . 1_546 ?
C12 C10 Cd2 172.6(5) . 1_546 ?
C16 C17 C12 120.1(8) . . ?
C16 C17 H17 120.0 . . ?
C12 C17 H17 120.0 . . ?
O4 C2 O3 123.1(7) . . ?
O4 C2 C6 118.4(8) . . ?
O3 C2 C6 118.5(7) . . ?
C3 N1 C16 119.9(8) . . ?
C3 N1 H1 120.0 . . ?
C16 N1 H1 120.0 . . ?
C17 C16 C15 118.7(9) . . ?
C17 C16 N1 115.3(8) . . ?
C15 C16 N1 125.9(8) . . ?
loop_
_geom_bond_atom_site_label_1
_geom_bond_atom_site_label_2
_geom_bond_distance
_geom_bond_site_symmetry_2
_geom_bond_publ_flag
Cd1 O4 2.281(6) 2_755 ?
Cd1 O4 2.281(6) 1_455 ?
Cd1 O1 2.303(5) . ?
Cd1 O1 2.303(5) 2_655 ?
Cd1 O8 2.304(6) 2_656 ?
Cd1 O8 2.304(6) 1_554 ?
Cd1 Cd2 3.4748(6) . ?
Cd1 Cd2 3.4748(6) 2_655 ?
Cd2 O9 2.174(6) 1_554 ?
Cd2 O3 2.285(6) 1_455 ?
Cd2 O1 2.292(5) . ?
Cd2 O6 2.307(6) 1_564 ?
Cd2 O7 2.311(6) 1_564 ?
Cd2 C10 2.651(8) 1_564 ?
O2 C1 1.236(9) . ?
O4 C2 1.257(11) . ?
C6 C7 1.374(11) . ?
C6 C5 1.394(10) . ?
C6 C2 1.494(10) . ?
O3 C2 1.257(11) . ?
C5 C4 1.390(10) . ?
C5 H5 0.9300 . ?
O8 C11 1.248(10) . ?
O7 C10 1.245(10) . ?
O6 C10 1.249(9) . ?
O1 C1 1.281(9) . ?
C15 C14 1.391(12) . ?
C15 C16 1.408(14) . ?
C15 H15 0.9300 . ?
C9 C8 1.387(11) . ?
C9 C4 1.389(11) . ?
C9 H9 0.9300 . ?
C1 C4 1.493(10) . ?
O5 C3 1.290(11) . ?
O9 C11 1.272(10) . ?
C14 C13 1.379(10) . ?
C14 C11 1.519(11) . ?
C12 C17 1.371(11) . ?
C12 C13 1.386(11) . ?
C12 C10 1.503(11) . ?
C13 H13 0.9300 . ?
C3 N1 1.283(12) . ?
C3 C8 1.519(8) . ?
C8 C7 1.389(11) . ?
C7 H7 0.9300 . ?
C17 C16 1.362(13) . ?
C17 H17 0.9300 . ?
N1 C16 1.469(12) . ?
N1 H1 0.8600 . ?
loop_
_geom_torsion_atom_site_label_1
_geom_torsion_atom_site_label_2
_geom_torsion_atom_site_label_3
_geom_torsion_atom_site_label_4
_geom_torsion
_geom_torsion_site_symmetry_1
_geom_torsion_site_symmetry_2
_geom_torsion_site_symmetry_3
_geom_torsion_site_symmetry_4
_geom_torsion_publ_flag
C7 C6 C5 C4 -2.3(10) . . . . ?
C2 C6 C5 C4 178.0(6) . . . . ?
Cd2 O1 C1 O2 -1.2(9) . . . . ?
Cd1 O1 C1 O2 118.0(8) . . . . ?
Cd2 O1 C1 C4 176.9(5) . . . . ?
Cd1 O1 C1 C4 -63.9(10) . . . . ?
C8 C9 C4 C5 1.4(11) . . . . ?
C8 C9 C4 C1 -179.0(7) . . . . ?
C6 C5 C4 C9 0.6(10) . . . . ?
C6 C5 C4 C1 -179.0(6) . . . . ?
O2 C1 C4 C9 167.9(7) . . . . ?
O1 C1 C4 C9 -10.3(10) . . . . ?
O2 C1 C4 C5 -12.5(11) . . . . ?
O1 C1 C4 C5 169.3(6) . . . . ?
C16 C15 C14 C13 0.3(14) . . . . ?
C16 C15 C14 C11 -177.7(9) . . . . ?
C15 C14 C13 C12 0.5(12) . . . . ?
C11 C14 C13 C12 178.5(7) . . . . ?
C17 C12 C13 C14 -0.1(12) . . . . ?
C10 C12 C13 C14 178.0(7) . . . . ?
Cd1 O8 C11 O9 -23.9(15) 1_556 . . . ?
Cd1 O8 C11 C14 159.1(7) 1_556 . . . ?
Cd2 O9 C11 O8 -10.3(12) 1_556 . . . ?
Cd2 O9 C11 C14 166.8(5) 1_556 . . . ?
C13 C14 C11 O8 3.8(12) . . . . ?
C15 C14 C11 O8 -178.2(9) . . . . ?
C13 C14 C11 O9 -173.5(7) . . . . ?
C15 C14 C11 O9 4.5(12) . . . . ?
C4 C9 C8 C7 -1.7(12) . . . . ?
C4 C9 C8 C3 172.5(8) . . . . ?
N1 C3 C8 C9 40.3(13) . . . . ?
O5 C3 C8 C9 -142.3(9) . . . . ?
N1 C3 C8 C7 -145.3(9) . . . . ?
O5 C3 C8 C7 32.1(12) . . . . ?
C5 C6 C7 C8 2.0(11) . . . . ?
C2 C6 C7 C8 -178.3(7) . . . . ?
C9 C8 C7 C6 -0.1(12) . . . . ?
C3 C8 C7 C6 -174.8(7) . . . . ?
Cd2 O7 C10 O6 6.3(8) 1_546 . . . ?
Cd2 O7 C10 C12 -171.6(6) 1_546 . . . ?
Cd2 O6 C10 O7 -6.3(8) 1_546 . . . ?
Cd2 O6 C10 C12 171.5(6) 1_546 . . . ?
C17 C12 C10 O7 -177.7(8) . . . . ?
C13 C12 C10 O7 4.1(11) . . . . ?
C17 C12 C10 O6 4.4(12) . . . . ?
C13 C12 C10 O6 -173.8(7) . . . . ?
C13 C12 C17 C16 -1.1(14) . . . . ?
C10 C12 C17 C16 -179.3(8) . . . . ?
Cd1 O4 C2 O3 -60.1(13) 1_655 . . . ?
Cd1 O4 C2 C6 119.9(8) 1_655 . . . ?
Cd2 O3 C2 O4 -12.1(10) 1_655 . . . ?
Cd2 O3 C2 C6 167.9(5) 1_655 . . . ?
C7 C6 C2 O4 3.1(11) . . . . ?
C5 C6 C2 O4 -177.2(7) . . . . ?
C7 C6 C2 O3 -176.9(7) . . . . ?
C5 C6 C2 O3 2.8(11) . . . . ?
O5 C3 N1 C16 3.2(15) . . . . ?
C8 C3 N1 C16 -179.4(7) . . . . ?
C12 C17 C16 C15 1.9(15) . . . . ?
C12 C17 C16 N1 -175.2(8) . . . . ?
C14 C15 C16 C17 -1.5(16) . . . . ?
C14 C15 C16 N1 175.2(9) . . . . ?
C3 N1 C16 C17 -138.8(10) . . . . ?
C3 N1 C16 C15 44.4(15) . . . . ?
